@<TRIPOS>MOLECULE
No_2703-gen_results/8p0m/2024-11-26-14-13-15/
 18 20 0 0 0
SMALL
GASTEIGER

@<TRIPOS>ATOM
      1 O         -28.1229   -1.3353   28.4874 O.2     1  UNL1       -0.2652
      2 C         -27.0637   -0.8242   28.8687 C.ar    1  UNL1        0.2791
      3 C         -25.9464   -1.0396   28.8492 C.ar    1  UNL1        0.0579
      4 C         -25.3522   -2.2524   28.5471 C.ar    1  UNL1        0.0048
      5 N         -27.2573    0.6208   29.4840 N.ar    1  UNL1       -0.2079
      6 C         -26.2615    1.3937   29.8365 C.ar    1  UNL1        0.0847
      7 C         -24.9553    0.9041   29.8149 C.ar    1  UNL1        0.0179
      8 C         -24.6763   -0.2883   29.3924 C.ar    1  UNL1        0.0061
      9 C         -24.0447   -2.7834   28.9327 C.ar    1  UNL1        0.0002
     10 C         -23.0235   -1.9902   29.3173 C.ar    1  UNL1        0.0000
     11 C         -23.3155   -0.7597   29.5930 C.ar    1  UNL1        0.0002
     12 C         -26.6312    2.7271   30.3878 C.ar    1  UNL1        0.0258
     13 C         -25.6344    3.5432   30.7790 C.ar    1  UNL1        0.0813
     14 C         -24.2736    2.9755   30.9109 C.ar    1  UNL1        0.0067
     15 C         -23.9996    1.8169   30.4043 C.ar    1  UNL1        0.0017
     16 C         -25.8285    4.8812   31.4258 C.2     1  UNL1        0.3878
     17 O         -25.2278    5.7932   30.8581 O.co2   1  UNL1       -0.2406
     18 O         -26.3118    4.9453   32.6048 O.co2   1  UNL1       -0.2406
@<TRIPOS>BOND
     1     1     2    2
     2     2     3   ar
     3     2     5   ar
     4     7     8   ar
     5    13    16    1
     6    16    17   ar
     7    16    18   ar
     8     6     5   ar
     9     6     7   ar
    10     7    15   ar
    11    15    14   ar
    12    14    13   ar
    13    13    12   ar
    14    12     6   ar
    15     3     4   ar
    16     4     9   ar
    17     9    10   ar
    18    10    11   ar
    19    11     8   ar
    20     8     3   ar
