@<TRIPOS>MOLECULE
No_2704-gen_results/8p0m/2024-11-26-14-13-15/
 32 36 0 0 0
SMALL
GASTEIGER

@<TRIPOS>ATOM
      1 C         -28.0162   -0.8135   28.8779 C.ar    1  UNL1        0.0539
      2 C         -27.0636   -0.1189   28.6079 C.ar    1  UNL1        0.0045
      3 C         -27.0010    0.6913   27.4910 C.ar    1  UNL1        0.0001
      4 C         -28.1373    0.7363   26.6350 C.ar    1  UNL1        0.0000
      5 C         -29.2360    0.0765   27.0690 C.ar    1  UNL1        0.0001
      6 C         -29.2177   -0.6429   28.1747 C.ar    1  UNL1        0.0045
      7 C         -28.0030   -1.6604   30.1266 C.2     1  UNL1        0.2528
      8 O         -27.1218   -2.5017   30.2445 O.2     1  UNL1       -0.2696
      9 N         -29.0108   -1.6366   31.0273 N.am    1  UNL1       -0.2525
     10 C         -30.0672   -0.6697   31.0659 C.2     1  UNL1        0.0649
     11 C         -31.0881   -1.0957   31.7573 C.2     1  UNL1        0.0088
     12 C         -29.1896   -2.4558   32.1237 C.3     1  UNL1        0.1190
     13 C         -30.5015   -2.0834   32.6637 C.3     1  UNL1        0.1020
     14 N         -31.3750   -3.2859   32.8912 N.3     1  UNL1       -0.2665
     15 C         -31.1946   -4.1301   33.6952 C.3     1  UNL1        0.0726
     16 C         -30.7290   -5.1269   33.7467 C.3     1  UNL1        0.0174
     17 C         -30.2345   -5.6977   32.4314 C.3     1  UNL1        0.0031
     18 C         -30.1518   -4.9907   31.3625 C.3     1  UNL1        0.0189
     19 C         -31.1083   -3.8623   31.4949 C.3     1  UNL1        0.0803
     20 C         -32.0689   -3.6860   30.4625 C.ar    1  UNL1       -0.0078
     21 C         -32.8026   -4.4751   30.1172 C.ar    1  UNL1       -0.0030
     22 C         -33.7423   -4.2370   29.0279 C.ar    1  UNL1       -0.0003
     23 C         -33.7897   -2.9967   28.4223 C.ar    1  UNL1       -0.0000
     24 C         -32.9151   -2.0178   28.8701 C.ar    1  UNL1       -0.0003
     25 C         -32.0194   -2.2803   29.8645 C.ar    1  UNL1       -0.0030
     26 C         -31.5780    0.1555   32.6897 C.ar    1  UNL1       -0.0014
     27 C         -32.8915    0.5577   32.5924 C.ar    1  UNL1       -0.0002
     28 C         -33.3226    1.6420   33.3267 C.ar    1  UNL1       -0.0000
     29 C         -32.4499    2.3738   34.0977 C.ar    1  UNL1       -0.0000
     30 C         -31.1237    2.0177   34.1439 C.ar    1  UNL1       -0.0000
     31 C         -30.6587    0.8793   33.4082 C.ar    1  UNL1       -0.0002
     32 C         -29.7913   -5.3567   30.0814 C.3     1  UNL1        0.0017
@<TRIPOS>BOND
     1     1     7    1
     2     7     8    2
     3     7     9   am
     4     9    10    1
     5    10    11    2
     6     9    12    1
     7    11    13    1
     8    12    13    1
     9    13    14    1
    10    14    15    1
    11    16    17    1
    12    14    19    1
    13    18    19    1
    14    19    20    1
    15    11    26    1
    16    18    32    1
    17    15    16    1
    18    17    18    1
    19    26    27   ar
    20    27    28   ar
    21    28    29   ar
    22    29    30   ar
    23    30    31   ar
    24    31    26   ar
    25     1     2   ar
    26     2     3   ar
    27     3     4   ar
    28     4     5   ar
    29     5     6   ar
    30     6     1   ar
    31    20    21   ar
    32    21    22   ar
    33    22    23   ar
    34    23    24   ar
    35    24    25   ar
    36    25    20   ar
