@<TRIPOS>MOLECULE
No_2705-gen_results/8p0m/2024-11-26-14-13-15/
 21 23 0 0 0
SMALL
GASTEIGER

@<TRIPOS>ATOM
      1 C         -28.0162   -0.8135   28.8779 C.ar    1  UNL1        0.0383
      2 C         -27.0636   -0.1189   28.6079 C.ar    1  UNL1        0.0136
      3 C         -25.7923   -0.4302   29.0761 C.ar    1  UNL1        0.0578
      4 C         -25.5756   -1.5654   29.9363 C.ar    1  UNL1        0.0145
      5 C         -26.7354   -2.3004   30.2173 C.ar    1  UNL1        0.0384
      6 C         -27.9184   -1.9537   29.7629 C.ar    1  UNL1        0.1455
      7 O         -29.0001   -2.7012   30.1151 O.3     1  UNL1       -0.4503
      8 CL        -24.3499    0.4889   28.7497 Cl      1  UNL1       -0.0822
      9 C         -29.3705   -2.8230   31.4465 C.ar    1  UNL1        0.1839
     10 C         -29.9499   -1.8071   31.9917 C.ar    1  UNL1        0.0408
     11 C         -30.0284   -1.7968   33.3071 C.ar    1  UNL1        0.0033
     12 C         -29.9925   -3.0049   34.0674 C.ar    1  UNL1        0.0035
     13 C         -29.4504   -4.1396   33.4755 C.ar    1  UNL1        0.0452
     14 C         -29.0997   -4.0637   32.0607 C.ar    1  UNL1        0.2299
     15 C         -27.1130    1.0432   27.6423 C.ar    1  UNL1        0.0009
     16 C         -26.9970    2.2129   28.1400 C.ar    1  UNL1        0.0000
     17 C         -27.3837    0.7316   26.2955 C.ar    1  UNL1        0.0000
     18 C         -27.5360    1.6579   25.3544 C.ar    1  UNL1        0.0000
     19 C         -27.1265    3.3490   27.1662 C.ar    1  UNL1        0.0000
     20 C         -27.3779    3.0737   25.7922 C.ar    1  UNL1        0.0000
     21 O         -28.6535   -5.1055   31.4326 O.3     1  UNL1       -0.2833
@<TRIPOS>BOND
     1     6     7    1
     2     3     8    1
     3     7     9    1
     4     2    15    1
     5    14    21    1
     6     1     2   ar
     7     2     3   ar
     8     3     4   ar
     9     4     5   ar
    10     5     6   ar
    11     6     1   ar
    12     9    10   ar
    13    10    11   ar
    14    11    12   ar
    15    12    13   ar
    16    13    14   ar
    17    14     9   ar
    18    15    16   ar
    19    16    19   ar
    20    19    20   ar
    21    20    18   ar
    22    18    17   ar
    23    17    15   ar
