@<TRIPOS>MOLECULE
No_2706-gen_results/8p0m/2024-11-26-14-13-15/
 22 22 0 0 0
SMALL
GASTEIGER

@<TRIPOS>ATOM
      1 C         -28.0162   -0.8135   28.8779 C.3     1  UNL1        0.0352
      2 C         -27.0636   -0.1190   28.6079 C.ar    1  UNL1       -0.0202
      3 C         -27.0010    0.6913   27.4910 C.ar    1  UNL1        0.0147
      4 C         -25.8548    1.4825   27.0830 C.ar    1  UNL1        0.0051
      5 C         -24.6901    1.4526   27.8807 C.ar    1  UNL1        0.0714
      6 C         -24.7379    0.6010   29.0416 C.ar    1  UNL1        0.0035
      7 C         -25.8234   -0.1688   29.3887 C.ar    1  UNL1       -0.0043
      8 C         -28.7125   -0.4634   30.1695 C.3     1  UNL1        0.0811
      9 C         -29.7400   -1.3351   30.6641 C.2     1  UNL1        0.1954
     10 C         -23.4183    1.8438   27.5344 C.3     1  UNL1        0.4186
     11 F         -23.4249    2.8533   26.7207 F       1  UNL1       -0.1659
     12 F         -22.6927    2.4404   28.6119 F       1  UNL1       -0.1659
     13 F         -22.5577    0.9541   27.0964 F       1  UNL1       -0.1659
     14 N         -29.8633   -2.4114   30.2343 N.2     1  UNL1       -0.2355
     15 F         -30.6889   -0.8394   31.2942 F       1  UNL1       -0.1885
     16 C         -30.0336   -3.5670   31.0838 C.3     1  UNL1        0.2408
     17 C         -29.9587   -4.9119   30.4670 C.2     1  UNL1        0.3892
     18 O         -29.8266   -4.8756   29.2960 O.co2   1  UNL1       -0.2434
     19 O         -29.6698   -5.8935   31.1902 O.co2   1  UNL1       -0.2434
     20 C         -28.1392    0.8256   26.6003 C.2     1  UNL1        0.0928
     21 N         -28.2851    0.5761   25.4035 N.2     1  UNL1       -0.2668
     22 C         -29.4284    0.5140   24.7672 C.3     1  UNL1        0.1517
@<TRIPOS>BOND
     1     1     2    1
     2     1     8    1
     3     8     9    1
     4     5    10    1
     5    10    11    1
     6    10    12    1
     7    10    13    1
     8     9    14    2
     9     9    15    1
    10    14    16    1
    11    16    17    1
    12    17    18   ar
    13    17    19   ar
    14     3    20    1
    15    20    21    2
    16    21    22    1
    17     2     3   ar
    18     3     4   ar
    19     4     5   ar
    20     5     6   ar
    21     6     7   ar
    22     7     2   ar
