@<TRIPOS>MOLECULE
No_2707-gen_results/8p0m/2024-11-26-14-13-15/
 35 37 0 0 0
SMALL
GASTEIGER

@<TRIPOS>ATOM
      1 C         -28.0162   -0.8135   28.8779 C.ar    1  UNL1        0.0063
      2 C         -28.4690   -0.7850   29.8287 C.ar    1  UNL1        0.0798
      3 C         -26.5042   -0.7777   28.8766 C.ar    1  UNL1       -0.0040
      4 C         -25.8103   -0.8531   30.1028 C.ar    1  UNL1       -0.0209
      5 C         -27.9906   -0.8916   31.2257 C.ar    1  UNL1        0.0063
      6 C         -26.6042   -0.8676   31.2652 C.ar    1  UNL1       -0.0040
      7 C         -24.3894   -0.8049   30.1638 C.3     1  UNL1        0.0457
      8 C         -23.8172    0.4762   29.9118 C.3     1  UNL1        0.1136
      9 C         -22.5010    0.5449   29.4097 C.3     1  UNL1        0.0489
     10 C         -21.7696   -0.6524   29.2129 C.3     1  UNL1        0.1645
     11 C         -23.6939   -1.8206   29.2518 C.3     1  UNL1        0.0948
     12 N         -22.3271   -1.7235   29.1652 N.3     1  UNL1       -0.2005
     13 C         -23.8529   -1.2742   31.6542 C.3     1  UNL1        0.0064
     14 C         -24.4403    1.7309   30.3371 C.2     1  UNL1        0.3523
     15 O         -24.4884    2.1403   31.4689 O.2     1  UNL1       -0.2429
     16 N         -25.3592    2.2539   29.4049 N.am    1  UNL1        0.0355
     17 C         -26.1501    3.4923   29.7328 C.2     1  UNL1        0.4416
     18 C         -25.7708    4.5558   28.9520 C.3     1  UNL1        0.5016
     19 F         -25.3033    5.4598   29.6730 F       1  UNL1       -0.1598
     20 F         -24.7964    4.2480   28.0160 F       1  UNL1       -0.1598
     21 F         -26.8285    5.0466   28.2332 F       1  UNL1       -0.1598
     22 N         -27.1549    3.3453   30.5275 N.2     1  UNL1       -0.0325
     23 C         -30.0606   -0.7504   29.8164 C.2     1  UNL1        0.3878
     24 O         -30.7611   -1.4761   30.3592 O.co2   1  UNL1       -0.2406
     25 O         -30.5732    0.2166   29.0761 O.co2   1  UNL1       -0.2406
     26 C         -28.0220    3.7954   30.8570 C.ar    1  UNL1        0.1964
     27 C         -28.6159    4.7656   30.4574 C.ar    1  UNL1        0.0468
     28 C         -29.9309    5.2936   30.9141 C.ar    1  UNL1        0.0069
     29 C         -30.5395    4.5166   31.8898 C.ar    1  UNL1        0.0377
     30 C         -30.0249    3.3608   32.3985 C.ar    1  UNL1        0.1492
     31 C         -28.8142    2.9718   31.9366 C.ar    1  UNL1        0.0840
     32 N         -20.4597   -0.4735   28.7366 N.3     1  UNL1       -0.1137
     33 O         -30.7003    2.6850   33.3719 O.3     1  UNL1       -0.4503
     34 C         -30.7601    2.8699   34.5384 C.2     1  UNL1        0.1796
     35 C         -30.7181    1.9748   35.4283 C.2     1  UNL1        0.0439
@<TRIPOS>BOND
     1     4     7    1
     2     7     8    1
     3     9    10    1
     4     7    11    1
     5    10    12    1
     6     7    13    1
     7     8    14    1
     8    14    15    2
     9    14    16   am
    10    16    17    1
    11    17    18    1
    12    18    19    1
    13    18    20    1
    14    18    21    1
    15    17    22    2
    16     2    23    1
    17    23    24   ar
    18    23    25   ar
    19    22    26    1
    20    10    32    1
    21    30    33    1
    22    33    34    1
    23    34    35    2
    24     8     9    1
    25    12    11    1
    26     1     2   ar
    27     2     5   ar
    28     5     6   ar
    29     6     4   ar
    30     4     3   ar
    31     3     1   ar
    32    26    27   ar
    33    27    28   ar
    34    28    29   ar
    35    29    30   ar
    36    30    31   ar
    37    31    26   ar
