@<TRIPOS>MOLECULE
No_2708-gen_results/8p0m/2024-11-26-14-13-15/
 27 28 0 0 0
SMALL
GASTEIGER

@<TRIPOS>ATOM
      1 C         -28.0162   -0.8135   28.8779 C.2     1  UNL1       -0.0059
      2 C         -27.0636   -0.1190   28.6079 C.2     1  UNL1       -0.0123
      3 C         -26.9716    0.7139   27.5060 C.3     1  UNL1        0.1796
      4 C         -25.8205    1.4909   27.1160 C.3     1  UNL1        0.0480
      5 C         -24.8579    1.3421   27.6008 C.3     1  UNL1        0.0985
      6 C         -24.6224    0.5295   28.8144 C.3     1  UNL1        0.0130
      7 C         -25.7344   -0.1811   29.1908 C.3     1  UNL1        0.0250
      8 C         -28.6330   -0.4621   30.2455 C.ar    1  UNL1       -0.0009
      9 C         -29.6709   -0.4110   30.5321 C.ar    1  UNL1       -0.0000
     10 C         -30.1992   -0.0547   31.8752 C.ar    1  UNL1       -0.0003
     11 C         -29.2903    0.1709   32.8841 C.ar    1  UNL1       -0.0043
     12 C         -27.9304    0.0181   32.5897 C.ar    1  UNL1       -0.0222
     13 C         -27.5589   -0.3042   31.3736 C.ar    1  UNL1       -0.0043
     14 C         -23.5183    2.1266   27.2480 C.3     1  UNL1        0.3976
     15 F         -23.2399    1.9076   26.0344 F       1  UNL1       -0.1701
     16 F         -22.4045    1.7276   27.9453 F       1  UNL1       -0.1701
     17 F         -23.7158    3.4486   27.4052 F       1  UNL1       -0.1701
     18 F         -28.0801    0.9175   26.8023 F       1  UNL1       -0.2328
     19 C         -26.9254    0.2504   33.6427 C.3     1  UNL1        0.0267
     20 C         -26.0661    1.3413   33.5333 C.3     1  UNL1        0.0301
     21 C         -26.7996   -0.6604   34.7118 C.3     1  UNL1        0.0050
     22 C         -26.4515    2.6677   34.0336 C.2     1  UNL1       -0.0287
     23 C         -25.9259    3.8365   33.3349 C.2     1  UNL1       -0.0070
     24 C         -26.2147    3.9881   32.1038 C.3     1  UNL1        0.1658
     25 CL        -27.5001    3.7014   31.4399 Cl      1  UNL1       -0.1017
     26 C         -25.0790    4.5592   31.2235 C.2     1  UNL1        0.2277
     27 O         -24.0783    4.6153   31.5194 O.2     1  UNL1       -0.2866
@<TRIPOS>BOND
     1     1     2    2
     2     2     3    1
     3     3     4    1
     4     4     5    1
     5     5     6    1
     6     2     7    1
     7     6     7    1
     8     1     8    1
     9     5    14    1
    10    14    15    1
    11    14    16    1
    12    14    17    1
    13     3    18    1
    14    12    19    1
    15    19    20    1
    16    19    21    1
    17    20    22    1
    18    22    23    2
    19    23    24    1
    20    24    25    1
    21    24    26    1
    22    26    27    2
    23     8     9   ar
    24     9    10   ar
    25    10    11   ar
    26    11    12   ar
    27    12    13   ar
    28    13     8   ar
