@<TRIPOS>MOLECULE
No_2710-gen_results/8p0m/2024-11-26-14-13-15/
 18 18 0 0 0
SMALL
GASTEIGER

@<TRIPOS>ATOM
      1 C         -28.0162   -0.8135   28.8779 C.2     1  UNL1        0.2651
      2 C         -27.0636   -0.1190   28.6079 C.ar    1  UNL1        0.0550
      3 C         -27.0010    0.6913   27.4910 C.ar    1  UNL1        0.0045
      4 C         -25.8548    1.4825   27.0830 C.ar    1  UNL1        0.0040
      5 C         -24.6901    1.4526   27.8807 C.ar    1  UNL1        0.0714
      6 C         -24.7379    0.6010   29.0416 C.ar    1  UNL1        0.0040
      7 C         -25.8234   -0.1688   29.3887 C.ar    1  UNL1        0.0045
      8 N         -27.9613   -1.6072   30.0877 N.am    1  UNL1       -0.1966
      9 C         -23.5206    2.2106   27.5733 C.3     1  UNL1        0.4186
     10 F         -22.9726    2.6850   28.5756 F       1  UNL1       -0.1659
     11 F         -23.7192    3.2225   26.6905 F       1  UNL1       -0.1659
     12 F         -22.5441    1.4363   26.9968 F       1  UNL1       -0.1659
     13 O         -29.1891   -0.5955   28.5044 O.2     1  UNL1       -0.2684
     14 C         -29.0646   -2.4660   30.5830 C.3     1  UNL1        0.1462
     15 C         -28.8120   -3.8423   30.3669 C.2     1  UNL1        0.0575
     16 C         -29.9970   -4.6568   30.1039 C.2     1  UNL1        0.2763
     17 F         -29.7096   -5.6977   29.4981 F       1  UNL1       -0.1723
     18 F         -30.9184   -3.9554   29.4472 F       1  UNL1       -0.1723
@<TRIPOS>BOND
     1     1     2    1
     2     1     8   am
     3     5     9    1
     4     9    10    1
     5     9    11    1
     6     9    12    1
     7     1    13    2
     8     8    14    1
     9    14    15    1
    10    15    16    2
    11    16    17    1
    12    16    18    1
    13     2     3   ar
    14     3     4   ar
    15     4     5   ar
    16     5     6   ar
    17     6     7   ar
    18     7     2   ar
