@<TRIPOS>MOLECULE
No_2711-gen_results/8p0m/2024-11-26-14-13-15/
 25 28 0 0 0
SMALL
GASTEIGER

@<TRIPOS>ATOM
      1 C         -28.0162   -0.8135   28.8779 C.ar    1  UNL1        0.0075
      2 C         -28.4690   -0.7850   29.8287 C.ar    1  UNL1        0.0848
      3 C         -28.1816    0.4277   28.1134 C.ar    1  UNL1        0.0011
      4 C         -27.4498    0.6435   26.8500 C.ar    1  UNL1        0.0000
      5 C         -27.8596    1.4573   25.9076 C.ar    1  UNL1        0.0000
      6 C         -29.4263    0.1097   30.4178 C.ar    1  UNL1        0.0188
      7 C         -29.6233    1.2198   29.7351 C.ar    1  UNL1        0.0579
      8 C         -28.9609    1.4529   28.5513 C.ar    1  UNL1        0.0114
      9 C         -27.1733    1.5743   24.7028 C.ar    1  UNL1        0.0000
     10 C         -26.0892    0.7468   24.4126 C.ar    1  UNL1        0.0000
     11 C         -25.6364   -0.1191   25.3972 C.ar    1  UNL1        0.0000
     12 C         -26.2807   -0.2063   26.5817 C.ar    1  UNL1        0.0000
     13 CL        -30.6758    2.4766   30.3234 Cl      1  UNL1       -0.0822
     14 C         -28.2794   -2.1430   30.7156 C.2     1  UNL1        0.3432
     15 N         -28.8515   -2.7864   31.2807 N.2     1  UNL1       -0.0387
     16 N         -26.8995   -2.6387   30.5315 N.pl3   1  UNL1       -0.0802
     17 C         -28.2926   -4.0106   31.4474 C.3     1  UNL1        0.3978
     18 N         -27.1718   -3.9905   30.7467 N.3     1  UNL1        0.0275
     19 C         -25.7374   -2.1672   29.9744 C.ar    1  UNL1        0.1596
     20 C         -25.0094   -1.2293   30.7513 C.ar    1  UNL1        0.0429
     21 C         -25.1966   -2.4416   28.7997 C.ar    1  UNL1        0.0429
     22 C         -23.7916   -0.7061   30.3595 C.ar    1  UNL1        0.0150
     23 C         -23.2591   -1.0971   29.1518 C.ar    1  UNL1        0.0579
     24 C         -23.9636   -1.9563   28.3617 C.ar    1  UNL1        0.0150
     25 CL        -21.7708   -0.4636   28.6694 Cl      1  UNL1       -0.0822
@<TRIPOS>BOND
     1     3     4    1
     2     7    13    1
     3     2    14    1
     4    14    15    2
     5    14    16    1
     6    15    17    1
     7    16    18    1
     8    17    18    1
     9    16    19    1
    10    23    25    1
    11    19    20   ar
    12    20    22   ar
    13    22    23   ar
    14    23    24   ar
    15    24    21   ar
    16    21    19   ar
    17     4     5   ar
    18     5     9   ar
    19     9    10   ar
    20    10    11   ar
    21    11    12   ar
    22    12     4   ar
    23     1     2   ar
    24     2     6   ar
    25     6     7   ar
    26     7     8   ar
    27     8     3   ar
    28     3     1   ar
