@<TRIPOS>MOLECULE
No_2712-gen_results/8p0m/2024-11-26-14-13-15/
 16 16 0 0 0
SMALL
GASTEIGER

@<TRIPOS>ATOM
      1 C         -28.0162   -0.8135   28.8779 C.ar    1  UNL1       -0.0043
      2 C         -28.4690   -0.7850   29.8287 C.ar    1  UNL1       -0.0003
      3 C         -27.1356    0.2359   28.5352 C.ar    1  UNL1       -0.0222
      4 C         -26.8050    1.0509   29.2763 C.ar    1  UNL1       -0.0043
      5 C         -28.2372    0.1503   30.9300 C.ar    1  UNL1       -0.0000
      6 C         -27.3522    1.1239   30.6071 C.ar    1  UNL1       -0.0003
      7 C         -26.4616    0.1962   27.1371 C.3     1  UNL1        0.0267
      8 C         -27.0265    0.7893   26.1613 C.3     1  UNL1        0.0304
      9 C         -25.1687   -0.3841   26.9889 C.3     1  UNL1        0.0050
     10 C         -28.2629    1.3432   26.1986 C.2     1  UNL1       -0.0258
     11 C         -28.7818    1.8352   27.0750 C.2     1  UNL1       -0.0046
     12 C         -30.1247    2.5493   26.9322 C.2     1  UNL1       -0.0003
     13 C         -30.8236    3.1008   28.0162 C.2     1  UNL1       -0.0003
     14 C         -32.0490    3.6106   27.8866 C.2     1  UNL1       -0.0046
     15 C         -32.6023    3.6848   26.5862 C.2     1  UNL1       -0.0258
     16 C         -31.9514    3.1888   25.5064 C.3     1  UNL1        0.0307
@<TRIPOS>BOND
     1     3     7    1
     2     7     8    1
     3     7     9    1
     4     8    10    1
     5    10    11    2
     6    11    12    1
     7    12    13    2
     8    13    14    1
     9    14    15    2
    10    15    16    1
    11     1     2   ar
    12     2     5   ar
    13     5     6   ar
    14     6     4   ar
    15     4     3   ar
    16     3     1   ar
