@<TRIPOS>MOLECULE
No_2714-gen_results/8p0m/2024-11-26-14-13-15/
 31 32 0 0 0
SMALL
GASTEIGER

@<TRIPOS>ATOM
      1 O         -28.1229   -1.3353   28.4874 O.2     1  UNL1       -0.2721
      2 C         -27.0637   -0.8242   28.8687 C.2     1  UNL1        0.2625
      3 C         -26.9592    0.0926   29.7582 C.3     1  UNL1        0.2181
      4 N         -25.8472   -1.5491   28.6589 N.am    1  UNL1       -0.1302
      5 P         -26.2626    1.1912   29.7698 P.3     1  UNL1        0.4304
      6 O         -26.2420    2.0393   28.6709 O.2     1  UNL1       -0.4237
      7 O         -24.8122    1.1250   30.3748 O.2     1  UNL1       -0.2403
      8 O         -26.8008    2.2614   30.9867 O.3     1  UNL1       -0.0953
      9 C         -25.5501    1.6692   27.6472 C.2     1  UNL1        0.1367
     10 C         -24.1385    1.7824   27.6652 C.2     1  UNL1       -0.0080
     11 C         -25.9885    2.3532   26.3495 C.3     1  UNL1        0.1577
     12 C         -23.3451    0.6168   27.8685 C.3     1  UNL1        0.0255
     13 C         -22.1435    0.8138   28.5812 C.3     1  UNL1        0.0091
     14 C         -21.1153    0.6539   27.8853 C.3     1  UNL1        0.0260
     15 C         -21.1476    1.5045   26.9641 C.2     1  UNL1       -0.0304
     16 C         -22.3778    1.8297   26.3322 C.2     1  UNL1       -0.0262
     17 C         -23.5469    2.3677   26.7969 C.3     1  UNL1        0.0504
     18 N         -26.4868    1.4338   25.4804 N.am    1  UNL1       -0.2673
     19 C         -27.6842    1.5423   24.8210 C.2     1  UNL1        0.2494
     20 C         -28.6346    2.5008   25.2150 C.ar    1  UNL1        0.0536
     21 C         -29.6635    2.2367   25.6089 C.ar    1  UNL1        0.0045
     22 C         -30.5915    3.1828   26.2796 C.ar    1  UNL1        0.0001
     23 C         -30.1314    4.5145   26.3645 C.ar    1  UNL1        0.0000
     24 C         -28.8513    4.8578   25.9323 C.ar    1  UNL1        0.0001
     25 C         -28.0644    3.8933   25.4366 C.ar    1  UNL1        0.0045
     26 C         -25.6770    0.2986   25.0972 C.3     1  UNL1        0.1156
     27 O         -28.1064    0.6249   24.0897 O.2     1  UNL1       -0.2699
     28 F         -27.8762    2.3497   31.3826 F       1  UNL1       -0.0382
     29 C         -25.0877   -2.4690   29.2998 C.2     1  UNL1        0.3324
     30 CL        -23.8376   -3.2635   28.8554 Cl      1  UNL1       -0.0204
     31 O         -25.5083   -2.5880   30.5781 O.2     1  UNL1       -0.2547
@<TRIPOS>BOND
     1     1     2    2
     2     2     3    1
     3     2     4   am
     4     3     5    1
     5     5     6    1
     6     5     7    2
     7     5     8    1
     8     6     9    1
     9     9    10    2
    10     9    11    1
    11    10    12    1
    12    12    13    1
    13    13    14    1
    14    14    15    1
    15    15    16    2
    16    10    17    1
    17    16    17    1
    18    11    18    1
    19    18    19   am
    20    19    20    1
    21    18    26    1
    22    19    27    2
    23     8    28    1
    24     4    29   am
    25    29    30    1
    26    29    31    2
    27    20    21   ar
    28    21    22   ar
    29    22    23   ar
    30    23    24   ar
    31    24    25   ar
    32    25    20   ar
