@<TRIPOS>MOLECULE
No_2718-gen_results/8p0m/2024-11-26-14-13-15/
 20 20 0 0 0
SMALL
GASTEIGER

@<TRIPOS>ATOM
      1 C         -28.0162   -0.8135   28.8779 C.ar    1  UNL1        0.0067
      2 C         -28.4690   -0.7850   29.8287 C.ar    1  UNL1        0.0798
      3 C         -26.5042   -0.7777   28.8766 C.ar    1  UNL1        0.0031
      4 C         -25.8103   -0.8531   30.1028 C.ar    1  UNL1        0.0375
      5 C         -27.9906   -0.8916   31.2257 C.ar    1  UNL1        0.0067
      6 C         -26.6042   -0.8676   31.2652 C.ar    1  UNL1        0.0031
      7 C         -24.3894   -0.8049   30.1638 C.2     1  UNL1        0.2087
      8 C         -23.8172    0.4762   29.9117 C.3     1  UNL1        0.2693
      9 C         -24.1955    1.5984   30.1917 C.3     1  UNL1        0.4295
     10 F         -24.5522    1.7829   31.3437 F       1  UNL1       -0.1670
     11 F         -23.3733    2.6228   29.9715 F       1  UNL1       -0.1670
     12 F         -25.3441    1.9409   29.4849 F       1  UNL1       -0.1670
     13 C         -23.1233    0.3452   28.5134 C.3     1  UNL1        0.0822
     14 C         -30.1010   -0.8274   29.8537 C.2     1  UNL1        0.3878
     15 O         -30.7232    0.0118   30.6576 O.co2   1  UNL1       -0.2406
     16 O         -30.7038   -1.7440   29.3381 O.co2   1  UNL1       -0.2406
     17 C         -21.8771    1.0195   28.6016 C.3     1  UNL1        0.1854
     18 O         -21.8280    2.0087   27.6102 O.3     1  UNL1       -0.2203
     19 O         -22.5193    0.2467   30.7936 O.3     1  UNL1       -0.2088
     20 O         -23.8557   -1.9679   30.4144 O.2     1  UNL1       -0.2885
@<TRIPOS>BOND
     1     4     7    1
     2     7     8    1
     3     8     9    1
     4     9    10    1
     5     9    11    1
     6     9    12    1
     7     8    13    1
     8     2    14    1
     9    14    15   ar
    10    14    16   ar
    11    13    17    1
    12    17    18    1
    13     8    19    1
    14     7    20    2
    15     1     2   ar
    16     2     5   ar
    17     5     6   ar
    18     6     4   ar
    19     4     3   ar
    20     3     1   ar
