@<TRIPOS>MOLECULE
No_2719-gen_results/8p0m/2024-11-26-14-13-15/
 20 21 0 0 0
SMALL
GASTEIGER

@<TRIPOS>ATOM
      1 C         -28.0162   -0.8135   28.8779 C.ar    1  UNL1        0.0063
      2 C         -28.4690   -0.7850   29.8287 C.ar    1  UNL1        0.0798
      3 C         -26.5042   -0.7777   28.8766 C.ar    1  UNL1       -0.0040
      4 C         -25.8103   -0.8531   30.1028 C.ar    1  UNL1       -0.0209
      5 C         -27.9906   -0.8916   31.2257 C.ar    1  UNL1        0.0063
      6 C         -26.6042   -0.8676   31.2652 C.ar    1  UNL1       -0.0040
      7 C         -24.3894   -0.8049   30.1638 C.3     1  UNL1        0.0453
      8 C         -23.8172    0.4762   29.9118 C.3     1  UNL1        0.1113
      9 C         -22.5010    0.5449   29.4097 C.3     1  UNL1        0.0485
     10 C         -21.7696   -0.6524   29.2129 C.3     1  UNL1        0.1645
     11 C         -23.6939   -1.8206   29.2518 C.3     1  UNL1        0.0948
     12 N         -22.3271   -1.7235   29.1652 N.3     1  UNL1       -0.2005
     13 C         -23.8529   -1.2742   31.6542 C.3     1  UNL1        0.0064
     14 C         -24.4403    1.7309   30.3371 C.2     1  UNL1        0.3648
     15 O         -24.9138    2.4915   29.4242 O.co2   1  UNL1       -0.2457
     16 O         -24.2718    2.1898   31.5981 O.co2   1  UNL1       -0.2457
     17 C         -30.0382   -0.7348   29.6456 C.2     1  UNL1        0.3878
     18 O         -30.4571   -0.3773   28.6890 O.co2   1  UNL1       -0.2406
     19 O         -30.8151   -1.0804   30.6888 O.co2   1  UNL1       -0.2406
     20 N         -20.4873   -0.3562   28.6559 N.3     1  UNL1       -0.1137
@<TRIPOS>BOND
     1     4     7    1
     2     7     8    1
     3     9    10    1
     4     7    11    1
     5    10    12    1
     6     7    13    1
     7     8    14    1
     8    14    15   ar
     9    14    16   ar
    10     2    17    1
    11    17    18   ar
    12    17    19   ar
    13    10    20    1
    14     8     9    1
    15    12    11    1
    16     1     2   ar
    17     2     5   ar
    18     5     6   ar
    19     6     4   ar
    20     4     3   ar
    21     3     1   ar
