@<TRIPOS>MOLECULE
No_272-gen_results/8p0m/2024-11-26-14-13-15/
 11 11 0 0 0
SMALL
GASTEIGER

@<TRIPOS>ATOM
      1 C         -28.0162   -0.8135   28.8779 C.3     1  UNL1        0.1386
      2 C         -27.0636   -0.1190   28.6079 C.ar    1  UNL1       -0.0007
      3 C         -26.9287    1.1713   29.0083 C.ar    1  UNL1       -0.0026
      4 C         -25.7702    2.0341   28.6884 C.ar    1  UNL1       -0.0003
      5 C         -24.7141    1.4431   27.9188 C.ar    1  UNL1       -0.0000
      6 C         -24.8590    0.0783   27.5836 C.ar    1  UNL1       -0.0003
      7 C         -25.9647   -0.6606   27.9164 C.ar    1  UNL1       -0.0026
      8 N         -29.1778   -0.3051   28.9638 N.pl3   1  UNL1       -0.2319
      9 C         -29.7429    0.3639   28.0669 C.2     1  UNL1        0.0759
     10 C         -29.4968    0.7317   27.1306 C.2     1  UNL1       -0.0084
     11 C         -30.2666    1.4432   26.0880 C.3     1  UNL1        0.0321
@<TRIPOS>BOND
     1     1     2    1
     2     1     8    1
     3     8     9    1
     4     9    10    2
     5    10    11    1
     6     2     3   ar
     7     3     4   ar
     8     4     5   ar
     9     5     6   ar
    10     6     7   ar
    11     7     2   ar
