@<TRIPOS>MOLECULE
No_2720-gen_results/8p0m/2024-11-26-14-13-15/
 22 22 0 0 0
SMALL
GASTEIGER

@<TRIPOS>ATOM
      1 C         -28.0162   -0.8135   28.8779 C.3     1  UNL1        0.0497
      2 C         -27.0636   -0.1189   28.6079 C.ar    1  UNL1       -0.0181
      3 C         -26.8756    1.1325   28.9134 C.ar    1  UNL1       -0.0040
      4 C         -25.6883    1.9515   28.5672 C.ar    1  UNL1        0.0035
      5 C         -24.6394    1.2834   27.8753 C.ar    1  UNL1        0.0714
      6 C         -24.8181   -0.0802   27.6166 C.ar    1  UNL1        0.0035
      7 C         -25.9311   -0.7717   27.9696 C.ar    1  UNL1       -0.0040
      8 C         -28.0892   -1.4500   30.2684 C.2     1  UNL1       -0.0213
      9 C         -28.8634   -1.5178   30.9525 C.2     1  UNL1       -0.0122
     10 C         -28.9254   -2.4256   32.1880 C.3     1  UNL1        0.1348
     11 C         -23.4384    1.9717   27.4636 C.3     1  UNL1        0.4186
     12 F         -22.4909    1.5231   27.4923 F       1  UNL1       -0.1659
     13 F         -23.7118    2.4952   26.1321 F       1  UNL1       -0.1659
     14 F         -23.3544    3.2467   28.1852 F       1  UNL1       -0.1659
     15 C         -26.8932   -1.7278   30.9194 C.3     1  UNL1        0.1346
     16 N         -25.6587   -1.6891   30.1799 N.pl3   1  UNL1       -0.2257
     17 C         -24.5919   -1.2399   30.8935 C.2     1  UNL1        0.1635
     18 C         -24.7079   -0.5129   32.1596 C.2     1  UNL1        0.0259
     19 N         -30.0555   -2.4391   32.9371 N.3     1  UNL1       -0.1262
     20 C         -23.2701   -1.3900   30.3482 C.2     1  UNL1        0.4911
     21 N         -22.2622   -0.6407   30.9258 N.pl3   1  UNL1        0.2062
     22 N         -23.0637   -2.0078   29.2322 N.pl3   1  UNL1        0.2062
@<TRIPOS>BOND
     1     1     8    1
     2     8     9    2
     3     9    10    1
     4     5    11    1
     5    11    12    1
     6    11    13    1
     7    11    14    1
     8     8    15    1
     9    15    16    1
    10    16    17    1
    11    17    18    2
    12    10    19    1
    13    17    20    1
    14    20    21    2
    15    20    22    1
    16     1     2    1
    17     2     3   ar
    18     3     4   ar
    19     4     5   ar
    20     5     6   ar
    21     6     7   ar
    22     7     2   ar
