@<TRIPOS>MOLECULE
No_2721-gen_results/8p0m/2024-11-26-14-13-15/
 21 23 0 0 0
SMALL
GASTEIGER

@<TRIPOS>ATOM
      1 C         -28.0162   -0.8135   28.8779 C.ar    1  UNL1        0.0410
      2 C         -27.0636   -0.1190   28.6079 C.ar    1  UNL1        0.1411
      3 C         -25.7647   -0.3897   29.0360 C.ar    1  UNL1        0.0320
      4 C         -25.5296   -1.5302   29.9014 C.ar    1  UNL1        0.0033
      5 C         -26.6888   -2.2893   30.1810 C.ar    1  UNL1        0.0115
      6 C         -27.8727   -1.9508   29.7373 C.ar    1  UNL1        0.0599
      7 CL        -29.2926   -2.7683   30.1523 Cl      1  UNL1       -0.0822
      8 C         -24.5222    0.4049   28.7207 C.ar    1  UNL1        0.0558
      9 C         -24.0819    1.4019   29.5474 C.ar    1  UNL1        0.2296
     10 N         -22.9947    2.1209   29.1317 N.ar    1  UNL1       -0.2098
     11 O         -24.6886    1.7469   30.6095 O.3     1  UNL1       -0.4361
     12 C         -22.1709    1.8494   27.9928 C.ar    1  UNL1        0.1021
     13 C         -23.7544    0.1730   27.5001 C.ar    1  UNL1        0.0063
     14 C         -22.6903    0.9000   27.2401 C.ar    1  UNL1        0.0209
     15 F         -27.1375    0.9421   27.7467 F       1  UNL1       -0.2041
     16 C         -25.4848    2.8620   30.7758 C.ar    1  UNL1        0.1472
     17 C         -26.5245    2.8073   31.6667 C.ar    1  UNL1        0.0376
     18 C         -27.6088    3.4028   31.3757 C.ar    1  UNL1        0.0031
     19 C         -27.6251    4.4052   30.3593 C.ar    1  UNL1        0.0002
     20 C         -26.6188    4.4332   29.4100 C.ar    1  UNL1        0.0031
     21 C         -25.5869    3.5935   29.6034 C.ar    1  UNL1        0.0376
@<TRIPOS>BOND
     1     6     7    1
     2     3     8    1
     3     9    11    1
     4     2    15    1
     5    11    16    1
     6     1     2   ar
     7     2     3   ar
     8     3     4   ar
     9     4     5   ar
    10     5     6   ar
    11     6     1   ar
    12     8     9   ar
    13     9    10   ar
    14    10    12   ar
    15    12    14   ar
    16    14    13   ar
    17    13     8   ar
    18    16    17   ar
    19    17    18   ar
    20    18    19   ar
    21    19    20   ar
    22    20    21   ar
    23    21    16   ar
