@<TRIPOS>MOLECULE
No_2722-gen_results/8p0m/2024-11-26-14-13-15/
 35 38 0 0 0
SMALL
GASTEIGER

@<TRIPOS>ATOM
      1 C         -28.0162   -0.8135   28.8779 C.ar    1  UNL1       -0.0001
      2 C         -27.0636   -0.1189   28.6079 C.ar    1  UNL1        0.0001
      3 C         -26.8756    1.1325   28.9134 C.ar    1  UNL1        0.0020
      4 C         -27.9014    1.8066   29.6436 C.ar    1  UNL1        0.0019
      5 C         -29.0458   -0.2316   29.7181 C.ar    1  UNL1        0.0018
      6 C         -28.9402    1.0517   30.0597 C.ar    1  UNL1        0.0482
      7 C         -25.8732   -0.7125   27.8045 C.ar    1  UNL1        0.0023
      8 C         -25.2858    0.0505   26.8000 C.ar    1  UNL1        0.0296
      9 C         -25.2235    1.4625   27.0117 C.ar    1  UNL1        0.1401
     10 C         -26.1409    2.0494   27.9719 C.ar    1  UNL1        0.0275
     11 F         -24.3998    2.1470   26.3108 F       1  UNL1       -0.2042
     12 C         -26.0806    3.5347   28.0734 C.ar    1  UNL1        0.0022
     13 C         -27.1400    4.2545   28.4067 C.ar    1  UNL1        0.0002
     14 C         -24.7663    4.1568   27.9514 C.ar    1  UNL1        0.0002
     15 C         -27.3593    5.4548   27.7663 C.ar    1  UNL1        0.0046
     16 C         -24.8957    5.5525   27.6257 C.ar    1  UNL1        0.0046
     17 C         -26.1122    6.2454   27.6432 C.ar    1  UNL1        0.0550
     18 C         -29.9551    1.6351   31.0002 C.3     1  UNL1        0.3283
     19 BR        -30.3063    3.3017   31.3867 Br      1  UNL1       -0.0052
     20 F         -31.2258    1.0214   30.7741 F       1  UNL1       -0.1874
     21 F         -29.5857    1.1700   32.2554 F       1  UNL1       -0.1874
     22 C         -26.1466    7.6684   27.3124 C.2     1  UNL1        0.2648
     23 N         -26.9535    8.2421   27.1586 N.am    1  UNL1       -0.2013
     24 O         -24.9009    8.2192   27.3868 O.2     1  UNL1       -0.2684
     25 C         -27.0020    9.7791   26.7984 C.3     1  UNL1        0.1201
     26 C         -28.0712   10.3652   27.4331 C.3     1  UNL1        0.0495
     27 C         -29.2360   10.2628   26.8694 C.ar    1  UNL1       -0.0240
     28 C         -30.0263    9.2006   27.3601 C.ar    1  UNL1       -0.0045
     29 C         -31.0801    8.6878   26.6153 C.ar    1  UNL1       -0.0003
     30 C         -31.6537    9.5364   25.6381 C.ar    1  UNL1       -0.0003
     31 C         -30.9867   10.6540   25.1653 C.ar    1  UNL1       -0.0042
     32 C         -29.7259   10.9838   25.7610 C.ar    1  UNL1       -0.0217
     33 C         -29.0122   12.1613   25.3027 C.3     1  UNL1        0.0520
     34 C         -28.3502   12.0540   24.2041 C.2     1  UNL1       -0.0214
     35 C         -28.2257   11.1059   23.4466 C.2     1  UNL1       -0.0046
@<TRIPOS>BOND
     1     9    11    1
     2    10    12    1
     3     6    18    1
     4    18    19    1
     5    18    20    1
     6    18    21    1
     7    17    22    1
     8    22    23   am
     9    22    24    2
    10    23    25    1
    11    25    26    1
    12    26    27    1
    13    32    33    1
    14    33    34    1
    15    34    35    2
    16    27    28   ar
    17    28    29   ar
    18    29    30   ar
    19    30    31   ar
    20    31    32   ar
    21    32    27   ar
    22     1     2   ar
    23     3     4   ar
    24     4     6   ar
    25     6     5   ar
    26     5     1   ar
    27     2     3   ar
    28     3    10   ar
    29    10     9   ar
    30     9     8   ar
    31     8     7   ar
    32     7     2   ar
    33    12    13   ar
    34    13    15   ar
    35    15    17   ar
    36    17    16   ar
    37    16    14   ar
    38    14    12   ar
