@<TRIPOS>MOLECULE
No_2723-gen_results/8p0m/2024-11-26-14-13-15/
 12 13 0 0 0
SMALL
GASTEIGER

@<TRIPOS>ATOM
      1 C         -28.0162   -0.8135   28.8779 C.ar    1  UNL1        0.0194
      2 C         -27.0636   -0.1189   28.6079 C.ar    1  UNL1        0.0016
      3 C         -27.0010    0.6913   27.4910 C.ar    1  UNL1        0.0003
      4 C         -28.1373    0.7363   26.6350 C.ar    1  UNL1        0.0063
      5 C         -29.2360    0.0765   27.0690 C.ar    1  UNL1        0.0757
      6 C         -29.2177   -0.6429   28.1747 C.ar    1  UNL1        0.0907
      7 C         -30.4152    0.1590   26.1819 C.ar    1  UNL1        0.2845
      8 N         -31.3727   -0.5052   26.4854 N.ar    1  UNL1       -0.1517
      9 O         -30.3871    0.8406   25.1078 O.2     1  UNL1       -0.2650
     10 C         -31.5632   -1.3179   27.6250 C.ar    1  UNL1        0.3714
     11 N         -30.4034   -1.3808   28.4672 N.ar    1  UNL1       -0.1906
     12 O         -32.5492   -1.9267   27.9022 O.2     1  UNL1       -0.2425
@<TRIPOS>BOND
     1     5     7   ar
     2     7     8   ar
     3     7     9    2
     4     8    10   ar
     5     6    11   ar
     6    10    11   ar
     7    10    12    2
     8     1     2   ar
     9     2     3   ar
    10     3     4   ar
    11     4     5   ar
    12     5     6   ar
    13     6     1   ar
