@<TRIPOS>MOLECULE
No_2724-gen_results/8p0m/2024-11-26-14-13-15/
 35 40 0 0 0
SMALL
GASTEIGER

@<TRIPOS>ATOM
      1 C         -28.0162   -0.8135   28.8779 C.ar    1  UNL1        0.1685
      2 C         -27.0636   -0.1190   28.6079 C.ar    1  UNL1        0.0189
      3 C         -25.7923   -0.4302   29.0761 C.ar    1  UNL1       -0.0009
      4 C         -25.5756   -1.5654   29.9363 C.ar    1  UNL1        0.0030
      5 C         -26.7354   -2.3004   30.2173 C.ar    1  UNL1        0.0400
      6 C         -27.9184   -1.9537   29.7629 C.ar    1  UNL1        0.1717
      7 O         -29.0001   -2.7012   30.1151 O.3     1  UNL1       -0.4760
      8 C         -24.5290    0.3490   28.7998 C.ar    1  UNL1       -0.0041
      9 C         -23.3442    0.0060   29.1658 C.ar    1  UNL1       -0.0003
     10 C         -22.1783    0.7811   28.7783 C.ar    1  UNL1       -0.0000
     11 C         -22.3217    1.7499   27.7727 C.ar    1  UNL1       -0.0003
     12 C         -24.6102    1.3558   27.7479 C.ar    1  UNL1       -0.0219
     13 C         -25.8900    1.7030   27.2075 C.3     1  UNL1        0.0305
     14 C         -23.4877    2.0801   27.2931 C.ar    1  UNL1       -0.0043
     15 C         -27.1130    0.9849   27.6096 C.3     1  UNL1        0.0516
     16 C         -28.3684    1.3732   27.0570 C.ar    1  UNL1       -0.0180
     17 C         -26.0368    2.8387   26.3356 C.3     1  UNL1        0.0054
     18 C         -28.9462    2.3764   27.7919 C.ar    1  UNL1       -0.0039
     19 C         -29.9573    2.8653   27.7258 C.ar    1  UNL1       -0.0003
     20 C         -30.8813    2.4401   26.7322 C.ar    1  UNL1       -0.0000
     21 C         -28.8629    0.8129   25.9595 C.ar    1  UNL1       -0.0039
     22 C         -29.8108    1.2315   25.6009 C.ar    1  UNL1       -0.0003
     23 C         -30.1774   -2.1858   30.4773 C.3     1  UNL1        0.1696
     24 C         -31.2512   -2.7105   29.7640 C.3     1  UNL1        0.0456
     25 C         -32.1428   -1.7965   29.2172 C.3     1  UNL1        0.0039
     26 C         -32.2276   -0.4549   29.8023 C.3     1  UNL1        0.0040
     27 C         -31.1391    0.0142   30.5836 C.3     1  UNL1        0.0472
     28 C         -29.9609   -0.7087   30.3375 C.3     1  UNL1        0.2020
     29 O         -28.9055   -0.0493   30.0198 O.3     1  UNL1       -0.4729
     30 C         -30.3643   -2.3604   32.0157 C.3     1  UNL1        0.0474
     31 C         -31.4006   -4.0495   29.4603 C.3     1  UNL1        0.0703
     32 C         -30.9658   -5.0024   30.3226 C.3     1  UNL1        0.0059
     33 C         -31.8224   -4.5071   28.1886 C.3     1  UNL1        0.3185
     34 F         -32.0884   -3.6234   27.3481 F       1  UNL1       -0.1984
     35 F         -31.8478   -5.6280   27.8232 F       1  UNL1       -0.1984
@<TRIPOS>BOND
     1     6     7    1
     2     3     8    1
     3    12    13    1
     4     2    15    1
     5    13    15    1
     6    15    16    1
     7    13    17    1
     8     7    23    1
     9    23    24    1
    10    25    26    1
    11    23    28    1
    12    27    28    1
    13     1    29    1
    14    28    29    1
    15    23    30    1
    16    24    31    1
    17    31    32    1
    18    31    33    1
    19    33    34    1
    20    33    35    1
    21    24    25    1
    22    26    27    1
    23     1     2   ar
    24     2     3   ar
    25     3     4   ar
    26     4     5   ar
    27     5     6   ar
    28     6     1   ar
    29     8     9   ar
    30     9    10   ar
    31    10    11   ar
    32    11    14   ar
    33    14    12   ar
    34    12     8   ar
    35    16    18   ar
    36    18    19   ar
    37    19    20   ar
    38    20    22   ar
    39    22    21   ar
    40    21    16   ar
