@<TRIPOS>MOLECULE
No_2725-gen_results/8p0m/2024-11-26-14-13-15/
 23 26 0 0 0
SMALL
GASTEIGER

@<TRIPOS>ATOM
      1 C         -28.0162   -0.8135   28.8779 C.ar    1  UNL1       -0.0000
      2 C         -28.4690   -0.7850   29.8287 C.ar    1  UNL1       -0.0000
      3 C         -27.1356    0.2359   28.5352 C.ar    1  UNL1       -0.0002
      4 C         -26.3351    0.2900   27.2835 C.ar    1  UNL1        0.0000
      5 C         -28.3692    0.1957   30.9236 C.ar    1  UNL1       -0.0000
      6 C         -27.5158    1.2655   30.6540 C.ar    1  UNL1       -0.0003
      7 C         -26.8411    1.2942   29.4761 C.ar    1  UNL1       -0.0023
      8 C         -25.6774    1.5198   26.9775 C.ar    1  UNL1        0.0013
      9 C         -25.4318    2.5017   27.9539 C.ar    1  UNL1        0.0168
     10 C         -26.0988    2.4610   29.1572 C.ar    1  UNL1       -0.0008
     11 C         -25.8759    3.5967   30.0907 C.3     1  UNL1        0.1202
     12 N         -26.7132    4.1685   30.6774 N.pl3   1  UNL1       -0.2385
     13 C         -27.2100    5.0669   30.6484 C.2     1  UNL1        0.0477
     14 C         -28.4080    5.4092   31.3081 C.2     1  UNL1        0.0117
     15 C         -26.7635    6.2051   29.7302 C.3     1  UNL1        0.0699
     16 C         -25.5414    6.1410   29.1853 C.2     1  UNL1       -0.0053
     17 C         -25.0814    4.8705   28.6738 C.2     1  UNL1        0.0572
     18 C         -24.8944    3.8239   29.4202 C.3     1  UNL1        0.0715
     19 N         -24.6653    4.6073   27.4036 N.2     1  UNL1       -0.2484
     20 C         -24.8645    3.6231   27.2449 C.2     1  UNL1        0.0981
     21 C         -28.5358    5.1327   32.5742 C.2     1  UNL1       -0.0036
     22 C         -29.7746    5.3063   33.3309 C.2     1  UNL1       -0.0258
     23 C         -30.8489    5.8110   32.6133 C.3     1  UNL1        0.0307
@<TRIPOS>BOND
     1    10    11    1
     2    11    12    1
     3    12    13    1
     4    13    14    2
     5    13    15    1
     6    15    16    1
     7    16    17    2
     8    11    18    1
     9    17    18    1
    10    17    19    1
    11     9    20    1
    12    19    20    2
    13    14    21    1
    14    21    22    2
    15    22    23    1
    16     1     2   ar
    17     2     5   ar
    18     5     6   ar
    19     6     7   ar
    20     3     1   ar
    21     3     4   ar
    22     4     8   ar
    23     8     9   ar
    24     9    10   ar
    25    10     7   ar
    26     7     3   ar
