@<TRIPOS>MOLECULE
No_2726-gen_results/8p0m/2024-11-26-14-13-15/
 18 18 0 0 0
SMALL
GASTEIGER

@<TRIPOS>ATOM
      1 C         -28.0162   -0.8135   28.8779 C.3     1  UNL1        0.0310
      2 C         -27.0636   -0.1189   28.6079 C.ar    1  UNL1       -0.0218
      3 C         -26.9287    1.1713   29.0083 C.ar    1  UNL1       -0.0041
      4 C         -25.7702    2.0341   28.6884 C.ar    1  UNL1        0.0045
      5 C         -24.7141    1.4431   27.9188 C.ar    1  UNL1        0.0593
      6 C         -24.8590    0.0783   27.5836 C.ar    1  UNL1        0.0045
      7 C         -25.9647   -0.6606   27.9164 C.ar    1  UNL1       -0.0041
      8 C         -28.6510   -0.6086   30.2543 C.3     1  UNL1        0.0307
      9 C         -29.6513   -1.3216   30.5931 C.2     1  UNL1       -0.0258
     10 C         -30.1116   -2.2865   29.9212 C.2     1  UNL1       -0.0046
     11 C         -31.2447   -3.0583   30.4732 C.2     1  UNL1       -0.0003
     12 C         -31.7095   -4.1685   29.7229 C.2     1  UNL1       -0.0003
     13 C         -30.9708   -4.7291   28.7996 C.2     1  UNL1       -0.0046
     14 C         -31.5572   -5.7373   28.0260 C.2     1  UNL1       -0.0258
     15 C         -30.7677   -6.3367   26.9853 C.3     1  UNL1        0.0307
     16 C         -23.5371    2.1657   27.5628 C.2     1  UNL1        0.2968
     17 N         -22.4063    2.1909   27.9010 N.2     1  UNL1       -0.1025
     18 O         -23.8274    3.1375   26.6470 O.2     1  UNL1       -0.2636
@<TRIPOS>BOND
     1     1     2    1
     2     1     8    1
     3     8     9    1
     4     9    10    2
     5    10    11    1
     6    11    12    2
     7    12    13    1
     8    13    14    2
     9    14    15    1
    10     5    16    1
    11    16    17    2
    12    16    18    1
    13     2     3   ar
    14     3     4   ar
    15     4     5   ar
    16     5     6   ar
    17     6     7   ar
    18     7     2   ar
