@<TRIPOS>MOLECULE
No_2728-gen_results/8p0m/2024-11-26-14-13-15/
 14 15 0 0 0
SMALL
GASTEIGER

@<TRIPOS>ATOM
      1 F         -28.0727   -1.2542   28.5316 F       1  UNL1       -0.2041
      2 C         -27.3591   -0.3792   28.7224 C.ar    1  UNL1        0.1409
      3 C         -26.8100    0.1885   27.6513 C.ar    1  UNL1        0.0380
      4 C         -27.4896    0.3508   26.4426 C.ar    1  UNL1        0.0030
      5 C         -28.0804    1.2032   26.0783 C.ar    1  UNL1        0.0001
      6 C         -29.0544    1.0680   25.0652 C.ar    1  UNL1        0.0000
      7 C         -28.9709   -0.0357   24.2383 C.ar    1  UNL1        0.0000
      8 C         -28.0290   -0.9471   24.5267 C.ar    1  UNL1        0.0000
      9 C         -27.1606   -0.8077   25.5589 C.ar    1  UNL1        0.0001
     10 C         -25.3584    0.6325   27.6966 C.ar    1  UNL1        0.0598
     11 CL        -24.6192    1.4046   26.5642 Cl      1  UNL1       -0.0822
     12 C         -26.9832    0.0664   30.1121 C.ar    1  UNL1        0.0297
     13 C         -25.6987    0.3243   30.4064 C.ar    1  UNL1        0.0032
     14 C         -24.8890    0.9510   29.1868 C.ar    1  UNL1        0.0115
@<TRIPOS>BOND
     1     1     2    1
     2     3     4    1
     3    10    11    1
     4     2     3   ar
     5     3    10   ar
     6    10    14   ar
     7    14    13   ar
     8    13    12   ar
     9    12     2   ar
    10     4     5   ar
    11     5     6   ar
    12     6     7   ar
    13     7     8   ar
    14     8     9   ar
    15     9     4   ar
