@<TRIPOS>MOLECULE
No_2729-gen_results/8p0m/2024-11-26-14-13-15/
 25 27 0 0 0
SMALL
GASTEIGER

@<TRIPOS>ATOM
      1 C         -28.0162   -0.8135   28.8779 C.ar    1  UNL1        0.1393
      2 C         -27.0636   -0.1189   28.6079 C.ar    1  UNL1        0.0349
      3 C         -26.9716    0.7139   27.5060 C.ar    1  UNL1        0.0153
      4 C         -28.1053    0.7744   26.6421 C.ar    1  UNL1        0.0684
      5 C         -29.2008    0.1044   27.0527 C.ar    1  UNL1        0.0712
      6 C         -29.2096   -0.6029   28.1853 C.ar    1  UNL1        0.0491
      7 CL        -30.5651    0.2430   26.0493 Cl      1  UNL1       -0.0813
      8 C         -25.7033   -0.2337   29.4132 C.ar    1  UNL1        0.0038
      9 C         -25.5450   -0.8516   30.2590 C.ar    1  UNL1        0.0002
     10 C         -24.3072   -0.9380   31.0295 C.ar    1  UNL1        0.0009
     11 C         -23.1845   -0.2125   30.5777 C.ar    1  UNL1        0.0114
     12 C         -23.3796    0.5993   29.4403 C.ar    1  UNL1        0.0577
     13 C         -24.6271    0.5929   28.7531 C.ar    1  UNL1        0.0115
     14 CL        -22.0345    1.4783   28.8456 Cl      1  UNL1       -0.0822
     15 CL        -28.0193    1.8204   25.2867 Cl      1  UNL1       -0.0814
     16 O         -28.0988   -1.6053   29.9620 O.3     1  UNL1       -0.4754
     17 C         -29.2760   -2.2743   30.2197 C.3     1  UNL1        0.2057
     18 C         -29.2244   -2.7363   31.6645 C.3     1  UNL1        0.0520
     19 C         -29.2987   -1.7281   32.6022 C.3     1  UNL1        0.0302
     20 C         -30.5119   -1.2267   32.8686 C.ar    1  UNL1       -0.0221
     21 C         -31.5230   -1.6864   32.6813 C.ar    1  UNL1       -0.0043
     22 C         -32.8689   -1.0688   32.9394 C.ar    1  UNL1       -0.0003
     23 C         -32.7894    0.2525   33.4365 C.ar    1  UNL1       -0.0000
     24 C         -31.6116    0.8953   33.6585 C.ar    1  UNL1       -0.0003
     25 C         -30.4215    0.2586   33.3969 C.ar    1  UNL1       -0.0043
@<TRIPOS>BOND
     1     5     7    1
     2     2     8    1
     3    12    14    1
     4     4    15    1
     5     1    16    1
     6    16    17    1
     7    17    18    1
     8    18    19    1
     9    19    20    1
    10     1     2   ar
    11     2     3   ar
    12     3     4   ar
    13     4     5   ar
    14     5     6   ar
    15     6     1   ar
    16     8     9   ar
    17     9    10   ar
    18    10    11   ar
    19    11    12   ar
    20    12    13   ar
    21    13     8   ar
    22    20    21   ar
    23    21    22   ar
    24    22    23   ar
    25    23    24   ar
    26    24    25   ar
    27    25    20   ar
