@<TRIPOS>MOLECULE
No_273-gen_results/8p0m/2024-11-26-14-13-15/
 12 12 0 0 0
SMALL
GASTEIGER

@<TRIPOS>ATOM
      1 C         -28.0162   -0.8135   28.8779 C.ar    1  UNL1        0.0336
      2 C         -28.4690   -0.7850   29.8287 C.ar    1  UNL1        0.1423
      3 C         -27.0871    0.2903   28.6377 C.ar    1  UNL1        0.0759
      4 C         -26.8317    1.2487   29.5869 C.ar    1  UNL1        0.0336
      5 C         -28.3914    0.0801   31.0065 C.ar    1  UNL1        0.0592
      6 C         -27.4940    1.1521   30.7841 C.ar    1  UNL1        0.1423
      7 C         -26.3172    0.3994   27.3653 C.3     1  UNL1        0.4187
      8 F         -25.4556   -0.3605   27.3146 F       1  UNL1       -0.1659
      9 F         -25.7398    1.6637   27.2272 F       1  UNL1       -0.1659
     10 F         -27.1863    0.3132   26.2754 F       1  UNL1       -0.1659
     11 F         -29.3474   -1.9080   30.1777 F       1  UNL1       -0.2041
     12 F         -27.3360    2.0662   31.7420 F       1  UNL1       -0.2041
@<TRIPOS>BOND
     1     3     7    1
     2     7     8    1
     3     7     9    1
     4     7    10    1
     5     2    11    1
     6     6    12    1
     7     1     2   ar
     8     2     5   ar
     9     5     6   ar
    10     6     4   ar
    11     4     3   ar
    12     3     1   ar
