@<TRIPOS>MOLECULE
No_2730-gen_results/8p0m/2024-11-26-14-13-15/
 19 20 0 0 0
SMALL
GASTEIGER

@<TRIPOS>ATOM
      1 C         -28.0162   -0.8135   28.8779 C.ar    1  UNL1       -0.0003
      2 C         -28.4690   -0.7850   29.8287 C.ar    1  UNL1       -0.0003
      3 C         -26.5455   -0.8762   28.8500 C.ar    1  UNL1       -0.0042
      4 C         -25.8041   -1.0324   30.0571 C.ar    1  UNL1       -0.0193
      5 C         -26.5373   -1.0386   31.2171 C.ar    1  UNL1        0.0069
      6 C         -27.8843   -0.9532   31.1862 C.ar    1  UNL1       -0.0020
      7 C         -24.3555   -1.1121   30.0346 C.3     1  UNL1        0.0521
      8 C         -23.6610    0.1027   29.8448 C.2     1  UNL1       -0.0217
      9 C         -23.9525    1.2330   30.4520 C.2     1  UNL1       -0.0074
     10 C         -25.0366    1.3255   31.3176 C.2     1  UNL1       -0.0089
     11 C         -25.2922    2.6604   31.9114 C.2     1  UNL1       -0.0035
     12 C         -26.2987    2.8292   32.9041 C.2     1  UNL1       -0.0048
     13 C         -26.9128    1.6565   33.3355 C.2     1  UNL1       -0.0246
     14 C         -26.4813    0.4428   32.9690 C.3     1  UNL1        0.0452
     15 C         -25.5077    0.3037   32.0696 C.3     1  UNL1        0.0899
     16 C         -24.4273   -0.5586   32.7934 C.3     1  UNL1        0.0211
     17 C         -26.1445   -2.4764   31.8363 C.3     1  UNL1        0.2083
     18 CL        -26.3531   -0.2520   31.9929 Cl      1  UNL1       -0.1114
     19 O         -26.4752   -2.3705   30.5482 O.3     1  UNL1       -0.2152
@<TRIPOS>BOND
     1     4     7    1
     2     7     8    1
     3     8     9    2
     4     9    10    1
     5    10    11    2
     6    11    12    1
     7    12    13    2
     8    13    14    1
     9    10    15    1
    10    14    15    1
    11    15    16    1
    12     5    17    1
    13    15    18    1
    14    17    19    1
    15     1     2   ar
    16     2     6   ar
    17     6     5   ar
    18     5     4   ar
    19     4     3   ar
    20     3     1   ar
