@<TRIPOS>MOLECULE
No_2731-gen_results/8p0m/2024-11-26-14-13-15/
 8 8 0 0 0
SMALL
GASTEIGER

@<TRIPOS>ATOM
      1 C         -28.0162   -0.8135   28.8779 C.ar    1  UNL1       -0.0032
      2 C         -27.0636   -0.1190   28.6079 C.ar    1  UNL1       -0.0028
      3 C         -27.0010    0.6913   27.4910 C.ar    1  UNL1       -0.0003
      4 C         -28.1420    0.8282   26.7994 C.ar    1  UNL1       -0.0000
      5 C         -27.9653   -1.5171   30.1662 C.3     1  UNL1        0.1356
      6 C         -29.2723    0.1712   27.2155 C.ar    1  UNL1       -0.0003
      7 C         -29.2027   -0.5399   28.2807 C.ar    1  UNL1       -0.0028
      8 N         -26.8927   -2.2368   30.4414 N.3     1  UNL1       -0.1262
@<TRIPOS>BOND
     1     5     8    1
     2     5     1    1
     3     1     2   ar
     4     2     3   ar
     5     3     4   ar
     6     4     6   ar
     7     6     7   ar
     8     7     1   ar
