@<TRIPOS>MOLECULE
No_2732-gen_results/8p0m/2024-11-26-14-13-15/
 17 17 0 0 0
SMALL
GASTEIGER

@<TRIPOS>ATOM
      1 O         -28.1229   -1.3353   28.4874 O.2     1  UNL1       -0.2696
      2 C         -27.4806   -0.4044   28.7094 C.2     1  UNL1        0.2528
      3 C         -26.3804   -0.0867   27.9394 C.ar    1  UNL1        0.0539
      4 N         -27.8993    0.6459   29.6320 N.am    1  UNL1       -0.2522
      5 C         -26.3190    0.9178   27.1016 C.ar    1  UNL1        0.0045
      6 C         -25.2038    1.1966   26.2779 C.ar    1  UNL1        0.0001
      7 C         -23.9447    0.6962   26.7050 C.ar    1  UNL1        0.0000
      8 C         -23.9368   -0.1735   27.7893 C.ar    1  UNL1        0.0001
      9 C         -25.0682   -0.5827   28.4384 C.ar    1  UNL1        0.0045
     10 C         -29.0704    0.3916   30.4174 C.3     1  UNL1        0.1204
     11 C         -27.1197    1.7571   29.9094 C.2     1  UNL1        0.0678
     12 C         -27.2409    2.7380   30.1176 C.2     1  UNL1        0.0162
     13 C         -27.0138    3.7395   30.1495 C.2     1  UNL1        0.0013
     14 C         -27.7792    4.9912   30.4662 C.2     1  UNL1       -0.0003
     15 C         -27.2707    6.3014   30.4581 C.2     1  UNL1       -0.0046
     16 C         -25.9284    6.4673   30.0741 C.2     1  UNL1       -0.0258
     17 C         -25.1791    5.4303   29.5940 C.3     1  UNL1        0.0307
@<TRIPOS>BOND
     1     1     2    2
     2     2     3    1
     3     2     4   am
     4     4    10    1
     5     4    11    1
     6    11    12    2
     7    12    13    1
     8    13    14    2
     9    14    15    1
    10    15    16    2
    11    16    17    1
    12     3     5   ar
    13     5     6   ar
    14     6     7   ar
    15     7     8   ar
    16     8     9   ar
    17     9     3   ar
