@<TRIPOS>MOLECULE
No_2733-gen_results/8p0m/2024-11-26-14-13-15/
 19 20 0 0 0
SMALL
GASTEIGER

@<TRIPOS>ATOM
      1 C         -28.0162   -0.8135   28.8779 C.ar    1  UNL1        0.0005
      2 C         -27.0636   -0.1189   28.6079 C.ar    1  UNL1       -0.0003
      3 C         -26.9287    1.1713   29.0083 C.ar    1  UNL1       -0.0033
      4 C         -27.9560    1.7411   29.7840 C.ar    1  UNL1        0.0064
      5 C         -29.0569   -0.3271   29.7466 C.ar    1  UNL1        0.0067
      6 C         -28.9828    0.9722   30.1516 C.ar    1  UNL1        0.0346
      7 C         -25.8815   -0.6260   27.7945 C.ar    1  UNL1        0.0002
      8 C         -24.5472   -0.2311   28.2390 C.ar    1  UNL1        0.0063
      9 C         -24.3284    1.1339   28.3332 C.ar    1  UNL1        0.0758
     10 C         -25.5360    1.7883   29.0936 C.ar    1  UNL1       -0.0154
     11 C         -23.0989    1.7675   28.2677 C.2     1  UNL1        0.3874
     12 O         -22.5887    1.8227   27.0506 O.co2   1  UNL1       -0.2406
     13 O         -22.4134    2.1714   29.2638 O.co2   1  UNL1       -0.2406
     14 BR        -30.4623    1.7129   31.1038 Br      1  UNL1       -0.0490
     15 C         -25.3074    3.1770   29.5651 C.3     1  UNL1        0.0343
     16 C         -25.7770    4.1483   28.7074 C.3     1  UNL1        0.0693
     17 C         -25.6455    4.2615   27.4637 C.3     1  UNL1        0.0086
     18 C         -26.3086    5.3414   29.4344 C.2     1  UNL1        0.2073
     19 O         -26.4195    5.3809   30.6651 O.2     1  UNL1       -0.2883
@<TRIPOS>BOND
     1     9    11    1
     2    11    12   ar
     3    11    13   ar
     4     6    14    1
     5    10    15    1
     6    15    16    1
     7    16    17    1
     8    16    18    1
     9    18    19    2
    10     1     2   ar
    11     3     4   ar
    12     4     6   ar
    13     6     5   ar
    14     5     1   ar
    15     2     3   ar
    16     3    10   ar
    17    10     9   ar
    18     9     8   ar
    19     8     7   ar
    20     7     2   ar
