@<TRIPOS>MOLECULE
No_2734-gen_results/8p0m/2024-11-26-14-13-15/
 25 26 0 0 0
SMALL
GASTEIGER

@<TRIPOS>ATOM
      1 C         -28.0162   -0.8135   28.8779 C.2     1  UNL1        0.0678
      2 C         -27.0636   -0.1189   28.6079 C.2     1  UNL1       -0.0232
      3 C         -26.9716    0.7139   27.5060 C.3     1  UNL1        0.1744
      4 C         -25.8206    1.4910   27.1160 C.2     1  UNL1        0.1643
      5 C         -24.6562    1.4242   27.9180 C.3     1  UNL1        0.0604
      6 C         -23.4598    2.1165   27.6160 C.3     1  UNL1        0.0075
      7 C         -22.3449    1.9937   28.4413 C.3     1  UNL1        0.0022
      8 C         -22.2164    0.7373   28.9666 C.3     1  UNL1        0.0261
      9 C         -23.2887   -0.1160   29.3251 C.3     1  UNL1        0.1607
     10 C         -24.3390    0.0499   28.4722 C.3     1  UNL1        0.0331
     11 C         -27.9829   -1.6198   30.1118 C.3     1  UNL1        0.4180
     12 C         -25.6691   -0.4856   29.1603 C.3     1  UNL1        0.0250
     13 F         -26.8272   -2.1236   30.4916 F       1  UNL1       -0.1659
     14 F         -28.3878   -0.9024   31.2371 F       1  UNL1       -0.1659
     15 F         -28.8748   -2.7129   29.9805 F       1  UNL1       -0.1659
     16 C         -28.2173    1.1214   26.8333 C.2     1  UNL1        0.3275
     17 O         -29.0651    1.6558   27.3189 O.2     1  UNL1       -0.2493
     18 O         -28.3991    0.3631   25.6617 O.3     1  UNL1       -0.4439
     19 O         -25.9463    2.4173   26.2724 O.2     1  UNL1       -0.2952
     20 C         -27.8277    0.4272   24.5872 C.3     1  UNL1        0.2556
     21 C         -23.0642   -1.3082   30.0804 C.2     1  UNL1        0.3776
     22 O         -23.8237   -2.2156   30.2920 O.co2   1  UNL1       -0.2444
     23 O         -21.9523   -1.2828   30.8427 O.co2   1  UNL1       -0.2444
     24 C         -24.2592   -0.9943   27.3021 C.3     1  UNL1        0.0025
     25 CL        -24.0781    0.5464   30.6602 Cl      1  UNL1       -0.1047
@<TRIPOS>BOND
     1     1     2    2
     2     2     3    1
     3     3     4    1
     4     4     5    1
     5     6     7    1
     6     8     9    1
     7     5    10    1
     8     9    10    1
     9     1    11    1
    10     2    12    1
    11    10    12    1
    12    11    13    1
    13    11    14    1
    14    11    15    1
    15     3    16    1
    16    16    17    2
    17    16    18    1
    18     4    19    2
    19    18    20    1
    20     9    21    1
    21    21    22   ar
    22    21    23   ar
    23    10    24    1
    24     9    25    1
    25     5     6    1
    26     7     8    1
