@<TRIPOS>MOLECULE
No_2737-gen_results/8p0m/2024-11-26-14-13-15/
 24 25 0 0 0
SMALL
GASTEIGER

@<TRIPOS>ATOM
      1 F         -28.0727   -1.2542   28.5316 F       1  UNL1       -0.1931
      2 C         -27.3591   -0.3792   28.7224 C.3     1  UNL1        0.3439
      3 F         -27.7576    0.4972   29.4008 F       1  UNL1       -0.1931
      4 C         -26.0810   -0.3916   28.0774 C.ar    1  UNL1        0.0775
      5 C         -25.7306    0.7169   27.3094 C.ar    1  UNL1        0.0039
      6 C         -24.3802    1.0846   27.2187 C.ar    1  UNL1       -0.0042
      7 C         -23.3753    0.4025   27.9690 C.ar    1  UNL1        0.0028
      8 C         -23.8142   -0.6949   28.7808 C.ar    1  UNL1        0.0367
      9 C         -25.0412   -1.0524   28.8803 C.ar    1  UNL1        0.1399
     10 C         -23.8824    2.2200   26.4383 C.2     1  UNL1       -0.0258
     11 C         -24.5516    3.4491   26.4434 C.2     1  UNL1       -0.0257
     12 C         -22.6777    2.1212   25.6838 C.3     1  UNL1        0.0307
     13 C         -25.6294    3.7584   27.3027 C.3     1  UNL1        0.0520
     14 C         -25.5275    4.5957   28.3354 C.ar    1  UNL1       -0.0178
     15 C         -25.2114    5.7556   28.1796 C.ar    1  UNL1       -0.0037
     16 C         -25.1062    6.7961   29.2002 C.ar    1  UNL1        0.0063
     17 C         -25.4380    6.4195   30.4839 C.ar    1  UNL1        0.0798
     18 C         -25.8581    5.1056   30.7304 C.ar    1  UNL1        0.0063
     19 C         -25.9346    4.2003   29.6681 C.ar    1  UNL1       -0.0037
     20 C         -25.3779    7.4210   31.5831 C.2     1  UNL1        0.3878
     21 O         -25.4483    7.0902   32.7121 O.co2   1  UNL1       -0.2406
     22 O         -25.0658    8.6622   31.2047 O.co2   1  UNL1       -0.2406
     23 O         -25.4119   -2.1025   29.5936 O.3     1  UNL1       -0.4716
     24 C         -25.7044   -2.0583   30.8079 C.3     1  UNL1        0.2525
@<TRIPOS>BOND
     1     1     2    1
     2     2     3    1
     3     2     4    1
     4     6    10    1
     5    10    11    2
     6    10    12    1
     7    11    13    1
     8    13    14    1
     9    17    20    1
    10    20    21   ar
    11    20    22   ar
    12     9    23    1
    13    23    24    1
    14    14    15   ar
    15    15    16   ar
    16    16    17   ar
    17    17    18   ar
    18    18    19   ar
    19    19    14   ar
    20     4     5   ar
    21     5     6   ar
    22     6     7   ar
    23     7     8   ar
    24     8     9   ar
    25     9     4   ar
