@<TRIPOS>MOLECULE
No_2739-gen_results/8p0m/2024-11-26-14-13-15/
 15 16 0 0 0
SMALL
GASTEIGER

@<TRIPOS>ATOM
      1 C         -28.0162   -0.8135   28.8779 C.ar    1  UNL1        0.0066
      2 C         -28.4690   -0.7850   29.8287 C.ar    1  UNL1        0.0798
      3 C         -28.1960    0.3478   28.0550 C.ar    1  UNL1        0.0002
      4 C         -29.0191    1.3501   28.3782 C.ar    1  UNL1        0.0000
      5 C         -28.3170   -1.9812   30.8560 C.2     1  UNL1        0.3878
      6 C         -29.5950    1.2859   29.6049 C.ar    1  UNL1        0.0002
      7 C         -29.3465    0.2093   30.3749 C.ar    1  UNL1        0.0066
      8 O         -29.2620   -2.7236   31.0107 O.co2   1  UNL1       -0.2406
      9 O         -27.3179   -2.0203   31.6157 O.co2   1  UNL1       -0.2406
     10 C         -27.4502    0.3706   26.6869 C.ar    1  UNL1        0.0000
     11 C         -26.0538    0.3457   26.7025 C.ar    1  UNL1        0.0000
     12 C         -25.3122    0.7083   25.5846 C.ar    1  UNL1        0.0000
     13 C         -28.1127    0.3897   25.5245 C.ar    1  UNL1        0.0000
     14 C         -27.3895    0.5411   24.2929 C.ar    1  UNL1        0.0000
     15 C         -25.9999    0.6574   24.3144 C.ar    1  UNL1        0.0000
@<TRIPOS>BOND
     1     2     5    1
     2     5     8   ar
     3     5     9   ar
     4     3    10    1
     5    10    11   ar
     6    11    12   ar
     7    12    15   ar
     8    15    14   ar
     9    14    13   ar
    10    13    10   ar
    11     1     2   ar
    12     2     7   ar
    13     7     6   ar
    14     6     4   ar
    15     4     3   ar
    16     3     1   ar
