@<TRIPOS>MOLECULE
No_274-gen_results/8p0m/2024-11-26-14-13-15/
 4 3 0 0 0
SMALL
GASTEIGER

@<TRIPOS>ATOM
      1 O         -28.1229   -1.3353   28.4874 O.2     1  UNL1       -0.2190
      2 C         -28.5208   -0.4363   29.0779 C.2     1  UNL1        0.4834
      3 F         -27.9730   -0.0163   30.0866 F       1  UNL1       -0.1322
      4 F         -29.6329    0.0987   28.6692 F       1  UNL1       -0.1322
@<TRIPOS>BOND
     1     1     2    2
     2     2     3    1
     3     2     4    1
