@<TRIPOS>MOLECULE
No_2740-gen_results/8p0m/2024-11-26-14-13-15/
 22 24 0 0 0
SMALL
GASTEIGER

@<TRIPOS>ATOM
      1 F         -28.0727   -1.2542   28.5316 F       1  UNL1       -0.2042
      2 C         -27.0607   -0.6291   28.8721 C.ar    1  UNL1        0.1401
      3 C         -26.1528   -1.1557   29.4537 C.ar    1  UNL1        0.0296
      4 C         -24.8777   -0.5788   29.8639 C.ar    1  UNL1        0.0024
      5 C         -24.7426    0.8273   29.4808 C.ar    1  UNL1        0.0016
      6 C         -25.7883    1.3927   28.7628 C.ar    1  UNL1        0.0195
      7 C         -26.9145    0.7309   28.4427 C.ar    1  UNL1        0.0289
      8 C         -25.5328    2.8344   28.3724 C.ar    1  UNL1        0.0774
      9 N         -25.7595    3.8174   29.1814 N.ar    1  UNL1       -0.2442
     10 C         -25.0561    3.1278   27.0330 C.ar    1  UNL1       -0.0042
     11 C         -25.9795    4.9862   28.8348 C.ar    1  UNL1        0.0988
     12 C         -24.9610    4.4978   26.6605 C.ar    1  UNL1       -0.0012
     13 C         -25.3777    5.4858   27.5813 C.ar    1  UNL1        0.0204
     14 C         -24.5738    2.1362   26.1782 C.3     1  UNL1        0.0326
     15 C         -27.9885    1.3397   27.6768 C.2     1  UNL1        0.0023
     16 C         -28.0030    1.2851   26.3210 C.2     1  UNL1        0.0001
     17 C         -28.8433    1.8204   25.6590 C.ar    1  UNL1        0.0000
     18 C         -28.8112    1.6661   24.1547 C.ar    1  UNL1        0.0000
     19 C         -29.7517    2.3723   23.3914 C.ar    1  UNL1        0.0000
     20 C         -30.7875    3.1442   23.9520 C.ar    1  UNL1        0.0000
     21 C         -30.8758    3.1682   25.3581 C.ar    1  UNL1        0.0000
     22 C         -29.9522    2.6314   26.1710 C.ar    1  UNL1        0.0000
@<TRIPOS>BOND
     1     1     2    1
     2     6     8    1
     3    10    14    1
     4     7    15    1
     5    15    16    2
     6    16    17    1
     7     8     9   ar
     8     9    11   ar
     9    11    13   ar
    10    13    12   ar
    11    12    10   ar
    12    10     8   ar
    13     2     3   ar
    14     3     4   ar
    15     4     5   ar
    16     5     6   ar
    17     6     7   ar
    18     7     2   ar
    19    17    18   ar
    20    18    19   ar
    21    19    20   ar
    22    20    21   ar
    23    21    22   ar
    24    22    17   ar
