@<TRIPOS>MOLECULE
No_2741-gen_results/8p0m/2024-11-26-14-13-15/
 32 35 0 0 0
SMALL
GASTEIGER

@<TRIPOS>ATOM
      1 C         -28.0162   -0.8135   28.8779 C.ar    1  UNL1        0.0000
      2 C         -28.4690   -0.7850   29.8287 C.ar    1  UNL1        0.0000
      3 C         -27.0871    0.2903   28.6377 C.ar    1  UNL1        0.0013
      4 C         -26.8317    1.2487   29.5869 C.ar    1  UNL1        0.0000
      5 C         -28.3914    0.0801   31.0065 C.ar    1  UNL1        0.0000
      6 C         -27.4940    1.1521   30.7841 C.ar    1  UNL1        0.0000
      7 C         -26.3172    0.3994   27.3653 C.ar    1  UNL1        0.0178
      8 C         -26.8815    0.9711   26.3721 C.ar    1  UNL1        0.0566
      9 C         -26.1465    0.9703   25.0973 C.ar    1  UNL1        0.0047
     10 C         -24.7793    0.5609   25.1117 C.ar    1  UNL1        0.0014
     11 C         -25.0074   -0.1159   27.2986 C.ar    1  UNL1        0.0489
     12 C         -24.2881    0.0057   26.2234 C.ar    1  UNL1        0.0146
     13 N         -24.4406   -0.6792   28.4569 N.pl3   1  UNL1       -0.2941
     14 C         -23.3879   -0.1094   29.1495 C.3     1  UNL1        0.1661
     15 C         -24.8236   -1.9836   28.8918 C.3     1  UNL1        0.0920
     16 C         -24.0605   -2.7173   29.7802 C.3     1  UNL1        0.0216
     17 C         -22.6611   -0.7378   30.1229 C.3     1  UNL1        0.0397
     18 C         -23.0731   -1.9732   30.5529 C.3     1  UNL1        0.0050
     19 N         -22.9773    1.1402   28.7729 N.3     1  UNL1       -0.1108
     20 C         -28.3133    1.3036   26.3588 C.2     1  UNL1        0.2690
     21 O         -29.1166    1.0960   27.1358 O.2     1  UNL1       -0.2680
     22 N         -28.6913    2.0426   25.1977 N.am    1  UNL1       -0.1754
     23 C         -30.0352    2.5227   24.9500 C.ar    1  UNL1        0.0737
     24 C         -30.2504    3.6468   25.5184 C.ar    1  UNL1        0.0163
     25 C         -31.6229    4.2588   25.3540 C.ar    1  UNL1       -0.0012
     26 C         -32.4994    3.6646   24.4849 C.ar    1  UNL1       -0.0006
     27 C         -32.0972    2.4542   23.8565 C.ar    1  UNL1       -0.0012
     28 C         -30.8456    1.9072   24.0794 C.ar    1  UNL1        0.0163
     29 C         -33.8263    4.2219   24.2195 C.3     1  UNL1        0.1386
     30 N         -34.4145    4.9475   25.0401 N.pl3   1  UNL1       -0.2315
     31 C         -35.1662    5.5328   25.3622 C.2     1  UNL1        0.0805
     32 C         -35.4974    6.3603   26.5467 C.2     1  UNL1        0.0188
@<TRIPOS>BOND
     1     3     7    1
     2    11    13    1
     3    13    14    1
     4    13    15    1
     5    16    18    1
     6    17    18    1
     7    14    19    1
     8     8    20    1
     9    20    21    2
    10    20    22   am
    11    22    23    1
    12    26    29    1
    13    29    30    1
    14    30    31    1
    15    31    32    2
    16    14    17    1
    17    16    15    1
    18     7     8   ar
    19     8     9   ar
    20     9    10   ar
    21    10    12   ar
    22    12    11   ar
    23    11     7   ar
    24    23    24   ar
    25    24    25   ar
    26    25    26   ar
    27    26    27   ar
    28    27    28   ar
    29    28    23   ar
    30     1     2   ar
    31     2     5   ar
    32     5     6   ar
    33     6     4   ar
    34     4     3   ar
    35     3     1   ar
