@<TRIPOS>MOLECULE
No_2742-gen_results/8p0m/2024-11-26-14-13-15/
 35 37 0 0 0
SMALL
GASTEIGER

@<TRIPOS>ATOM
      1 O         -28.1229   -1.3353   28.4874 O.2     1  UNL1       -0.2445
      2 C         -28.5208   -0.4363   29.0779 C.2     1  UNL1        0.3458
      3 O         -27.9150    0.0780   30.0386 O.3     1  UNL1       -0.4179
      4 C         -29.6198    0.3211   28.3438 C.ar    1  UNL1        0.0762
      5 C         -30.6134    0.3502   28.4690 C.ar    1  UNL1        0.0110
      6 C         -31.6095    1.0639   27.5837 C.ar    1  UNL1        0.0538
      7 C         -31.0272    1.8426   26.5436 C.ar    1  UNL1        0.0045
      8 C         -28.8755    1.1201   27.2178 C.ar    1  UNL1        0.0063
      9 C         -29.6607    1.8503   26.3742 C.ar    1  UNL1        0.0004
     10 C         -27.4179    1.1621   26.9720 C.ar    1  UNL1        0.0003
     11 C         -26.6598    2.2809   27.3501 C.ar    1  UNL1        0.0009
     12 C         -25.2842    2.3715   27.0771 C.ar    1  UNL1        0.0114
     13 C         -24.5681    1.2922   26.4759 C.ar    1  UNL1        0.0577
     14 C         -25.3284    0.1492   26.2440 C.ar    1  UNL1        0.0114
     15 C         -26.6687    0.0990   26.4404 C.ar    1  UNL1        0.0009
     16 CL        -22.9270    1.4213   26.2812 Cl      1  UNL1       -0.0822
     17 C         -33.0604    1.1003   27.8299 C.2     1  UNL1        0.2491
     18 N         -33.8418    0.7816   27.2175 N.am    1  UNL1       -0.2726
     19 C         -33.6985    0.3352   26.0142 C.3     1  UNL1        0.1152
     20 C         -35.1428    0.3439   27.8043 C.3     1  UNL1        0.1152
     21 O         -33.1673    1.6128   29.1411 O.2     1  UNL1       -0.2699
     22 C         -27.7630   -0.6179   31.2033 C.2     1  UNL1        0.1831
     23 C         -27.5560    0.1310   32.2246 C.2     1  UNL1        0.0408
     24 C         -26.3910    0.9132   32.2798 C.ar    1  UNL1        0.0029
     25 C         -26.2244    1.9836   33.2348 C.ar    1  UNL1        0.0001
     26 C         -25.2039    2.9771   33.0472 C.ar    1  UNL1       -0.0003
     27 C         -24.3890    2.9164   31.8295 C.ar    1  UNL1       -0.0026
     28 C         -24.5834    1.8623   30.9624 C.ar    1  UNL1       -0.0021
     29 C         -25.6023    0.9470   31.1238 C.ar    1  UNL1       -0.0025
     30 C         -23.6487    1.8349   29.8128 C.3     1  UNL1        0.1221
     31 N         -22.9752    0.6136   29.6406 N.pl3   1  UNL1       -0.2806
     32 C         -21.7711    0.5397   29.1651 C.2     1  UNL1        0.0657
     33 C         -21.2529   -0.8020   28.9728 C.2     1  UNL1        0.0174
     34 C         -23.2247   -0.5506   30.3991 C.2     1  UNL1        0.0657
     35 C         -23.1311   -1.5104   29.9721 C.2     1  UNL1        0.0174
@<TRIPOS>BOND
     1     1     2    2
     2     2     3    1
     3     2     4    1
     4     8    10    1
     5    13    16    1
     6     6    17    1
     7    17    18   am
     8    18    19    1
     9    18    20    1
    10    17    21    2
    11     3    22    1
    12    22    23    2
    13    23    24    1
    14    28    30    1
    15    30    31    1
    16    31    32    1
    17    32    33    2
    18    31    34    1
    19    34    35    2
    20     4     5   ar
    21     5     6   ar
    22     6     7   ar
    23     7     9   ar
    24     9     8   ar
    25     8     4   ar
    26    24    25   ar
    27    25    26   ar
    28    26    27   ar
    29    27    28   ar
    30    28    29   ar
    31    29    24   ar
    32    10    11   ar
    33    11    12   ar
    34    12    13   ar
    35    13    14   ar
    36    14    15   ar
    37    15    10   ar
