@<TRIPOS>MOLECULE
No_2743-gen_results/8p0m/2024-11-26-14-13-15/
 23 25 0 0 0
SMALL
GASTEIGER

@<TRIPOS>ATOM
      1 C         -28.0162   -0.8135   28.8779 C.ar    1  UNL1       -0.0039
      2 C         -28.4690   -0.7850   29.8287 C.ar    1  UNL1       -0.0003
      3 C         -27.0871    0.2903   28.6377 C.ar    1  UNL1       -0.0181
      4 C         -26.8317    1.2487   29.5869 C.ar    1  UNL1       -0.0039
      5 C         -28.3914    0.0801   31.0065 C.ar    1  UNL1       -0.0000
      6 C         -27.4940    1.1521   30.7841 C.ar    1  UNL1       -0.0003
      7 C         -26.3172    0.3994   27.3653 C.3     1  UNL1        0.0485
      8 C         -24.9405    0.2550   27.5028 C.ar    1  UNL1       -0.0181
      9 C         -26.9129    0.5860   26.1397 C.3     1  UNL1        0.0301
     10 C         -28.2688    0.7168   25.9850 C.2     1  UNL1       -0.0258
     11 C         -28.7657    0.7315   24.6860 C.2     1  UNL1       -0.0046
     12 C         -30.1595    0.8701   24.4627 C.ar    1  UNL1       -0.0003
     13 C         -30.6691    0.9816   23.4368 C.ar    1  UNL1       -0.0000
     14 C         -24.3238   -0.4786   28.5419 C.ar    1  UNL1       -0.0039
     15 C         -23.0068   -0.1917   28.9251 C.ar    1  UNL1       -0.0003
     16 C         -22.2605    0.7183   28.1344 C.ar    1  UNL1       -0.0000
     17 C         -22.8669    1.4805   27.1487 C.ar    1  UNL1       -0.0003
     18 C         -24.1955    1.3602   26.9220 C.ar    1  UNL1       -0.0039
     19 C         -26.1663    0.6216   24.9686 C.3     1  UNL1        0.0054
     20 C         -31.8963    1.5925   23.1301 C.ar    1  UNL1       -0.0000
     21 C         -32.7217    1.9745   24.2300 C.ar    1  UNL1       -0.0000
     22 C         -32.2024    1.8199   25.4628 C.ar    1  UNL1       -0.0000
     23 C         -30.9414    1.3762   25.6765 C.ar    1  UNL1       -0.0000
@<TRIPOS>BOND
     1     3     7    1
     2     7     8    1
     3     7     9    1
     4     9    10    1
     5    10    11    2
     6    11    12    1
     7     9    19    1
     8     8    14   ar
     9    14    15   ar
    10    15    16   ar
    11    16    17   ar
    12    17    18   ar
    13    18     8   ar
    14     1     2   ar
    15     2     5   ar
    16     5     6   ar
    17     6     4   ar
    18     4     3   ar
    19     3     1   ar
    20    12    13   ar
    21    13    20   ar
    22    20    21   ar
    23    21    22   ar
    24    22    23   ar
    25    23    12   ar
