@<TRIPOS>MOLECULE
No_2744-gen_results/8p0m/2024-11-26-14-13-15/
 24 26 0 0 0
SMALL
GASTEIGER

@<TRIPOS>ATOM
      1 C         -28.0162   -0.8135   28.8779 C.ar    1  UNL1        0.0045
      2 C         -28.4690   -0.7850   29.8287 C.ar    1  UNL1        0.0536
      3 C         -26.5042   -0.7777   28.8766 C.ar    1  UNL1        0.0001
      4 C         -25.8103   -0.8531   30.1028 C.ar    1  UNL1        0.0000
      5 C         -27.9906   -0.8916   31.2257 C.ar    1  UNL1        0.0045
      6 C         -26.6042   -0.8676   31.2652 C.ar    1  UNL1        0.0001
      7 C         -24.3894   -0.8050   30.1639 C.ar    1  UNL1        0.0000
      8 C         -23.7660   -0.9500   31.0679 C.ar    1  UNL1        0.0000
      9 C         -22.2665   -0.8379   31.2250 C.ar    1  UNL1        0.0000
     10 C         -21.6701   -0.5264   30.0648 C.ar    1  UNL1        0.0000
     11 C         -23.6437   -0.4434   28.9621 C.ar    1  UNL1        0.0000
     12 C         -22.3479   -0.3035   28.9177 C.ar    1  UNL1        0.0000
     13 C         -30.0924   -0.7792   29.8445 C.2     1  UNL1        0.2490
     14 O         -30.4928   -0.2971   28.8950 O.2     1  UNL1       -0.2699
     15 N         -30.7880   -1.6600   30.6548 N.am    1  UNL1       -0.2758
     16 C         -32.2026   -1.7366   30.5134 C.3     1  UNL1        0.0937
     17 C         -32.6857   -2.8200   30.7942 C.3     1  UNL1        0.0219
     18 C         -32.0089   -3.8264   31.5560 C.3     1  UNL1        0.0120
     19 C         -30.5847   -3.7398   31.6855 C.3     1  UNL1        0.1149
     20 C         -29.8935   -2.7765   30.8176 C.3     1  UNL1        0.1022
     21 C         -29.9044   -5.1500   31.7631 C.3     1  UNL1        0.3991
     22 F         -28.7135   -5.0129   31.7182 F       1  UNL1       -0.1700
     23 F         -30.2329   -5.7118   32.9206 F       1  UNL1       -0.1700
     24 F         -30.3062   -5.8879   30.7152 F       1  UNL1       -0.1700
@<TRIPOS>BOND
     1     4     7    1
     2     2    13    1
     3    13    14    2
     4    13    15   am
     5    15    16    1
     6    17    18    1
     7    15    20    1
     8    19    20    1
     9    19    21    1
    10    21    22    1
    11    21    23    1
    12    21    24    1
    13    16    17    1
    14    18    19    1
    15     7     8   ar
    16     8     9   ar
    17     9    10   ar
    18    10    12   ar
    19    12    11   ar
    20    11     7   ar
    21     1     2   ar
    22     2     5   ar
    23     5     6   ar
    24     6     4   ar
    25     4     3   ar
    26     3     1   ar
