@<TRIPOS>MOLECULE
No_2746-gen_results/8p0m/2024-11-26-14-13-15/
 26 28 0 0 0
SMALL
GASTEIGER

@<TRIPOS>ATOM
      1 C         -28.0162   -0.8135   28.8779 C.ar    1  UNL1        0.1454
      2 C         -27.0636   -0.1190   28.6079 C.ar    1  UNL1        0.0347
      3 C         -26.9716    0.7139   27.5060 C.ar    1  UNL1        0.0032
      4 C         -28.1053    0.7744   26.6421 C.ar    1  UNL1        0.0068
      5 C         -29.2008    0.1044   27.0527 C.ar    1  UNL1        0.0828
      6 C         -29.2096   -0.6029   28.1853 C.ar    1  UNL1        0.0441
      7 C         -30.3702    0.2264   26.1604 C.2     1  UNL1        0.3879
      8 O         -31.2209   -0.4630   26.3096 O.co2   1  UNL1       -0.2406
      9 O         -30.1530    0.8026   24.9574 O.co2   1  UNL1       -0.2406
     10 C         -25.6072   -0.1110   29.2587 C.ar    1  UNL1        0.0061
     11 C         -25.2574   -1.0776   30.0504 C.ar    1  UNL1        0.0003
     12 C         -23.9718   -1.1126   30.7021 C.ar    1  UNL1        0.0033
     13 C         -23.0492   -0.0861   30.4424 C.ar    1  UNL1        0.0420
     14 C         -23.4258    0.9304   29.5484 C.ar    1  UNL1        0.1957
     15 C         -24.7137    0.9369   28.9461 C.ar    1  UNL1        0.0421
     16 O         -28.0677   -1.5887   29.9919 O.3     1  UNL1       -0.4535
     17 C         -29.1420   -1.5456   30.8755 C.ar    1  UNL1        0.1453
     18 C         -30.3177   -1.7599   30.5318 C.ar    1  UNL1        0.0377
     19 C         -30.8621   -2.4718   31.2316 C.ar    1  UNL1        0.0087
     20 C         -28.8722   -1.4459   32.2413 C.ar    1  UNL1        0.0377
     21 C         -29.6127   -1.9206   33.1896 C.ar    1  UNL1        0.0087
     22 C         -30.8438   -2.4671   32.6696 C.ar    1  UNL1        0.0680
     23 C         -31.8795   -3.0151   33.5338 C.2     1  UNL1        0.3334
     24 O         -32.3560   -4.0238   33.3695 O.2     1  UNL1       -0.2541
     25 F         -32.1406   -2.3185   34.6058 F       1  UNL1       -0.1586
     26 O         -22.5260    1.8892   29.2699 O.3     1  UNL1       -0.2866
@<TRIPOS>BOND
     1     5     7    1
     2     7     8   ar
     3     7     9   ar
     4     2    10    1
     5     1    16    1
     6    16    17    1
     7    22    23    1
     8    23    24    2
     9    23    25    1
    10    14    26    1
    11     1     2   ar
    12     2     3   ar
    13     3     4   ar
    14     4     5   ar
    15     5     6   ar
    16     6     1   ar
    17    17    18   ar
    18    18    19   ar
    19    19    22   ar
    20    22    21   ar
    21    21    20   ar
    22    20    17   ar
    23    10    11   ar
    24    11    12   ar
    25    12    13   ar
    26    13    14   ar
    27    14    15   ar
    28    15    10   ar
