@<TRIPOS>MOLECULE
No_2747-gen_results/8p0m/2024-11-26-14-13-15/
 14 16 0 0 0
SMALL
GASTEIGER

@<TRIPOS>ATOM
      1 C         -28.0162   -0.8135   28.8779 C.ar    1  UNL1        0.0812
      2 C         -27.0636   -0.1189   28.6079 C.ar    1  UNL1        0.0177
      3 C         -25.7923   -0.4302   29.0761 C.ar    1  UNL1        0.0015
      4 C         -25.5756   -1.5654   29.9363 C.ar    1  UNL1        0.0001
      5 C         -26.7354   -2.3004   30.2173 C.ar    1  UNL1        0.0015
      6 C         -27.9184   -1.9537   29.7629 C.ar    1  UNL1        0.0191
      7 C         -27.1057    1.1023   27.7593 C.ar    1  UNL1        0.0030
      8 C         -27.8576    1.5309   27.2156 C.ar    1  UNL1        0.0177
      9 C         -28.0991    2.2992   26.4301 C.ar    1  UNL1        0.0015
     10 C         -29.3955    2.7159   25.7746 C.ar    1  UNL1        0.0001
     11 C         -30.4606    1.9767   26.1528 C.ar    1  UNL1        0.0015
     12 C         -30.3252    1.0123   26.9813 C.ar    1  UNL1        0.0191
     13 C         -29.1089    0.6632   27.5435 C.ar    1  UNL1        0.0812
     14 N         -29.2012   -0.4206   28.3522 N.ar    1  UNL1       -0.2454
@<TRIPOS>BOND
     1     2     3   ar
     2     3     4   ar
     3     4     5   ar
     4     5     6   ar
     5     6     1   ar
     6     8     9   ar
     7     9    10   ar
     8    10    11   ar
     9    11    12   ar
    10    12    13   ar
    11     1     2   ar
    12     2     7   ar
    13     7     8   ar
    14     8    13   ar
    15    13    14   ar
    16    14     1   ar
