@<TRIPOS>MOLECULE
No_2748-gen_results/8p0m/2024-11-26-14-13-15/
 35 37 0 0 0
SMALL
GASTEIGER

@<TRIPOS>ATOM
      1 O         -28.1229   -1.3353   28.4874 O.2     1  UNL1       -0.2684
      2 C         -27.4806   -0.4044   28.7094 C.2     1  UNL1        0.2647
      3 C         -26.3804   -0.0867   27.9394 C.ar    1  UNL1        0.0522
      4 N         -27.8993    0.6459   29.6320 N.am    1  UNL1       -0.1989
      5 C         -25.1243   -0.5319   28.3714 C.ar    1  UNL1        0.0112
      6 C         -23.9129    0.2827   28.3242 C.ar    1  UNL1        0.0842
      7 C         -23.9022    1.4022   27.4490 C.ar    1  UNL1        0.1443
      8 C         -25.1773    1.7974   26.9001 C.ar    1  UNL1        0.0265
      9 C         -26.2992    1.1814   27.1716 C.ar    1  UNL1       -0.0010
     10 C         -29.0818    0.3495   30.4116 C.3     1  UNL1        0.1178
     11 F         -22.7644    2.0119   27.3005 F       1  UNL1       -0.2040
     12 C         -22.6325   -0.2402   28.8443 C.2     1  UNL1        0.2864
     13 N         -22.6302   -1.2797   29.6605 N.am    1  UNL1       -0.0836
     14 O         -21.5306    0.3595   28.5854 O.2     1  UNL1       -0.2666
     15 C         -27.5270    1.6922   26.6249 C.3     1  UNL1        0.1480
     16 C         -27.9008    2.9327   27.0286 C.ar    1  UNL1       -0.0077
     17 C         -27.2891    3.6330   28.0146 C.ar    1  UNL1       -0.0034
     18 C         -27.6417    4.9732   28.3994 C.ar    1  UNL1       -0.0003
     19 C         -28.6132    5.5504   27.6052 C.ar    1  UNL1       -0.0000
     20 C         -29.2598    4.9344   26.5403 C.ar    1  UNL1       -0.0003
     21 C         -28.8588    3.6568   26.2438 C.ar    1  UNL1       -0.0034
     22 C         -28.3209    0.8707   25.8403 C.2     1  UNL1        0.3724
     23 C         -29.8783    1.4601   30.5347 C.ar    1  UNL1       -0.0024
     24 C         -30.9204    1.3773   31.2325 C.ar    1  UNL1        0.0029
     25 C         -31.8574    2.4927   31.3880 C.ar    1  UNL1        0.0675
     26 C         -33.0225    2.4607   32.1205 C.2     1  UNL1        0.3334
     27 C         -31.2516    3.8259   31.1433 C.ar    1  UNL1        0.0055
     28 C         -30.0980    3.9362   30.3461 C.ar    1  UNL1       -0.0001
     29 C         -29.3169    2.7550   30.1591 C.ar    1  UNL1       -0.0026
     30 O         -33.3191    3.0176   33.0652 O.2     1  UNL1       -0.2541
     31 F         -33.8488    1.8263   31.3652 F       1  UNL1       -0.1586
     32 O         -29.2882    0.2532   25.9428 O.co2   1  UNL1       -0.2449
     33 O         -27.7718    0.6753   24.5005 O.co2   1  UNL1       -0.2449
     34 C         -28.5127   -0.1944   31.7101 C.3     1  UNL1        0.0262
     35 C         -27.3650    0.2170   32.1899 C.3     1  UNL1        0.0022
@<TRIPOS>BOND
     1     1     2    2
     2     2     3    1
     3     2     4   am
     4     4    10    1
     5     7    11    1
     6     6    12    1
     7    12    13   am
     8    12    14    2
     9     9    15    1
    10    15    22    1
    11    10    23    1
    12    25    26    1
    13    26    30    2
    14    26    31    1
    15    22    32   ar
    16    22    33   ar
    17    10    34    1
    18    34    35    1
    19    15    16    1
    20    23    24   ar
    21    24    25   ar
    22    25    27   ar
    23    27    28   ar
    24    28    29   ar
    25    29    23   ar
    26     3     5   ar
    27     5     6   ar
    28     6     7   ar
    29     7     8   ar
    30     8     9   ar
    31     9     3   ar
    32    16    17   ar
    33    17    18   ar
    34    18    19   ar
    35    19    20   ar
    36    20    21   ar
    37    21    16   ar
