@<TRIPOS>MOLECULE
No_2750-gen_results/8p0m/2024-11-26-14-13-15/
 13 14 0 0 0
SMALL
GASTEIGER

@<TRIPOS>ATOM
      1 N         -28.0544   -1.0498   28.7246 N.ar    1  UNL1       -0.2438
      2 C         -28.6544   -0.5669   29.5076 C.ar    1  UNL1        0.0813
      3 C         -28.1376    0.1595   30.5233 C.ar    1  UNL1        0.0177
      4 C         -28.8755    0.8806   31.5991 C.ar    1  UNL1        0.0015
      5 C         -26.7171    0.3580   30.3081 C.ar    1  UNL1        0.0030
      6 C         -25.9874   -0.1956   29.4028 C.ar    1  UNL1        0.0189
      7 C         -26.6793   -0.9798   28.5276 C.ar    1  UNL1        0.0988
      8 C         -29.9927    1.0791   31.6095 C.ar    1  UNL1        0.0001
      9 C         -30.8457    0.7664   30.4682 C.ar    1  UNL1        0.0015
     10 C         -30.1833   -0.1963   29.5513 C.ar    1  UNL1        0.0191
     11 C         -24.5032   -0.1474   29.3358 C.2     1  UNL1       -0.0030
     12 C         -23.7160   -0.9611   29.9383 C.2     1  UNL1       -0.0257
     13 C         -22.2363   -0.8245   29.8348 C.3     1  UNL1        0.0307
@<TRIPOS>BOND
     1     6    11    1
     2    11    12    2
     3    12    13    1
     4     3     4   ar
     5     4     8   ar
     6     8     9   ar
     7     9    10   ar
     8    10     2   ar
     9     1     2   ar
    10     2     3   ar
    11     3     5   ar
    12     5     6   ar
    13     6     7   ar
    14     7     1   ar
