@<TRIPOS>MOLECULE
No_2751-gen_results/8p0m/2024-11-26-14-13-15/
 15 16 0 0 0
SMALL
GASTEIGER

@<TRIPOS>ATOM
      1 C         -28.0162   -0.8135   28.8779 C.ar    1  UNL1        0.0046
      2 C         -28.4690   -0.7850   29.8287 C.ar    1  UNL1        0.0001
      3 C         -28.1816    0.4277   28.1134 C.ar    1  UNL1        0.0554
      4 C         -28.9841    1.4155   28.5154 C.ar    1  UNL1        0.0046
      5 C         -29.3802    0.1384   30.4612 C.ar    1  UNL1        0.0000
      6 C         -29.5415    1.2736   29.7242 C.ar    1  UNL1        0.0001
      7 C         -27.4452    0.4872   26.7726 C.2     1  UNL1        0.2690
      8 N         -26.1083    0.3438   26.7497 N.am    1  UNL1       -0.1754
      9 C         -25.2371    1.1895   27.3583 C.ar    1  UNL1        0.0737
     10 C         -23.8753    0.7849   27.5747 C.ar    1  UNL1        0.0166
     11 C         -22.8367    1.6907   27.4686 C.ar    1  UNL1        0.0013
     12 C         -25.5478    2.5301   27.5621 C.ar    1  UNL1        0.0166
     13 C         -24.5356    3.5074   27.7773 C.ar    1  UNL1        0.0013
     14 C         -23.1797    3.1076   27.7045 C.ar    1  UNL1        0.0001
     15 O         -27.9450    1.1103   25.8586 O.2     1  UNL1       -0.2680
@<TRIPOS>BOND
     1     3     7    1
     2     7     8   am
     3     8     9    1
     4     7    15    2
     5     9    10   ar
     6    10    11   ar
     7    11    14   ar
     8    14    13   ar
     9    13    12   ar
    10    12     9   ar
    11     1     2   ar
    12     2     5   ar
    13     5     6   ar
    14     6     4   ar
    15     4     3   ar
    16     3     1   ar
