@<TRIPOS>MOLECULE
No_2753-gen_results/8p0m/2024-11-26-14-13-15/
 13 14 0 0 0
SMALL
GASTEIGER

@<TRIPOS>ATOM
      1 C         -28.0162   -0.8135   28.8779 C.ar    1  UNL1        0.0813
      2 C         -27.0636   -0.1190   28.6079 C.ar    1  UNL1        0.0177
      3 C         -27.0010    0.6913   27.4910 C.ar    1  UNL1        0.0024
      4 C         -25.8548    1.4825   27.0830 C.ar    1  UNL1        0.0114
      5 C         -24.6901    1.4526   27.8807 C.ar    1  UNL1        0.0577
      6 C         -24.7379    0.6010   29.0416 C.ar    1  UNL1        0.0114
      7 C         -25.8234   -0.1688   29.3887 C.ar    1  UNL1        0.0024
      8 N         -27.9524   -1.6294   30.0643 N.ar    1  UNL1       -0.2438
      9 C         -29.0363   -2.3695   30.4865 C.ar    1  UNL1        0.0988
     10 C         -30.1919   -1.9598   29.9681 C.ar    1  UNL1        0.0207
     11 C         -30.3399   -1.0071   29.0541 C.ar    1  UNL1        0.0031
     12 C         -29.2574   -0.3633   28.6021 C.ar    1  UNL1        0.0191
     13 CL        -23.3220    2.3511   27.5072 Cl      1  UNL1       -0.0822
@<TRIPOS>BOND
     1     1     2    1
     2     5    13    1
     3     2     3   ar
     4     3     4   ar
     5     4     5   ar
     6     5     6   ar
     7     6     7   ar
     8     7     2   ar
     9     1     8   ar
    10     8     9   ar
    11     9    10   ar
    12    10    11   ar
    13    11    12   ar
    14    12     1   ar
