@<TRIPOS>MOLECULE
No_2754-gen_results/8p0m/2024-11-26-14-13-15/
 15 16 0 0 0
SMALL
GASTEIGER

@<TRIPOS>ATOM
      1 C         -28.0162   -0.8135   28.8779 C.ar    1  UNL1       -0.0039
      2 C         -28.4690   -0.7850   29.8287 C.ar    1  UNL1       -0.0003
      3 C         -26.5455   -0.8762   28.8500 C.ar    1  UNL1       -0.0181
      4 C         -25.6825   -0.7773   27.6829 C.3     1  UNL1        0.0480
      5 C         -27.9181   -1.0034   31.1877 C.ar    1  UNL1       -0.0000
      6 C         -26.5308   -1.0794   31.2463 C.ar    1  UNL1       -0.0003
      7 C         -25.7798   -1.0462   30.0905 C.ar    1  UNL1       -0.0039
      8 C         -25.8976    0.2387   26.7449 C.2     1  UNL1       -0.0437
      9 C         -25.6318    1.4984   27.0379 C.2     1  UNL1       -0.0322
     10 C         -24.8915    1.8300   28.2575 C.3     1  UNL1        0.0516
     11 C         -23.7185    1.2879   28.5049 C.3     1  UNL1        0.0529
     12 C         -23.0831    1.5332   29.7328 C.2     1  UNL1        0.0671
     13 N         -23.7940    2.2277   30.6248 N.2     1  UNL1       -0.2732
     14 C         -25.3311    2.5325   29.5078 C.3     1  UNL1        0.1298
     15 C         -26.3753   -0.0934   25.4466 C.3     1  UNL1        0.0264
@<TRIPOS>BOND
     1     3     4    1
     2     4     8    1
     3     8     9    2
     4     9    10    1
     5    10    11    1
     6    11    12    1
     7    12    13    2
     8    10    14    1
     9    13    14    1
    10     8    15    1
    11     1     2   ar
    12     2     5   ar
    13     5     6   ar
    14     6     7   ar
    15     7     3   ar
    16     3     1   ar
