@<TRIPOS>MOLECULE
No_2756-gen_results/8p0m/2024-11-26-14-13-15/
 30 32 0 0 0
SMALL
GASTEIGER

@<TRIPOS>ATOM
      1 C         -28.0162   -0.8135   28.8779 C.ar    1  UNL1        0.0369
      2 C         -27.0636   -0.1189   28.6079 C.ar    1  UNL1        0.0031
      3 C         -25.7923   -0.4302   29.0761 C.ar    1  UNL1        0.0002
      4 C         -25.5756   -1.5654   29.9363 C.ar    1  UNL1        0.0031
      5 C         -26.7354   -2.3004   30.2173 C.ar    1  UNL1        0.0369
      6 C         -27.9184   -1.9537   29.7629 C.ar    1  UNL1        0.1385
      7 O         -29.0001   -2.7012   30.1151 O.3     1  UNL1       -0.4763
      8 C         -24.5290    0.3490   28.7998 C.ar    1  UNL1        0.0000
      9 C         -24.4808    1.2113   27.7998 C.ar    1  UNL1        0.0000
     10 C         -23.2478    1.8974   27.4951 C.ar    1  UNL1        0.0000
     11 C         -22.0497    1.5890   28.1642 C.ar    1  UNL1        0.0000
     12 C         -23.3072    0.0149   29.4618 C.ar    1  UNL1        0.0000
     13 C         -22.0852    0.6899   29.1374 C.ar    1  UNL1        0.0000
     14 C         -30.1270   -2.1323   30.5815 C.3     1  UNL1        0.2018
     15 C         -30.5782   -2.8385   31.6842 C.3     1  UNL1        0.2501
     16 C         -29.7872   -3.6767   32.3628 C.3     1  UNL1        0.4257
     17 O         -31.1488   -1.9053   32.6790 O.3     1  UNL1       -0.3447
     18 F         -30.4427   -4.6409   33.1113 F       1  UNL1       -0.1673
     19 F         -29.0252   -4.5142   31.5271 F       1  UNL1       -0.1673
     20 F         -28.9021   -3.1554   33.2624 F       1  UNL1       -0.1673
     21 C         -29.8954   -0.7307   30.8611 C.3     1  UNL1        0.0532
     22 C         -31.0900   -0.1802   31.2843 C.3     1  UNL1        0.0533
     23 C         -31.4929   -0.6896   32.6174 C.3     1  UNL1        0.1468
     24 C         -32.2071   -0.3154   30.3048 C.3     1  UNL1        0.0340
     25 C         -32.0124    0.4899   29.2052 C.2     1  UNL1       -0.0063
     26 C         -32.9704    0.9388   28.5857 C.2     1  UNL1        0.1012
     27 C         -30.8837    1.4015   31.5585 C.2     1  UNL1       -0.0284
     28 N         -34.0791    0.7225   28.7073 N.pl3   1  UNL1       -0.1270
     29 C         -30.6519    1.8243   32.7813 C.2     1  UNL1       -0.0303
     30 C         -30.3454    3.1628   33.0292 C.3     1  UNL1        0.0303
@<TRIPOS>BOND
     1     6     7    1
     2     3     8    1
     3     7    14    1
     4    14    15    1
     5    15    16    1
     6    15    17    1
     7    16    18    1
     8    16    19    1
     9    16    20    1
    10    14    21    1
    11    21    22    1
    12    17    23    1
    13    22    23    1
    14    22    24    1
    15    24    25    1
    16    25    26    2
    17    22    27    1
    18    26    28    1
    19    27    29    2
    20    29    30    1
    21     1     2   ar
    22     2     3   ar
    23     3     4   ar
    24     4     5   ar
    25     5     6   ar
    26     6     1   ar
    27     8     9   ar
    28     9    10   ar
    29    10    11   ar
    30    11    13   ar
    31    13    12   ar
    32    12     8   ar
