@<TRIPOS>MOLECULE
No_2757-gen_results/8p0m/2024-11-26-14-13-15/
 11 12 0 0 0
SMALL
GASTEIGER

@<TRIPOS>ATOM
      1 C         -28.0162   -0.8135   28.8779 C.ar    1  UNL1        0.0077
      2 C         -28.4690   -0.7850   29.8287 C.ar    1  UNL1        0.0003
      3 C         -28.1960    0.3478   28.0550 C.ar    1  UNL1        0.0880
      4 C         -29.0191    1.3501   28.3782 C.ar    1  UNL1        0.0077
      5 C         -29.4107    0.1803   30.3782 C.ar    1  UNL1        0.0000
      6 C         -29.6059    1.2495   29.6193 C.ar    1  UNL1        0.0003
      7 C         -27.4478    0.3799   26.7122 C.2     1  UNL1        0.3708
      8 N         -27.8661    0.6718   25.7147 N.2     1  UNL1       -0.0505
      9 N         -26.0558    0.0721   26.7437 N.2     1  UNL1       -0.0309
     10 C         -25.6737    0.2972   25.4244 C.2     1  UNL1        0.2673
     11 C         -26.8120    0.5982   24.7426 C.3     1  UNL1        0.3395
@<TRIPOS>BOND
     1     3     7    1
     2     7     8    2
     3     7     9    1
     4     9    10    2
     5     8    11    1
     6    10    11    1
     7     1     2   ar
     8     2     5   ar
     9     5     6   ar
    10     6     4   ar
    11     4     3   ar
    12     3     1   ar
