@<TRIPOS>MOLECULE
No_2758-gen_results/8p0m/2024-11-26-14-13-15/
 24 25 0 0 0
SMALL
GASTEIGER

@<TRIPOS>ATOM
      1 O         -28.1229   -1.3353   28.4874 O.2     1  UNL1       -0.2725
      2 C         -27.0637   -0.8242   28.8687 C.2     1  UNL1        0.2521
      3 C         -26.9592    0.0926   29.7582 C.3     1  UNL1        0.1582
      4 N         -25.8472   -1.5491   28.6589 N.am    1  UNL1       -0.2038
      5 C         -25.7222    0.7178   30.1925 C.2     1  UNL1        0.1752
      6 C         -24.5649   -1.0740   29.0510 C.3     1  UNL1        0.1339
      7 C         -24.5288    0.0511   29.8479 C.3     1  UNL1        0.1828
      8 C         -28.1893    0.8778   30.1322 C.ar    1  UNL1       -0.0067
      9 C         -28.9221    0.3352   31.0808 C.ar    1  UNL1        0.0032
     10 C         -30.1628    0.9705   31.5430 C.ar    1  UNL1        0.0794
     11 C         -30.4997    2.1778   30.9182 C.ar    1  UNL1        0.0104
     12 C         -29.6773    2.6767   29.9220 C.ar    1  UNL1        0.0713
     13 C         -28.4648    2.0718   29.5489 C.ar    1  UNL1        0.0005
     14 C         -23.2004    0.5435   30.2814 C.2     1  UNL1        0.3731
     15 O         -23.1320    1.5681   30.8527 O.co2   1  UNL1       -0.2451
     16 O         -22.1675   -0.2555   30.2708 O.co2   1  UNL1       -0.2451
     17 C         -30.0036    3.9915   29.2765 C.3     1  UNL1        0.4186
     18 F         -29.8984    4.0279   28.2071 F       1  UNL1       -0.1659
     19 F         -31.3282    4.2844   29.6148 F       1  UNL1       -0.1659
     20 F         -29.2681    4.9589   29.9191 F       1  UNL1       -0.1659
     21 C         -30.9812    0.3444   32.5541 C.2     1  UNL1        0.3877
     22 O         -30.9377    0.5982   33.6584 O.co2   1  UNL1       -0.2406
     23 O         -31.7511   -0.5923   32.0195 O.co2   1  UNL1       -0.2406
     24 O         -25.6833    1.7935   30.9753 O.2     1  UNL1       -0.2946
@<TRIPOS>BOND
     1     1     2    2
     2     2     3    1
     3     2     4   am
     4     3     5    1
     5     5     7    1
     6     6     7    1
     7     3     8    1
     8     7    14    1
     9    14    15   ar
    10    14    16   ar
    11    12    17    1
    12    17    18    1
    13    17    19    1
    14    17    20    1
    15    10    21    1
    16    21    22   ar
    17    21    23   ar
    18     5    24    2
    19     6     4    1
    20     8     9   ar
    21     9    10   ar
    22    10    11   ar
    23    11    12   ar
    24    12    13   ar
    25    13     8   ar
