@<TRIPOS>MOLECULE
No_276-gen_results/8p0m/2024-11-26-14-13-15/
 10 11 0 0 0
SMALL
GASTEIGER

@<TRIPOS>ATOM
      1 C         -28.0162   -0.8135   28.8779 C.ar    1  UNL1        0.0000
      2 C         -28.4690   -0.7850   29.8287 C.ar    1  UNL1        0.0000
      3 C         -27.0871    0.2903   28.6377 C.ar    1  UNL1        0.0000
      4 C         -26.8317    1.2487   29.5869 C.ar    1  UNL1        0.0000
      5 C         -28.3914    0.0801   31.0065 C.ar    1  UNL1        0.0000
      6 C         -27.4940    1.1521   30.7841 C.ar    1  UNL1        0.0000
      7 C         -26.3172    0.3994   27.3653 C.ar    1  UNL1        0.0000
      8 C         -25.4320    1.4867   27.2802 C.ar    1  UNL1        0.0000
      9 C         -25.2643    2.4427   28.2693 C.ar    1  UNL1        0.0000
     10 C         -25.9406    2.3223   29.4480 C.ar    1  UNL1        0.0000
@<TRIPOS>BOND
     1     4    10   ar
     2    10     9   ar
     3     9     8   ar
     4     8     7   ar
     5     7     3   ar
     6     1     2   ar
     7     2     5   ar
     8     5     6   ar
     9     6     4   ar
    10     4     3   ar
    11     3     1   ar
