@<TRIPOS>MOLECULE
No_2760-gen_results/8p0m/2024-11-26-14-13-15/
 16 17 0 0 0
SMALL
GASTEIGER

@<TRIPOS>ATOM
      1 C         -28.0162   -0.8135   28.8779 C.ar    1  UNL1        0.0000
      2 C         -27.0636   -0.1189   28.6079 C.ar    1  UNL1        0.0000
      3 C         -25.7923   -0.4302   29.0761 C.ar    1  UNL1        0.0000
      4 C         -25.5756   -1.5654   29.9363 C.ar    1  UNL1        0.0000
      5 C         -26.7354   -2.3004   30.2173 C.ar    1  UNL1        0.0000
      6 C         -27.9184   -1.9537   29.7629 C.ar    1  UNL1        0.0000
      7 C         -27.1057    1.1023   27.7593 C.ar    1  UNL1        0.0000
      8 C         -26.1219    1.4820   27.0232 C.ar    1  UNL1        0.0001
      9 C         -24.7142    1.1299   27.4889 C.ar    1  UNL1        0.0042
     10 C         -24.5718    0.0966   28.4066 C.ar    1  UNL1        0.0001
     11 C         -23.5476    1.7679   26.9015 C.2     1  UNL1        0.0524
     12 C         -22.7506    2.7015   27.3776 C.2     1  UNL1       -0.0212
     13 C         -23.5303    1.6700   25.3982 C.2     1  UNL1        0.2839
     14 N         -22.4386    2.3437   24.8976 N.am    1  UNL1       -0.0837
     15 C         -22.8651    2.6476   28.8982 C.3     1  UNL1        0.0308
     16 O         -24.3848    1.1078   24.7535 O.2     1  UNL1       -0.2667
@<TRIPOS>BOND
     1     9    11    1
     2    11    12    2
     3    11    13    1
     4    13    14   am
     5    12    15    1
     6    13    16    2
     7     1     2   ar
     8     3     4   ar
     9     4     5   ar
    10     5     6   ar
    11     6     1   ar
    12     2     3   ar
    13     3    10   ar
    14    10     9   ar
    15     9     8   ar
    16     8     7   ar
    17     7     2   ar
