@<TRIPOS>MOLECULE
No_2762-gen_results/8p0m/2024-11-26-14-13-15/
 21 21 0 0 0
SMALL
GASTEIGER

@<TRIPOS>ATOM
      1 C         -28.0162   -0.8135   28.8779 C.ar    1  UNL1        0.0104
      2 C         -28.4690   -0.7850   29.8287 C.ar    1  UNL1        0.0795
      3 C         -27.0871    0.2903   28.6377 C.ar    1  UNL1        0.0714
      4 C         -26.8317    1.2487   29.5869 C.ar    1  UNL1        0.0013
      5 C         -28.3914    0.0801   31.0065 C.ar    1  UNL1        0.0040
      6 C         -27.4940    1.1521   30.7841 C.ar    1  UNL1       -0.0005
      7 C         -26.3109    0.3918   27.3640 C.3     1  UNL1        0.4186
      8 F         -26.8602    0.4028   26.3801 F       1  UNL1       -0.1659
      9 F         -25.5436    1.6041   27.3823 F       1  UNL1       -0.1659
     10 F         -25.2379   -0.5488   27.4310 F       1  UNL1       -0.1659
     11 C         -29.4584   -2.0281   30.2335 C.2     1  UNL1        0.3877
     12 O         -30.5237   -1.8823   29.8670 O.co2   1  UNL1       -0.2406
     13 O         -29.0017   -3.0709   30.8831 O.co2   1  UNL1       -0.2406
     14 C         -27.2759    2.1747   31.8409 C.3     1  UNL1        0.1386
     15 N         -27.5950    3.2105   31.8314 N.pl3   1  UNL1       -0.2315
     16 C         -28.2101    3.9425   31.2305 C.2     1  UNL1        0.0805
     17 C         -28.9841    3.4526   30.2626 C.2     1  UNL1        0.0174
     18 C         -29.8253    4.3844   29.4422 C.2     1  UNL1        0.0014
     19 C         -30.6562    3.8342   28.4969 C.2     1  UNL1        0.0000
     20 C         -30.6497    2.4597   28.2451 C.2     1  UNL1        0.0000
     21 C         -29.8953    1.6280   29.0928 C.2     1  UNL1        0.0000
@<TRIPOS>BOND
     1     3     7    1
     2     7     8    1
     3     7     9    1
     4     7    10    1
     5     2    11    1
     6    11    12   ar
     7    11    13   ar
     8     6    14    1
     9    14    15    1
    10    15    16    1
    11    16    17    2
    12    17    18    1
    13    18    19    2
    14    19    20    1
    15    20    21    2
    16     1     2   ar
    17     2     5   ar
    18     5     6   ar
    19     6     4   ar
    20     4     3   ar
    21     3     1   ar
