@<TRIPOS>MOLECULE
No_2763-gen_results/8p0m/2024-11-26-14-13-15/
 35 37 0 0 0
SMALL
GASTEIGER

@<TRIPOS>ATOM
      1 O         -28.1229   -1.3353   28.4874 O.2     1  UNL1       -0.2649
      2 C         -28.5208   -0.4363   29.0779 C.2     1  UNL1        0.3044
      3 C         -29.6977    0.0507   28.9764 C.2     1  UNL1        0.3187
      4 N         -27.4735    0.3426   29.7907 N.am    1  UNL1       -0.2723
      5 C         -27.8125    1.4527   30.5890 C.3     1  UNL1        0.0939
      6 O         -30.1980    1.0295   29.7260 O.2     1  UNL1       -0.2634
      7 N         -30.5906   -0.6538   28.2211 N.am    1  UNL1       -0.1954
      8 C         -27.1064    2.1168   30.8995 C.3     1  UNL1        0.0216
      9 C         -25.5736    1.9404   30.7611 C.3     1  UNL1        0.0035
     10 C         -25.2182    0.7870   30.0179 C.3     1  UNL1        0.0199
     11 C         -26.1655    0.0279   29.5512 C.3     1  UNL1        0.0938
     12 C         -31.9755   -0.3645   27.9374 C.3     1  UNL1        0.1469
     13 C         -32.5386   -1.2654   27.1310 C.3     1  UNL1        0.1990
     14 C         -32.3140   -2.5248   27.3371 C.2     1  UNL1        0.3842
     15 O         -32.6535   -3.3472   26.3885 O.co2   1  UNL1       -0.2438
     16 O         -31.4894   -3.0870   28.1504 O.co2   1  UNL1       -0.2438
     17 N         -32.4627   -0.8915   25.6909 N.pl3   1  UNL1       -0.2943
     18 C         -31.5345    0.1271   25.4562 C.ar    1  UNL1        0.0827
     19 C         -33.7227   -0.4085   25.0251 C.3     1  UNL1        0.1128
     20 C         -23.7606    0.5844   29.8828 C.3     1  UNL1        0.0017
     21 C         -23.2572    0.0367   28.6878 C.3     1  UNL1        0.0001
     22 C         -21.8365   -0.1338   28.6779 C.3     1  UNL1        0.0000
     23 C         -24.0824   -0.2582   27.6892 C.3     1  UNL1        0.0000
     24 C         -31.2036    0.2742   23.9704 C.ar    1  UNL1        0.0176
     25 C         -29.9926    0.9838   23.7281 C.ar    1  UNL1        0.0015
     26 C         -29.0820    1.3537   24.7443 C.ar    1  UNL1        0.0032
     27 C         -29.4409    1.0248   26.1174 C.ar    1  UNL1        0.0382
     28 C         -30.5210    0.4373   26.3337 C.ar    1  UNL1        0.1517
     29 O         -31.0516    1.5159   27.0753 O.3     1  UNL1       -0.4735
     30 C         -30.9236    2.8682   26.4651 C.3     1  UNL1        0.2140
     31 C         -30.1295    3.7347   26.6749 C.3     1  UNL1        0.0876
     32 C         -29.3868    3.7311   27.9674 C.2     1  UNL1       -0.0184
     33 C         -28.7669    4.8450   28.3328 C.2     1  UNL1       -0.0045
     34 C         -29.5567    4.6577   26.1318 C.2     1  UNL1       -0.0184
     35 C         -28.6617    5.5184   27.0137 C.2     1  UNL1       -0.0045
@<TRIPOS>BOND
     1     1     2    2
     2     2     3    1
     3     2     4   am
     4     4     5    1
     5     3     6    2
     6     3     7   am
     7     8     9    1
     8     4    11    1
     9    10    11    1
    10     7    12    1
    11    12    13    1
    12    13    14    1
    13    14    15   ar
    14    14    16   ar
    15    13    17    1
    16    17    18    1
    17    17    19    1
    18    10    20    1
    19    20    21    1
    20    21    22    1
    21    21    23    1
    22    28    29    1
    23    29    30    1
    24    30    31    1
    25    31    32    1
    26    32    33    2
    27    31    34    1
    28    33    35    1
    29    34    35    2
    30     5     8    1
    31     9    10    1
    32    18    24   ar
    33    24    25   ar
    34    25    26   ar
    35    26    27   ar
    36    27    28   ar
    37    28    18   ar
