@<TRIPOS>MOLECULE
No_2764-gen_results/8p0m/2024-11-26-14-13-15/
 35 39 0 0 0
SMALL
GASTEIGER

@<TRIPOS>ATOM
      1 C         -28.0162   -0.8135   28.8779 C.ar    1  UNL1        0.0061
      2 C         -27.0636   -0.1189   28.6079 C.ar    1  UNL1       -0.0041
      3 C         -25.7647   -0.3897   29.0360 C.ar    1  UNL1       -0.0221
      4 C         -24.5516    0.4058   28.7646 C.3     1  UNL1        0.0297
      5 C         -23.2300    0.1178   29.2575 C.3     1  UNL1        0.0052
      6 C         -22.1393    0.9427   28.9224 C.3     1  UNL1        0.0081
      7 C         -27.8294   -1.9287   29.8545 C.ar    1  UNL1        0.0756
      8 C         -26.5882   -2.3272   30.2682 C.ar    1  UNL1        0.0061
      9 C         -25.4565   -1.5432   29.9146 C.ar    1  UNL1       -0.0041
     10 C         -22.2302    1.9089   27.8723 C.3     1  UNL1        0.0645
     11 C         -24.5538    1.4700   27.7617 C.3     1  UNL1        0.0688
     12 C         -23.4471    2.1666   27.3764 C.2     1  UNL1        0.1510
     13 C         -28.9842   -2.7701   30.2567 C.2     1  UNL1        0.3418
     14 O         -28.8938   -3.9813   30.2708 O.2     1  UNL1       -0.2449
     15 O         -30.0521   -2.2192   30.6347 O.3     1  UNL1       -0.4384
     16 O         -23.6069    3.0980   26.4080 O.2     1  UNL1       -0.2960
     17 C         -30.3039   -1.1675   30.9642 C.3     1  UNL1        0.2311
     18 C         -29.9893   -0.7782   32.2470 C.ar    1  UNL1        0.0231
     19 C         -30.3561   -1.3812   33.2981 C.ar    1  UNL1       -0.0004
     20 C         -29.9290   -1.0830   34.6580 C.ar    1  UNL1       -0.0002
     21 C         -29.0297   -0.6139   34.8265 C.ar    1  UNL1       -0.0000
     22 C         -28.7555    0.0711   32.4581 C.ar    1  UNL1       -0.0004
     23 C         -28.3036    0.2546   33.8093 C.ar    1  UNL1       -0.0002
     24 C         -31.0813   -0.1445   30.2741 C.ar    1  UNL1        0.1030
     25 N         -31.0598    1.0970   30.4979 N.ar    1  UNL1       -0.2443
     26 C         -31.5638    2.0931   29.7865 C.ar    1  UNL1        0.0985
     27 C         -31.8873   -0.5772   29.2050 C.ar    1  UNL1        0.0187
     28 C         -32.4496    0.3669   28.3266 C.ar    1  UNL1        0.0029
     29 C         -32.3423    1.7353   28.7116 C.ar    1  UNL1        0.0192
     30 C         -32.7412    2.8117   27.8638 C.ar    1  UNL1        0.0015
     31 C         -33.1656    2.5645   26.7136 C.ar    1  UNL1        0.0000
     32 C         -33.7063    3.6067   25.8798 C.ar    1  UNL1        0.0000
     33 C         -33.6829    4.9706   26.3578 C.ar    1  UNL1        0.0000
     34 C         -33.1698    5.1966   27.6013 C.ar    1  UNL1        0.0000
     35 C         -32.7240    4.1853   28.3589 C.ar    1  UNL1        0.0000
@<TRIPOS>BOND
     1     3     4    1
     2     4     5    1
     3     6    10    1
     4     4    11    1
     5    10    12    1
     6    11    12    1
     7     7    13    1
     8    13    14    2
     9    13    15    1
    10    12    16    2
    11    15    17    1
    12    17    18    1
    13    17    24    1
    14    29    30    1
    15     6     5    1
    16     1     2   ar
    17     2     3   ar
    18     3     9   ar
    19     9     8   ar
    20     8     7   ar
    21     7     1   ar
    22    24    25   ar
    23    25    26   ar
    24    26    29   ar
    25    29    28   ar
    26    28    27   ar
    27    27    24   ar
    28    30    31   ar
    29    31    32   ar
    30    32    33   ar
    31    33    34   ar
    32    34    35   ar
    33    35    30   ar
    34    18    19   ar
    35    19    20   ar
    36    20    21   ar
    37    21    23   ar
    38    23    22   ar
    39    22    18   ar
