@<TRIPOS>MOLECULE
No_2765-gen_results/8p0m/2024-11-26-14-13-15/
 8 8 0 0 0
SMALL
GASTEIGER

@<TRIPOS>ATOM
      1 C         -28.0162   -0.8135   28.8779 C.ar    1  UNL1        0.0319
      2 C         -28.4690   -0.7850   29.8287 C.ar    1  UNL1        0.0319
      3 C         -27.1356    0.2359   28.5352 C.ar    1  UNL1        0.1403
      4 C         -26.8745    1.2825   29.3982 C.ar    1  UNL1        0.0319
      5 C         -28.3613    0.1987   30.9244 C.ar    1  UNL1        0.1403
      6 C         -27.5277    1.2234   30.6356 C.ar    1  UNL1        0.0319
      7 F         -26.4877    0.2566   27.3533 F       1  UNL1       -0.2042
      8 F         -28.9986    0.0924   32.0869 F       1  UNL1       -0.2042
@<TRIPOS>BOND
     1     3     7    1
     2     5     8    1
     3     1     2   ar
     4     2     5   ar
     5     5     6   ar
     6     6     4   ar
     7     4     3   ar
     8     3     1   ar
