@<TRIPOS>MOLECULE
No_2767-gen_results/8p0m/2024-11-26-14-13-15/
 9 9 0 0 0
SMALL
GASTEIGER

@<TRIPOS>ATOM
      1 N         -28.0544   -1.0498   28.7246 N.ar    1  UNL1       -0.2251
      2 C         -26.9659   -0.4722   28.7709 C.ar    1  UNL1        0.1620
      3 C         -25.9289   -1.0196   29.5059 C.ar    1  UNL1        0.0388
      4 C         -26.1023   -2.2905   30.2023 C.ar    1  UNL1        0.0047
      5 C         -27.3441   -2.8033   30.0964 C.ar    1  UNL1        0.0208
      6 C         -28.3049   -2.1942   29.4440 C.ar    1  UNL1        0.1006
      7 N         -26.7027    0.7253   28.1516 N.2     1  UNL1       -0.2297
      8 C         -25.4738    1.2572   28.0075 C.2     1  UNL1        0.0745
      9 C         -24.4203    0.7250   28.8433 C.3     1  UNL1        0.0534
@<TRIPOS>BOND
     1     2     7    1
     2     7     8    2
     3     8     9    1
     4     1     2   ar
     5     2     3   ar
     6     3     4   ar
     7     4     5   ar
     8     5     6   ar
     9     6     1   ar
