@<TRIPOS>MOLECULE
No_2768-gen_results/8p0m/2024-11-26-14-13-15/
 25 26 0 0 0
SMALL
GASTEIGER

@<TRIPOS>ATOM
      1 C         -28.0162   -0.8135   28.8779 C.3     1  UNL1        0.1327
      2 C         -27.0636   -0.1190   28.6079 C.ar    1  UNL1        0.0217
      3 C         -26.9287    1.1713   29.0083 C.ar    1  UNL1        0.1518
      4 C         -25.7702    2.0341   28.6884 C.ar    1  UNL1        0.0930
      5 C         -24.7141    1.4431   27.9188 C.ar    1  UNL1        0.0571
      6 C         -24.8590    0.0783   27.5836 C.ar    1  UNL1        0.0019
      7 C         -25.9647   -0.6606   27.9164 C.ar    1  UNL1       -0.0011
      8 C         -28.0410   -1.4978   30.2732 C.3     1  UNL1        0.4018
      9 F         -28.2622   -0.9656   31.1067 F       1  UNL1       -0.1697
     10 F         -26.7379   -2.0490   30.3580 F       1  UNL1       -0.1697
     11 F         -28.7980   -2.6818   30.1742 F       1  UNL1       -0.1697
     12 C         -23.5236    2.1583   27.5738 C.3     1  UNL1        0.3419
     13 F         -23.4612    2.9897   26.8513 F       1  UNL1       -0.1932
     14 F         -22.3297    1.6338   27.9828 F       1  UNL1       -0.1932
     15 CL        -25.6219    3.6211   29.2119 Cl      1  UNL1       -0.0792
     16 O         -27.8949    1.7531   29.7051 O.3     1  UNL1       -0.4530
     17 C         -27.7240    2.5930   30.6510 C.ar    1  UNL1        0.1452
     18 C         -27.8834    2.5954   31.9095 C.ar    1  UNL1        0.0375
     19 C         -27.5957    3.5161   32.8557 C.ar    1  UNL1        0.0031
     20 C         -27.1925    4.8029   32.3693 C.ar    1  UNL1        0.0002
     21 C         -26.9824    4.9605   31.0396 C.ar    1  UNL1        0.0030
     22 C         -27.2459    3.9246   30.1908 C.ar    1  UNL1        0.0342
     23 C         -28.2528    4.4577   29.2140 C.2     1  UNL1       -0.0015
     24 C         -27.8124    5.3194   28.2866 C.2     1  UNL1       -0.0257
     25 C         -28.7470    5.8651   27.3594 C.3     1  UNL1        0.0307
@<TRIPOS>BOND
     1     1     2    1
     2     1     8    1
     3     8     9    1
     4     8    10    1
     5     8    11    1
     6     5    12    1
     7    12    13    1
     8    12    14    1
     9     4    15    1
    10     3    16    1
    11    16    17    1
    12    22    23    1
    13    23    24    2
    14    24    25    1
    15    17    18   ar
    16    18    19   ar
    17    19    20   ar
    18    20    21   ar
    19    21    22   ar
    20    22    17   ar
    21     2     3   ar
    22     3     4   ar
    23     4     5   ar
    24     5     6   ar
    25     6     7   ar
    26     7     2   ar
