@<TRIPOS>MOLECULE
No_277-gen_results/8p0m/2024-11-26-14-13-15/
 7 6 0 0 0
SMALL
GASTEIGER

@<TRIPOS>ATOM
      1 N         -28.0544   -1.0498   28.7246 N.pl3   1  UNL1       -0.1270
      2 C         -27.7460   -0.0733   29.0098 C.2     1  UNL1        0.1015
      3 C         -27.1741    0.7325   28.8254 C.2     1  UNL1       -0.0020
      4 C         -26.2627    0.6359   27.6462 C.3     1  UNL1        0.0531
      5 C         -25.3895    1.6452   27.1833 C.2     1  UNL1       -0.0259
      6 C         -25.2721    2.8034   27.9233 C.2     1  UNL1       -0.0300
      7 C         -26.0243    3.0062   29.0321 C.3     1  UNL1        0.0304
@<TRIPOS>BOND
     1     1     2    1
     2     2     3    2
     3     3     4    1
     4     4     5    1
     5     5     6    2
     6     6     7    1
