@<TRIPOS>MOLECULE
No_2770-gen_results/8p0m/2024-11-26-14-13-15/
 14 15 0 0 0
SMALL
GASTEIGER

@<TRIPOS>ATOM
      1 C         -28.0162   -0.8135   28.8779 C.ar    1  UNL1       -0.0000
      2 C         -28.4690   -0.7850   29.8287 C.ar    1  UNL1       -0.0000
      3 C         -27.1356    0.2359   28.5352 C.ar    1  UNL1       -0.0000
      4 C         -26.3351    0.2900   27.2835 C.ar    1  UNL1       -0.0001
      5 C         -28.3692    0.1957   30.9236 C.ar    1  UNL1       -0.0000
      6 C         -27.5158    1.2655   30.6540 C.ar    1  UNL1       -0.0000
      7 C         -26.8411    1.2942   29.4761 C.ar    1  UNL1       -0.0001
      8 C         -25.3613    0.7751   26.9672 C.ar    1  UNL1        0.0039
      9 C         -24.8303    1.7670   28.0167 C.ar    1  UNL1        0.0714
     10 C         -25.5667    2.0016   29.2020 C.ar    1  UNL1        0.0039
     11 C         -23.6195    2.6087   27.6651 C.3     1  UNL1        0.4186
     12 F         -23.1963    3.3818   28.4043 F       1  UNL1       -0.1659
     13 F         -22.5318    1.6840   27.4074 F       1  UNL1       -0.1659
     14 F         -23.8547    3.2825   26.5473 F       1  UNL1       -0.1659
@<TRIPOS>BOND
     1     9    11    1
     2    11    12    1
     3    11    13    1
     4    11    14    1
     5     1     2   ar
     6     2     5   ar
     7     5     6   ar
     8     6     7   ar
     9     3     1   ar
    10     3     4   ar
    11     4     8   ar
    12     8     9   ar
    13     9    10   ar
    14    10     7   ar
    15     7     3   ar
