@<TRIPOS>MOLECULE
No_2772-gen_results/8p0m/2024-11-26-14-13-15/
 16 17 0 0 0
SMALL
GASTEIGER

@<TRIPOS>ATOM
      1 C         -28.0162   -0.8135   28.8779 C.ar    1  UNL1        0.0384
      2 C         -28.4690   -0.7850   29.8287 C.ar    1  UNL1        0.1455
      3 C         -26.5042   -0.7777   28.8766 C.ar    1  UNL1        0.0145
      4 C         -25.8103   -0.8531   30.1028 C.ar    1  UNL1        0.0579
      5 C         -27.9864   -0.8420   31.0657 C.ar    1  UNL1        0.0384
      6 C         -26.6147   -0.8427   31.2304 C.ar    1  UNL1        0.0145
      7 CL        -24.1671   -0.7803   30.1705 Cl      1  UNL1       -0.0822
      8 O         -29.9476   -0.8246   29.7635 O.3     1  UNL1       -0.4504
      9 C         -30.7052   -1.6596   30.3417 C.2     1  UNL1        0.1795
     10 C         -31.7167   -2.0617   29.5547 C.2     1  UNL1        0.0407
     11 C         -32.1077   -1.4008   28.4660 C.ar    1  UNL1        0.0031
     12 C         -32.9048   -1.9542   27.5258 C.ar    1  UNL1        0.0001
     13 C         -33.1347   -1.3590   26.2162 C.ar    1  UNL1        0.0000
     14 C         -32.4990   -0.1274   25.9354 C.ar    1  UNL1        0.0000
     15 C         -31.6523    0.4129   26.8764 C.ar    1  UNL1        0.0000
     16 C         -31.4132   -0.2186   28.0310 C.ar    1  UNL1        0.0001
@<TRIPOS>BOND
     1     4     7    1
     2     2     8    1
     3     8     9    1
     4     9    10    2
     5    10    11    1
     6    11    12   ar
     7    12    13   ar
     8    13    14   ar
     9    14    15   ar
    10    15    16   ar
    11    16    11   ar
    12     1     2   ar
    13     2     5   ar
    14     5     6   ar
    15     6     4   ar
    16     4     3   ar
    17     3     1   ar
