@<TRIPOS>MOLECULE
No_2773-gen_results/8p0m/2024-11-26-14-13-15/
 11 11 0 0 0
SMALL
GASTEIGER

@<TRIPOS>ATOM
      1 C         -28.0162   -0.8135   28.8779 C.2     1  UNL1       -0.0091
      2 C         -27.0636   -0.1189   28.6079 C.2     1  UNL1       -0.0440
      3 C         -26.9716    0.7139   27.5060 C.3     1  UNL1        0.0220
      4 C         -25.8205    1.4909   27.1160 C.3     1  UNL1        0.0046
      5 C         -24.8579    1.3421   27.6008 C.3     1  UNL1        0.0091
      6 C         -24.6224    0.5295   28.8144 C.3     1  UNL1        0.0992
      7 C         -23.3412    0.3976   29.5010 C.3     1  UNL1        0.3978
      8 C         -25.7444   -0.2202   29.2289 C.3     1  UNL1        0.0305
      9 F         -22.8558   -0.5572   29.4326 F       1  UNL1       -0.1700
     10 F         -23.6181    0.6757   30.8400 F       1  UNL1       -0.1700
     11 F         -22.4989    1.4190   29.1287 F       1  UNL1       -0.1700
@<TRIPOS>BOND
     1     1     2    2
     2     2     3    1
     3     3     4    1
     4     4     5    1
     5     5     6    1
     6     6     7    1
     7     2     8    1
     8     6     8    1
     9     7     9    1
    10     7    10    1
    11     7    11    1
