@<TRIPOS>MOLECULE
No_2774-gen_results/8p0m/2024-11-26-14-13-15/
 18 19 0 0 0
SMALL
GASTEIGER

@<TRIPOS>ATOM
      1 C         -28.0162   -0.8135   28.8779 C.ar    1  UNL1        0.0382
      2 C         -27.0636   -0.1189   28.6079 C.ar    1  UNL1        0.0176
      3 C         -25.7923   -0.4302   29.0761 C.ar    1  UNL1        0.0480
      4 C         -25.5756   -1.5654   29.9363 C.ar    1  UNL1        0.0176
      5 C         -26.7354   -2.3004   30.2173 C.ar    1  UNL1        0.0382
      6 C         -27.9184   -1.9537   29.7629 C.ar    1  UNL1        0.1404
      7 O         -29.0001   -2.7012   30.1151 O.3     1  UNL1       -0.4572
      8 N         -24.6096    0.3112   28.8145 N.pl3   1  UNL1       -0.3075
      9 C         -23.3858   -0.0003   29.0394 C.3     1  UNL1        0.0908
     10 C         -22.2931    0.8796   28.6095 C.3     1  UNL1        0.0215
     11 C         -24.6779    1.5408   28.0758 C.3     1  UNL1        0.0908
     12 C         -23.6986    2.3083   27.5781 C.3     1  UNL1        0.0215
     13 C         -22.4221    1.9415   27.8820 C.3     1  UNL1        0.0035
     14 C         -30.1157   -2.1418   30.5979 C.3     1  UNL1        0.3238
     15 C         -31.1871   -2.7320   30.1646 C.2     1  UNL1        0.4153
     16 O         -32.1318   -2.6967   30.6190 O.co2   1  UNL1       -0.2406
     17 O         -31.1431   -3.4871   29.0293 O.co2   1  UNL1       -0.2406
     18 BR        -30.0370   -0.8305   31.8087 Br      1  UNL1       -0.0214
@<TRIPOS>BOND
     1     6     7    1
     2     3     8    1
     3     8     9    1
     4     8    11    1
     5    10    13    1
     6    12    13    1
     7     7    14    1
     8    14    15    1
     9    15    16   ar
    10    15    17   ar
    11    14    18    1
    12     9    10    1
    13    12    11    1
    14     1     2   ar
    15     2     3   ar
    16     3     4   ar
    17     4     5   ar
    18     5     6   ar
    19     6     1   ar
