@<TRIPOS>MOLECULE
No_2775-gen_results/8p0m/2024-11-26-14-13-15/
 18 20 0 0 0
SMALL
GASTEIGER

@<TRIPOS>ATOM
      1 C         -28.0162   -0.8135   28.8779 C.ar    1  UNL1        0.0145
      2 C         -28.4690   -0.7850   29.8287 C.ar    1  UNL1        0.0478
      3 C         -26.5455   -0.8762   28.8500 C.ar    1  UNL1        0.0013
      4 C         -25.8041   -1.0324   30.0571 C.ar    1  UNL1        0.0001
      5 C         -27.9437   -0.9869   31.2075 C.ar    1  UNL1        0.0145
      6 C         -26.5825   -1.0386   31.2231 C.ar    1  UNL1        0.0013
      7 N         -29.9648   -0.7353   29.8902 N.pl3   1  UNL1       -0.3075
      8 C         -30.7710   -1.5353   30.3549 C.3     1  UNL1        0.0908
      9 C         -31.4273   -2.2155   29.9981 C.3     1  UNL1        0.0215
     10 C         -31.7666   -2.1391   28.5335 C.3     1  UNL1        0.0035
     11 C         -31.5017   -0.8946   27.9737 C.3     1  UNL1        0.0215
     12 C         -30.4061   -0.1830   28.6260 C.3     1  UNL1        0.0908
     13 C         -24.3639   -1.0771   30.0484 C.ar    1  UNL1        0.0000
     14 C         -23.6709   -1.6850   30.4866 C.ar    1  UNL1        0.0000
     15 C         -23.7751    0.0468   29.1571 C.ar    1  UNL1        0.0000
     16 C         -22.3565    0.1040   29.0520 C.ar    1  UNL1        0.0000
     17 C         -22.2292   -1.7207   30.5760 C.ar    1  UNL1        0.0000
     18 C         -21.6283   -0.7767   29.7414 C.ar    1  UNL1        0.0000
@<TRIPOS>BOND
     1     2     7    1
     2     7     8    1
     3     9    10    1
     4     7    12    1
     5    11    12    1
     6     4    13    1
     7     8     9    1
     8    10    11    1
     9     1     2   ar
    10     2     5   ar
    11     5     6   ar
    12     6     4   ar
    13     4     3   ar
    14     3     1   ar
    15    13    14   ar
    16    14    17   ar
    17    17    18   ar
    18    18    16   ar
    19    16    15   ar
    20    15    13   ar
