@<TRIPOS>MOLECULE
No_2776-gen_results/8p0m/2024-11-26-14-13-15/
 30 32 0 0 0
SMALL
GASTEIGER

@<TRIPOS>ATOM
      1 C         -28.0162   -0.8135   28.8779 C.ar    1  UNL1        0.0489
      2 C         -28.4690   -0.7850   29.8287 C.ar    1  UNL1        0.0609
      3 C         -28.1960    0.3478   28.0550 C.ar    1  UNL1        0.1463
      4 C         -29.0191    1.3501   28.3782 C.ar    1  UNL1        0.0440
      5 C         -29.4107    0.1803   30.3782 C.ar    1  UNL1        0.0180
      6 C         -29.6059    1.2495   29.6193 C.ar    1  UNL1        0.0795
      7 O         -27.5003    0.3576   26.8164 O.3     1  UNL1       -0.4535
      8 C         -26.4976    1.3388   26.6595 C.ar    1  UNL1        0.1453
      9 C         -25.2287    0.7278   26.6101 C.ar    1  UNL1        0.0375
     10 C         -24.0880    1.5526   26.6229 C.ar    1  UNL1        0.0045
     11 C         -22.7905    1.0978   26.8973 C.ar    1  UNL1        0.0193
     12 C         -21.7701    2.1256   27.0157 C.ar    1  UNL1        0.0988
     13 N         -20.6380    1.7025   27.6823 N.ar    1  UNL1       -0.2423
     14 C         -20.8974    0.4554   28.2443 C.ar    1  UNL1        0.0989
     15 C         -22.0147   -0.1544   28.4179 C.ar    1  UNL1        0.0207
     16 C         -22.8798    0.1849   27.8847 C.ar    1  UNL1        0.0031
     17 C         -26.7788    2.6127   26.4529 C.ar    1  UNL1        0.0375
     18 C         -25.6790    3.5087   26.4180 C.ar    1  UNL1        0.0031
     19 C         -24.4317    3.0761   26.9620 C.ar    1  UNL1        0.0002
     20 C         -30.5473    2.3800   30.0040 C.2     1  UNL1        0.3413
     21 O         -31.2008    2.9709   29.3390 O.2     1  UNL1       -0.2449
     22 O         -30.6841    2.4289   31.4181 O.3     1  UNL1       -0.4454
     23 CL        -28.2842   -2.2124   30.9766 Cl      1  UNL1       -0.0821
     24 C         -31.5088    3.3560   31.9433 C.3     1  UNL1        0.2091
     25 C         -32.7235    2.9773   32.1632 C.3     1  UNL1        0.0521
     26 C         -32.9995    1.8344   32.8271 C.3     1  UNL1        0.0299
     27 C         -32.4259    1.6344   34.0247 C.2     1  UNL1       -0.0260
     28 C         -31.9870    0.8543   34.6029 C.2     1  UNL1       -0.0046
     29 C         -31.3714    0.7822   35.9656 C.2     1  UNL1       -0.0003
     30 C         -30.7993   -0.3580   36.5894 C.2     1  UNL1       -0.0000
@<TRIPOS>BOND
     1     3     7    1
     2     7     8    1
     3    10    11    1
     4     6    20    1
     5    20    21    2
     6    20    22    1
     7     2    23    1
     8    22    24    1
     9    24    25    1
    10    25    26    1
    11    26    27    1
    12    27    28    2
    13    28    29    1
    14    29    30    2
    15    11    12   ar
    16    12    13   ar
    17    13    14   ar
    18    14    15   ar
    19    15    16   ar
    20    16    11   ar
    21     8     9   ar
    22     9    10   ar
    23    10    19   ar
    24    19    18   ar
    25    18    17   ar
    26    17     8   ar
    27     1     2   ar
    28     2     5   ar
    29     5     6   ar
    30     6     4   ar
    31     4     3   ar
    32     3     1   ar
