@<TRIPOS>MOLECULE
No_2778-gen_results/8p0m/2024-11-26-14-13-15/
 18 20 0 0 0
SMALL
GASTEIGER

@<TRIPOS>ATOM
      1 C         -28.0162   -0.8135   28.8779 C.ar    1  UNL1       -0.0039
      2 C         -28.4690   -0.7850   29.8287 C.ar    1  UNL1       -0.0003
      3 C         -28.1816    0.4277   28.1134 C.ar    1  UNL1       -0.0181
      4 C         -28.9841    1.4155   28.5154 C.ar    1  UNL1       -0.0039
      5 C         -29.3802    0.1384   30.4612 C.ar    1  UNL1       -0.0000
      6 C         -29.5415    1.2736   29.7242 C.ar    1  UNL1       -0.0003
      7 C         -27.4586    0.4934   26.7701 C.3     1  UNL1        0.0483
      8 C         -26.0264    0.3840   26.7617 C.3     1  UNL1        0.0327
      9 C         -25.2257    1.3507   27.3721 C.2     1  UNL1       -0.0180
     10 C         -23.8545    1.0997   27.5822 C.2     1  UNL1        0.0136
     11 C         -22.9465    2.1788   27.6417 C.2     1  UNL1        0.0929
     12 N         -23.5120    3.3689   27.5726 N.2     1  UNL1       -0.2644
     13 C         -25.2701    2.8297   27.1322 C.3     1  UNL1        0.1477
     14 C         -28.1411    0.6986   25.5941 C.2     1  UNL1       -0.0218
     15 C         -27.9898   -0.0379   24.5570 C.2     1  UNL1       -0.0046
     16 C         -27.1419   -1.1837   24.7351 C.2     1  UNL1       -0.0049
     17 C         -25.7825   -1.2087   25.1267 C.2     1  UNL1       -0.0258
     18 C         -25.3224   -0.3969   25.8996 C.3     1  UNL1        0.0308
@<TRIPOS>BOND
     1     3     7    1
     2     7     8    1
     3     8     9    1
     4     9    10    2
     5    10    11    1
     6    11    12    2
     7     9    13    1
     8    12    13    1
     9     7    14    1
    10    14    15    2
    11    15    16    1
    12    16    17    2
    13     8    18    1
    14    17    18    1
    15     1     2   ar
    16     2     5   ar
    17     5     6   ar
    18     6     4   ar
    19     4     3   ar
    20     3     1   ar
