@<TRIPOS>MOLECULE
No_2779-gen_results/8p0m/2024-11-26-14-13-15/
 18 19 0 0 0
SMALL
GASTEIGER

@<TRIPOS>ATOM
      1 C         -28.0162   -0.8135   28.8779 C.3     1  UNL1        0.0762
      2 C         -27.0636   -0.1189   28.6079 C.ar    1  UNL1       -0.0181
      3 C         -26.9716    0.7139   27.5060 C.ar    1  UNL1       -0.0008
      4 C         -25.8206    1.4910   27.1160 C.ar    1  UNL1        0.0366
      5 C         -24.6562    1.4242   27.9180 C.ar    1  UNL1        0.1387
      6 C         -24.6847    0.5901   29.0659 C.ar    1  UNL1        0.0366
      7 C         -25.8099   -0.1265   29.3338 C.ar    1  UNL1       -0.0010
      8 C         -28.6943   -0.4734   30.1587 C.3     1  UNL1        0.2344
      9 CL        -28.5789    0.8148   30.8542 Cl      1  UNL1       -0.0784
     10 O         -29.5095   -1.5007   30.7262 O.3     1  UNL1       -0.2049
     11 O         -23.5637    2.1564   27.6264 O.3     1  UNL1       -0.4714
     12 C         -23.3246    2.3905   26.3215 C.3     1  UNL1        0.2525
     13 C         -28.1045    0.7662   26.5697 C.ar    1  UNL1       -0.0002
     14 C         -27.9583    0.6631   25.2291 C.ar    1  UNL1       -0.0000
     15 C         -29.0050    0.6332   24.3363 C.ar    1  UNL1       -0.0000
     16 C         -30.0471    0.4832   24.6714 C.ar    1  UNL1       -0.0000
     17 C         -30.4505    0.4480   26.1072 C.ar    1  UNL1       -0.0000
     18 C         -29.4347    0.6013   27.0449 C.ar    1  UNL1       -0.0000
@<TRIPOS>BOND
     1     1     8    1
     2     8     9    1
     3     8    10    1
     4     5    11    1
     5    11    12    1
     6     3    13    1
     7     1     2    1
     8     2     3   ar
     9     3     4   ar
    10     4     5   ar
    11     5     6   ar
    12     6     7   ar
    13     7     2   ar
    14    13    14   ar
    15    14    15   ar
    16    15    16   ar
    17    16    17   ar
    18    17    18   ar
    19    18    13   ar
