@<TRIPOS>MOLECULE
No_278-gen_results/8p0m/2024-11-26-14-13-15/
 25 27 0 0 0
SMALL
GASTEIGER

@<TRIPOS>ATOM
      1 C         -28.0162   -0.8135   28.8779 C.ar    1  UNL1        0.0259
      2 C         -27.0636   -0.1190   28.6079 C.ar    1  UNL1        0.0486
      3 C         -25.7647   -0.3897   29.0360 C.ar    1  UNL1        0.0135
      4 C         -25.5296   -1.5302   29.9014 C.ar    1  UNL1        0.0021
      5 C         -26.6888   -2.2893   30.1810 C.ar    1  UNL1        0.0115
      6 C         -27.8727   -1.9508   29.7373 C.ar    1  UNL1        0.0589
      7 CL        -29.1941   -2.9228   30.2191 Cl      1  UNL1       -0.0822
      8 C         -24.5326    0.4192   28.7249 C.ar    1  UNL1        0.0042
      9 C         -24.5321    1.2875   27.7195 C.ar    1  UNL1        0.0369
     10 C         -23.3253    1.9924   27.3879 C.ar    1  UNL1        0.1387
     11 C         -22.1278    1.7658   27.9996 C.ar    1  UNL1        0.0369
     12 C         -23.2731    0.1497   29.3685 C.ar    1  UNL1        0.0002
     13 C         -22.0911    0.8334   29.0098 C.ar    1  UNL1        0.0031
     14 O         -23.4007    2.9150   26.3610 O.3     1  UNL1       -0.4714
     15 C         -24.6845    3.2553   25.9818 C.3     1  UNL1        0.2525
     16 N         -27.4079    0.9976   27.7977 N.pl3   1  UNL1       -0.3075
     17 C         -28.0687    1.0559   26.7005 C.3     1  UNL1        0.0908
     18 C         -28.2074    2.2707   26.0538 C.3     1  UNL1        0.0215
     19 C         -27.1715    2.3636   28.4099 C.3     1  UNL1        0.0908
     20 C         -27.3729    3.5058   27.8055 C.3     1  UNL1        0.0225
     21 C         -27.9382    3.5044   26.5916 C.3     1  UNL1        0.0035
     22 C         -26.9628    4.7752   28.4706 C.3     1  UNL1        0.0371
     23 C         -27.8226    5.4559   29.2155 C.3     1  UNL1        0.0030
     24 C         -25.5925    5.2468   28.2756 C.3     1  UNL1        0.1932
     25 F         -24.8253    4.6089   27.6380 F       1  UNL1       -0.2344
@<TRIPOS>BOND
     1     6     7    1
     2     3     8    1
     3    10    14    1
     4    14    15    1
     5     2    16    1
     6    16    17    1
     7    16    19    1
     8    18    21    1
     9    20    21    1
    10    20    22    1
    11    22    23    1
    12    22    24    1
    13    24    25    1
    14    17    18    1
    15    20    19    1
    16     1     2   ar
    17     2     3   ar
    18     3     4   ar
    19     4     5   ar
    20     5     6   ar
    21     6     1   ar
    22     8     9   ar
    23     9    10   ar
    24    10    11   ar
    25    11    13   ar
    26    13    12   ar
    27    12     8   ar
