@<TRIPOS>MOLECULE
No_2781-gen_results/8p0m/2024-11-26-14-13-15/
 32 35 0 0 0
SMALL
GASTEIGER

@<TRIPOS>ATOM
      1 C         -28.0162   -0.8135   28.8779 C.ar    1  UNL1        0.0158
      2 C         -28.4690   -0.7850   29.8287 C.ar    1  UNL1        0.0479
      3 C         -26.5455   -0.8762   28.8500 C.ar    1  UNL1        0.0159
      4 C         -25.8041   -1.0324   30.0571 C.ar    1  UNL1        0.0505
      5 C         -27.9437   -0.9869   31.2075 C.ar    1  UNL1        0.0158
      6 C         -26.5825   -1.0386   31.2231 C.ar    1  UNL1        0.0159
      7 N         -29.9648   -0.7353   29.8902 N.pl3   1  UNL1       -0.3069
      8 C         -30.7710   -1.5353   30.3549 C.3     1  UNL1        0.0908
      9 C         -32.1409   -1.3743   30.1446 C.3     1  UNL1        0.0220
     10 C         -30.5228    0.3286   29.1507 C.3     1  UNL1        0.1020
     11 C         -31.8136    0.5108   28.9368 C.3     1  UNL1        0.1231
     12 C         -32.2704    1.6011   28.1652 C.2     1  UNL1        0.3660
     13 C         -32.6122   -0.4499   29.5066 C.3     1  UNL1        0.0147
     14 O         -31.6261    2.3021   27.4896 O.co2   1  UNL1       -0.2456
     15 O         -33.5518    1.8437   28.2634 O.co2   1  UNL1       -0.2456
     16 N         -24.4711   -1.1421   30.0442 N.pl3   1  UNL1       -0.2691
     17 C         -23.7145    0.0213   30.0394 C.3     1  UNL1        0.1863
     18 C         -22.3541   -0.0646   29.5518 C.3     1  UNL1        0.0514
     19 C         -23.8847   -1.9932   28.9602 C.3     1  UNL1        0.2492
     20 C         -22.2181   -0.6965   28.6737 C.3     1  UNL1        0.0945
     21 N         -22.6871   -1.9281   28.6054 N.3     1  UNL1       -0.1807
     22 N         -24.5847   -3.1524   28.7705 N.pl3   1  UNL1       -0.1812
     23 C         -24.0921    1.1545   30.9778 C.2     1  UNL1        0.3507
     24 N         -24.0064    2.4069   30.4211 N.pl3   1  UNL1       -0.0287
     25 N         -24.5687    1.0281   32.1784 N.2     1  UNL1       -0.0526
     26 CA        -24.9999    2.2775   32.6653 C.3     1  UNL1        0.3661
     27 C         -25.8068    2.6196   33.6999 C.2     1  UNL1        0.4176
     28 C         -24.6508    3.3072   31.6244 C.3     1  UNL1        0.3156
     29 O         -26.1925    3.7780   33.8987 O.co2   1  UNL1       -0.2407
     30 OXT       -26.4914    1.5809   34.2497 O.co2   1  UNL1       -0.2407
     31 C         -25.3393   -3.9853   29.5990 C.2     1  UNL1        0.2069
     32 N         -25.8703   -5.0767   29.1098 N.2     1  UNL1       -0.1270
@<TRIPOS>BOND
     1     2     7    1
     2     7     8    1
     3     7    10    1
     4    11    12    1
     5     9    13    1
     6    11    13    1
     7    12    14   ar
     8    12    15   ar
     9     4    16    1
    10    16    17    1
    11    16    19    1
    12    18    20    1
    13    19    21    1
    14    20    21    1
    15    19    22    1
    16    17    23    1
    17    23    24    1
    18    23    25    2
    19    25    26    1
    20    26    27    1
    21    24    28    1
    22    26    28    1
    23    27    29   ar
    24    27    30   ar
    25    22    31    1
    26    31    32    2
    27    17    18    1
    28     8     9    1
    29    11    10    1
    30     1     2   ar
    31     2     5   ar
    32     5     6   ar
    33     6     4   ar
    34     4     3   ar
    35     3     1   ar
