@<TRIPOS>MOLECULE
No_2782-gen_results/8p0m/2024-11-26-14-13-15/
 19 21 0 0 0
SMALL
GASTEIGER

@<TRIPOS>ATOM
      1 C         -28.0162   -0.8135   28.8779 C.ar    1  UNL1        0.0035
      2 C         -27.0636   -0.1189   28.6079 C.ar    1  UNL1        0.0420
      3 C         -26.9716    0.7139   27.5060 C.ar    1  UNL1        0.0422
      4 C         -28.1053    0.7744   26.6421 C.ar    1  UNL1        0.0099
      5 C         -29.2041    0.1179   27.0477 C.ar    1  UNL1        0.0799
      6 C         -29.2127   -0.6088   28.1281 C.ar    1  UNL1        0.0067
      7 C         -25.7106    1.4518   27.1380 C.2     1  UNL1        0.1957
      8 C         -24.6052    0.9253   27.6902 C.ar    1  UNL1        0.0420
      9 C         -23.3376    1.6509   27.5494 C.ar    1  UNL1        0.0033
     10 C         -22.1759    1.2277   28.2868 C.ar    1  UNL1        0.0001
     11 C         -22.1814    0.0854   29.0261 C.ar    1  UNL1        0.0001
     12 C         -23.3607   -0.6935   29.1008 C.ar    1  UNL1        0.0033
     13 C         -24.5305   -0.2411   28.4874 C.ar    1  UNL1        0.0420
     14 C         -25.7150   -0.6112   29.1351 C.2     1  UNL1        0.1957
     15 O         -25.7639    2.4487   26.3805 O.2     1  UNL1       -0.2866
     16 O         -25.7768   -1.5104   30.0524 O.2     1  UNL1       -0.2866
     17 C         -30.4362    0.3214   26.2651 C.2     1  UNL1        0.3878
     18 O         -31.3384    0.7235   26.5160 O.co2   1  UNL1       -0.2406
     19 O         -30.3383   -0.4641   25.0393 O.co2   1  UNL1       -0.2406
@<TRIPOS>BOND
     1     3     7    1
     2     7     8    1
     3     2    14    1
     4    13    14    1
     5     7    15    2
     6    14    16    2
     7     5    17    1
     8    17    18   ar
     9    17    19   ar
    10     1     2   ar
    11     2     3   ar
    12     3     4   ar
    13     4     5   ar
    14     5     6   ar
    15     6     1   ar
    16     8     9   ar
    17     9    10   ar
    18    10    11   ar
    19    11    12   ar
    20    12    13   ar
    21    13     8   ar
