@<TRIPOS>MOLECULE
No_2783-gen_results/8p0m/2024-11-26-14-13-15/
 17 19 0 0 0
SMALL
GASTEIGER

@<TRIPOS>ATOM
      1 N         -28.0544   -1.0498   28.7246 N.ar    1  UNL1       -0.2438
      2 C         -27.7460   -0.0733   29.0098 C.ar    1  UNL1        0.0813
      3 C         -27.5562    0.3369   30.3393 C.ar    1  UNL1        0.0179
      4 C         -27.0710    1.6709   30.7899 C.ar    1  UNL1        0.0081
      5 C         -26.6539    2.5222   29.7363 C.ar    1  UNL1        0.0799
      6 C         -26.7304    2.0603   28.4078 C.ar    1  UNL1        0.0078
      7 C         -27.1892    0.8153   28.0522 C.ar    1  UNL1        0.0179
      8 C         -29.0703   -1.5859   29.5133 C.ar    1  UNL1        0.0988
      9 C         -28.9502   -1.4760   30.9443 C.ar    1  UNL1        0.0207
     10 C         -28.2882   -0.3542   31.3981 C.ar    1  UNL1        0.0031
     11 C         -27.2469    0.7477   26.6359 C.ar    1  UNL1        0.0015
     12 C         -26.5040    1.3336   25.7785 C.ar    1  UNL1        0.0000
     13 C         -25.9171    2.5535   26.1548 C.ar    1  UNL1        0.0000
     14 C         -25.9971    2.9818   27.4829 C.ar    1  UNL1        0.0003
     15 C         -25.9977    3.7938   30.0998 C.2     1  UNL1        0.3878
     16 O         -26.6671    4.5896   30.7140 O.co2   1  UNL1       -0.2406
     17 O         -25.0102    4.1730   29.2955 O.co2   1  UNL1       -0.2406
@<TRIPOS>BOND
     1     5    15    1
     2    15    16   ar
     3    15    17   ar
     4     3     4   ar
     5     4     5   ar
     6     5     6   ar
     7     7     2   ar
     8     1     2   ar
     9     2     3   ar
    10     3    10   ar
    11    10     9   ar
    12     9     8   ar
    13     8     1   ar
    14     6     7   ar
    15     7    11   ar
    16    11    12   ar
    17    12    13   ar
    18    13    14   ar
    19    14     6   ar
