@<TRIPOS>MOLECULE
No_2784-gen_results/8p0m/2024-11-26-14-13-15/
 19 19 0 0 0
SMALL
GASTEIGER

@<TRIPOS>ATOM
      1 C         -28.0162   -0.8135   28.8779 C.ar    1  UNL1        0.0104
      2 C         -28.4690   -0.7850   29.8287 C.ar    1  UNL1        0.0794
      3 C         -27.1356    0.2359   28.5352 C.ar    1  UNL1        0.0713
      4 C         -26.8745    1.2825   29.3982 C.ar    1  UNL1       -0.0001
      5 C         -28.3613    0.1987   30.9244 C.ar    1  UNL1        0.0026
      6 C         -27.5277    1.2234   30.6356 C.ar    1  UNL1       -0.0176
      7 C         -26.3879    0.2914   27.2334 C.3     1  UNL1        0.4186
      8 F         -25.7787   -0.5228   27.0339 F       1  UNL1       -0.1659
      9 F         -25.6033    1.4597   27.1041 F       1  UNL1       -0.1659
     10 F         -27.3759    0.5234   26.2013 F       1  UNL1       -0.1659
     11 C         -29.3958   -2.0216   30.3203 C.2     1  UNL1        0.3877
     12 O         -30.4676   -2.0325   30.0565 O.co2   1  UNL1       -0.2406
     13 O         -28.8959   -2.7985   31.3178 O.co2   1  UNL1       -0.2406
     14 C         -27.2667    2.3305   31.6075 C.3     1  UNL1        0.0523
     15 C         -27.1768    3.4348   31.5740 C.2     1  UNL1       -0.0214
     16 C         -27.3966    4.1744   30.3382 C.2     1  UNL1       -0.0046
     17 C         -28.0895    3.8307   29.4410 C.2     1  UNL1       -0.0049
     18 C         -28.3342    4.6983   28.2611 C.2     1  UNL1       -0.0258
     19 C         -27.4967    5.7644   28.1452 C.3     1  UNL1        0.0307
@<TRIPOS>BOND
     1     3     7    1
     2     7     8    1
     3     7     9    1
     4     7    10    1
     5     2    11    1
     6    11    12   ar
     7    11    13   ar
     8     6    14    1
     9    14    15    1
    10    15    16    2
    11    16    17    1
    12    17    18    2
    13    18    19    1
    14     1     2   ar
    15     2     5   ar
    16     5     6   ar
    17     6     4   ar
    18     4     3   ar
    19     3     1   ar
