@<TRIPOS>MOLECULE
No_2785-gen_results/8p0m/2024-11-26-14-13-15/
 32 35 0 0 0
SMALL
GASTEIGER

@<TRIPOS>ATOM
      1 C         -28.0162   -0.8135   28.8779 C.ar    1  UNL1        0.0296
      2 C         -27.0636   -0.1190   28.6079 C.ar    1  UNL1        0.0024
      3 C         -25.7647   -0.3897   29.0360 C.ar    1  UNL1        0.0003
      4 C         -25.5296   -1.5302   29.9014 C.ar    1  UNL1        0.0023
      5 C         -26.6888   -2.2893   30.1810 C.ar    1  UNL1        0.0296
      6 C         -27.8727   -1.9508   29.7373 C.ar    1  UNL1        0.1401
      7 F         -28.8984   -2.7212   30.0727 F       1  UNL1       -0.2042
      8 C         -24.4046    0.2454   28.8089 C.ar    1  UNL1        0.0064
      9 C         -24.0561    1.3384   29.5394 C.ar    1  UNL1        0.0798
     10 C         -22.8883    2.1080   29.1809 C.ar    1  UNL1        0.0066
     11 C         -22.1078    1.7070   28.0363 C.ar    1  UNL1        0.0002
     12 C         -22.5842    0.6984   27.2550 C.ar    1  UNL1        0.0000
     13 C         -23.6959    0.0493   27.5964 C.ar    1  UNL1        0.0002
     14 C         -24.7514    1.7186   30.8078 C.2     1  UNL1        0.3878
     15 O         -24.9291    1.0010   31.6963 O.co2   1  UNL1       -0.2406
     16 O         -25.1512    3.0027   30.8078 O.co2   1  UNL1       -0.2406
     17 C         -27.1480    1.1213   27.7004 C.ar    1  UNL1        0.0045
     18 C         -26.7687    1.6000   26.8686 C.ar    1  UNL1        0.0001
     19 C         -26.9563    2.8273   26.3019 C.ar    1  UNL1        0.0000
     20 C         -28.3143    2.0535   28.2796 C.ar    1  UNL1        0.0550
     21 C         -29.1058    1.6281   29.4748 C.2     1  UNL1        0.2651
     22 C         -28.5415    3.2316   27.7174 C.ar    1  UNL1        0.0046
     23 C         -27.8579    3.6753   26.7207 C.ar    1  UNL1        0.0001
     24 O         -30.1084    1.0153   29.5258 O.2     1  UNL1       -0.2684
     25 N         -28.5514    2.1541   30.7325 N.am    1  UNL1       -0.1968
     26 C         -29.1824    1.9353   31.9951 C.3     1  UNL1        0.1418
     27 C         -28.3529    2.0239   32.9733 C.ar    1  UNL1       -0.0006
     28 C         -28.0317    0.9274   33.8077 C.ar    1  UNL1       -0.0026
     29 C         -26.9965    0.9517   34.8165 C.ar    1  UNL1       -0.0003
     30 C         -26.3922    2.1953   34.9850 C.ar    1  UNL1       -0.0000
     31 C         -26.6403    3.3003   34.1921 C.ar    1  UNL1       -0.0003
     32 C         -27.5864    3.1916   33.1762 C.ar    1  UNL1       -0.0026
@<TRIPOS>BOND
     1     6     7    1
     2     3     8    1
     3     9    14    1
     4    14    15   ar
     5    14    16   ar
     6     2    17    1
     7    20    21    1
     8    21    24    2
     9    21    25   am
    10    25    26    1
    11    26    27    1
    12     1     2   ar
    13     2     3   ar
    14     3     4   ar
    15     4     5   ar
    16     5     6   ar
    17     6     1   ar
    18    27    28   ar
    19    28    29   ar
    20    29    30   ar
    21    30    31   ar
    22    31    32   ar
    23    32    27   ar
    24    17    18   ar
    25    18    19   ar
    26    19    23   ar
    27    23    22   ar
    28    22    20   ar
    29    20    17   ar
    30     8     9   ar
    31     9    10   ar
    32    10    11   ar
    33    11    12   ar
    34    12    13   ar
    35    13     8   ar
