@<TRIPOS>MOLECULE
No_2786-gen_results/8p0m/2024-11-26-14-13-15/
 14 15 0 0 0
SMALL
GASTEIGER

@<TRIPOS>ATOM
      1 C         -28.0162   -0.8135   28.8779 C.ar    1  UNL1        0.0375
      2 C         -27.0636   -0.1189   28.6079 C.ar    1  UNL1       -0.0223
      3 C         -25.7923   -0.4302   29.0761 C.ar    1  UNL1       -0.0202
      4 C         -25.5756   -1.5654   29.9363 C.ar    1  UNL1       -0.0009
      5 C         -26.7354   -2.3004   30.2173 C.ar    1  UNL1        0.0417
      6 C         -27.9184   -1.9537   29.7629 C.ar    1  UNL1        0.1954
      7 O         -29.0001   -2.7012   30.1151 O.3     1  UNL1       -0.2866
      8 C         -24.5290    0.3490   28.7998 C.3     1  UNL1        0.0683
      9 C         -24.4808    1.2113   27.7998 C.2     1  UNL1        0.0432
     10 C         -24.9784    1.6802   27.0516 C.2     1  UNL1       -0.0138
     11 C         -26.3751    1.2826   26.7915 C.3     1  UNL1        0.0317
     12 C         -27.1467    0.5658   27.5765 C.3     1  UNL1        0.0308
     13 N         -22.9339    1.6962   27.8805 N.pl3   1  UNL1       -0.2400
     14 C         -22.5593    2.0668   26.6227 C.3     1  UNL1        0.1351
@<TRIPOS>BOND
     1     6     7    1
     2     3     8    1
     3     8     9    1
     4     9    10    2
     5    10    11    1
     6     2    12    1
     7    11    12    1
     8     9    13    1
     9    13    14    1
    10     1     2   ar
    11     2     3   ar
    12     3     4   ar
    13     4     5   ar
    14     5     6   ar
    15     6     1   ar
