@<TRIPOS>MOLECULE
No_2787-gen_results/8p0m/2024-11-26-14-13-15/
 23 23 0 0 0
SMALL
GASTEIGER

@<TRIPOS>ATOM
      1 C         -28.0162   -0.8135   28.8779 C.ar    1  UNL1        0.0369
      2 C         -27.0636   -0.1189   28.6079 C.ar    1  UNL1        0.0070
      3 C         -25.7647   -0.3897   29.0360 C.ar    1  UNL1        0.0716
      4 C         -25.5296   -1.5302   29.9014 C.ar    1  UNL1        0.0070
      5 C         -26.6577   -2.2915   30.2035 C.ar    1  UNL1        0.0369
      6 C         -27.8548   -1.9555   29.7630 C.ar    1  UNL1        0.1393
      7 C         -24.5349    0.4128   28.7431 C.3     1  UNL1        0.4186
      8 F         -23.5191   -0.2792   28.7198 F       1  UNL1       -0.1659
      9 F         -24.3158    1.3150   29.7111 F       1  UNL1       -0.1659
     10 F         -24.6728    1.1273   27.6259 F       1  UNL1       -0.1659
     11 O         -28.9363   -2.7045   30.1450 O.3     1  UNL1       -0.4656
     12 C         -30.0326   -2.2361   30.5776 C.3     1  UNL1        0.2899
     13 C         -30.5219   -2.8952   31.6900 C.2     1  UNL1        0.2739
     14 O         -29.8724   -3.5978   32.3477 O.2     1  UNL1       -0.2705
     15 N         -31.8545   -2.7097   32.0583 N.am    1  UNL1       -0.2530
     16 C         -32.4736   -3.3624   33.2088 C.3     1  UNL1        0.1202
     17 C         -32.7151   -1.7681   31.3490 C.2     1  UNL1        0.0634
     18 C         -33.6885   -2.2455   30.8005 C.2     1  UNL1       -0.0053
     19 C         -33.7229   -2.6842   29.6040 C.3     1  UNL1        0.0530
     20 C         -34.8388   -3.2831   28.9064 C.2     1  UNL1       -0.0260
     21 C         -35.9842   -3.3191   29.5677 C.2     1  UNL1       -0.0304
     22 C         -36.0623   -2.8239   30.8578 C.3     1  UNL1        0.0257
     23 C         -34.9692   -2.2702   31.5039 C.3     1  UNL1        0.0050
@<TRIPOS>BOND
     1     3     7    1
     2     7     8    1
     3     7     9    1
     4     7    10    1
     5     6    11    1
     6    11    12    1
     7    12    13    1
     8    13    14    2
     9    13    15   am
    10    15    16    1
    11    15    17    1
    12    17    18    2
    13    18    19    1
    14    19    20    1
    15    20    21    2
    16    21    22    1
    17    22    23    1
    18     1     2   ar
    19     2     3   ar
    20     3     4   ar
    21     4     5   ar
    22     5     6   ar
    23     6     1   ar
