@<TRIPOS>MOLECULE
No_2789-gen_results/8p0m/2024-11-26-14-13-15/
 35 37 0 0 0
SMALL
GASTEIGER

@<TRIPOS>ATOM
      1 C         -28.0162   -0.8135   28.8779 C.ar    1  UNL1        0.0068
      2 C         -28.4690   -0.7850   29.8287 C.ar    1  UNL1        0.0798
      3 C         -26.5042   -0.7777   28.8766 C.ar    1  UNL1        0.0066
      4 C         -25.8103   -0.8531   30.1028 C.ar    1  UNL1        0.0757
      5 C         -27.9906   -0.8916   31.2257 C.ar    1  UNL1        0.0068
      6 C         -26.6042   -0.8676   31.2652 C.ar    1  UNL1        0.0066
      7 C         -24.3894   -0.8049   30.1638 C.2     1  UNL1        0.3413
      8 O         -23.8657   -1.2777   31.0130 O.2     1  UNL1       -0.2449
      9 O         -23.7818    0.0959   29.3797 O.3     1  UNL1       -0.4413
     10 C         -30.0967   -0.8357   29.8520 C.2     1  UNL1        0.3878
     11 O         -30.7273   -0.2260   30.7352 O.co2   1  UNL1       -0.2406
     12 O         -30.6404   -1.4224   28.9134 O.co2   1  UNL1       -0.2406
     13 C         -22.4399   -0.1051   29.0427 C.3     1  UNL1        0.2558
     14 C         -21.8767    1.0955   28.3630 C.3     1  UNL1        0.2527
     15 O         -22.4900    1.4793   27.5639 O.2     1  UNL1       -0.4690
     16 C         -23.6116    2.3399   27.7332 C.2     1  UNL1        0.1642
     17 C         -24.2500    2.7008   26.4698 C.2     1  UNL1       -0.0026
     18 C         -24.2379    1.7834   25.5076 C.3     1  UNL1        0.0511
     19 C         -24.9126    0.5553   25.7480 C.2     1  UNL1       -0.0217
     20 C         -25.4236   -0.2893   24.7571 C.2     1  UNL1       -0.0042
     21 C         -26.3941   -1.2521   25.2515 C.2     1  UNL1       -0.0003
     22 C         -27.2833   -1.5804   24.2500 C.2     1  UNL1       -0.0000
     23 C         -28.4199   -0.6874   23.9783 C.ar    1  UNL1       -0.0000
     24 C         -28.4314    0.5651   24.4468 C.ar    1  UNL1       -0.0000
     25 C         -29.5555    1.4235   24.2278 C.ar    1  UNL1        0.0000
     26 C         -30.6699    0.8158   23.6135 C.ar    1  UNL1        0.0000
     27 C         -29.6621   -1.1189   23.4694 C.ar    1  UNL1       -0.0000
     28 C         -30.7371   -0.4061   23.3384 C.ar    1  UNL1        0.0000
     29 C         -31.8826    1.7473   23.4732 C.ar    1  UNL1        0.0000
     30 C         -32.9831    1.4085   24.0543 C.ar    1  UNL1        0.0000
     31 C         -34.1187    2.2022   23.8892 C.ar    1  UNL1        0.0000
     32 C         -34.0491    3.4188   23.0984 C.ar    1  UNL1        0.0000
     33 C         -32.9089    3.7764   22.4458 C.ar    1  UNL1        0.0000
     34 C         -31.7603    2.9766   22.6230 C.ar    1  UNL1        0.0000
     35 C         -24.8741    3.9557   26.2570 C.3     1  UNL1        0.0300
@<TRIPOS>BOND
     1     4     7    1
     2     7     8    2
     3     7     9    1
     4     2    10    1
     5    10    11   ar
     6    10    12   ar
     7     9    13    1
     8    13    14    1
     9    14    15    1
    10    15    16    1
    11    16    17    2
    12    17    18    1
    13    18    19    1
    14    19    20    2
    15    20    21    1
    16    21    22    2
    17    22    23    1
    18    26    29    1
    19    17    35    1
    20    29    30   ar
    21    30    31   ar
    22    31    32   ar
    23    32    33   ar
    24    33    34   ar
    25    34    29   ar
    26    23    24   ar
    27    24    25   ar
    28    25    26   ar
    29    26    28   ar
    30    28    27   ar
    31    27    23   ar
    32     1     2   ar
    33     2     5   ar
    34     5     6   ar
    35     6     4   ar
    36     4     3   ar
    37     3     1   ar
