@<TRIPOS>MOLECULE
No_279-gen_results/8p0m/2024-11-26-14-13-15/
 30 33 0 0 0
SMALL
GASTEIGER

@<TRIPOS>ATOM
      1 C         -28.0162   -0.8135   28.8779 C.ar    1  UNL1        0.0373
      2 C         -27.0636   -0.1189   28.6079 C.ar    1  UNL1       -0.0008
      3 C         -25.7647   -0.3897   29.0360 C.ar    1  UNL1       -0.0182
      4 C         -25.5296   -1.5302   29.9014 C.ar    1  UNL1       -0.0008
      5 C         -26.6577   -2.2915   30.2035 C.ar    1  UNL1        0.0373
      6 C         -27.8548   -1.9555   29.7630 C.ar    1  UNL1        0.1484
      7 C         -24.5349    0.4128   28.7431 C.3     1  UNL1        0.0446
      8 C         -24.4835    1.2431   27.7398 C.ar    1  UNL1       -0.0184
      9 C         -25.0977    1.6893   26.9916 C.ar    1  UNL1       -0.0040
     10 C         -24.7336    2.5972   25.9227 C.ar    1  UNL1       -0.0003
     11 C         -23.6012    3.0449   25.9144 C.ar    1  UNL1       -0.0000
     12 C         -22.9894    1.8291   27.7245 C.ar    1  UNL1       -0.0040
     13 C         -22.6488    2.7027   26.7948 C.ar    1  UNL1       -0.0003
     14 C         -23.4368    0.2216   29.7741 C.3     1  UNL1        0.0094
     15 O         -28.9284   -2.7159   30.0729 O.3     1  UNL1       -0.4241
     16 C         -29.3003   -2.7994   31.4099 C.2     1  UNL1        0.3207
     17 C         -29.8903   -1.7616   31.9363 C.3     1  UNL1        0.0940
     18 C         -30.3466   -0.8251   31.2069 C.3     1  UNL1        0.0109
     19 C         -31.2257   -0.1597   31.4949 C.3     1  UNL1        0.0006
     20 C         -32.0696   -0.4428   32.3194 C.3     1  UNL1        0.0000
     21 C         -31.7016   -1.3835   33.3495 C.3     1  UNL1        0.0006
     22 C         -30.9938   -2.3290   32.9230 C.3     1  UNL1        0.0109
     23 C         -28.7658   -1.0901   32.8965 C.3     1  UNL1        0.0369
     24 O         -29.0411   -3.9830   31.8721 O.2     1  UNL1       -0.2497
     25 C         -28.3326    0.1948   32.5320 C.ar    1  UNL1       -0.0217
     26 C         -28.0833    1.0652   33.6185 C.ar    1  UNL1       -0.0043
     27 C         -27.9570    2.2398   33.5292 C.ar    1  UNL1       -0.0003
     28 C         -27.8526    2.9139   32.2238 C.ar    1  UNL1       -0.0000
     29 C         -28.1337    2.0702   31.1399 C.ar    1  UNL1       -0.0003
     30 C         -28.4058    0.7685   31.3456 C.ar    1  UNL1       -0.0043
@<TRIPOS>BOND
     1     3     7    1
     2     7     8    1
     3     7    14    1
     4     6    15    1
     5    15    16    1
     6    16    17    1
     7    17    18    1
     8    19    20    1
     9    17    22    1
    10    21    22    1
    11    17    23    1
    12    16    24    2
    13    23    25    1
    14    18    19    1
    15    20    21    1
    16     1     2   ar
    17     2     3   ar
    18     3     4   ar
    19     4     5   ar
    20     5     6   ar
    21     6     1   ar
    22    25    26   ar
    23    26    27   ar
    24    27    28   ar
    25    28    29   ar
    26    29    30   ar
    27    30    25   ar
    28     8     9   ar
    29     9    10   ar
    30    10    11   ar
    31    11    13   ar
    32    13    12   ar
    33    12     8   ar
