@<TRIPOS>MOLECULE
No_2790-gen_results/8p0m/2024-11-26-14-13-15/
 15 17 0 0 0
SMALL
GASTEIGER

@<TRIPOS>ATOM
      1 C         -28.0162   -0.8135   28.8779 C.ar    1  UNL1        0.0013
      2 C         -27.0636   -0.1190   28.6079 C.ar    1  UNL1        0.0002
      3 C         -26.9716    0.7139   27.5060 C.ar    1  UNL1        0.0058
      4 C         -28.1053    0.7744   26.6421 C.ar    1  UNL1        0.0684
      5 C         -29.2008    0.1044   27.0527 C.ar    1  UNL1        0.0534
      6 C         -29.2096   -0.6029   28.1853 C.ar    1  UNL1        0.0147
      7 N         -30.2055    0.3215   26.0588 N.pl3   1  UNL1       -0.2920
      8 C         -31.2935   -0.3683   26.2455 C.3     1  UNL1        0.0923
      9 C         -32.1905   -0.4383   25.1039 C.3     1  UNL1        0.0216
     10 C         -30.0638    1.0097   24.9110 C.3     1  UNL1        0.1703
     11 C         -30.9759    1.0922   23.8698 C.3     1  UNL1        0.0425
     12 C         -32.1140    0.3213   24.0535 C.3     1  UNL1        0.0053
     13 N         -28.8586    1.7250   24.7712 N.am    1  UNL1       -0.1829
     14 C         -27.9189    1.6418   25.5455 C.2     1  UNL1        0.2674
     15 O         -26.8117    2.2966   25.4156 O.2     1  UNL1       -0.2683
@<TRIPOS>BOND
     1     5     7    1
     2     7     8    1
     3     7    10    1
     4     9    12    1
     5    11    12    1
     6    10    13    1
     7     4    14    1
     8    13    14   am
     9    14    15    2
    10     8     9    1
    11    11    10    1
    12     1     2   ar
    13     2     3   ar
    14     3     4   ar
    15     4     5   ar
    16     5     6   ar
    17     6     1   ar
