@<TRIPOS>MOLECULE
No_2791-gen_results/8p0m/2024-11-26-14-13-15/
 17 17 0 0 0
SMALL
GASTEIGER

@<TRIPOS>ATOM
      1 P         -27.9505   -0.5786   29.0402 P.3     1  UNL1        0.5656
      2 O         -27.2401    0.0613   28.4283 O.3     1  UNL1       -0.0727
      3 O         -27.2444   -1.9817   29.3768 O.2     1  UNL1       -0.3863
      4 O         -29.4009   -0.6869   29.0518 O.2     1  UNL1       -0.2131
      5 O         -27.6460   -0.3725   30.6586 O.3     1  UNL1       -0.2617
      6 C         -27.4820   -2.9127   30.3053 C.2     1  UNL1        0.2674
      7 F         -25.9977    0.0992   28.4674 F       1  UNL1       -0.0365
      8 C         -26.6081    0.2541   31.0678 C.3     1  UNL1        0.1594
      9 C         -26.1745    0.0322   32.4531 C.3     1  UNL1        0.0590
     10 C         -26.9324    0.6123   33.3312 C.ar    1  UNL1       -0.0196
     11 C         -26.8524    1.9640   33.4599 C.ar    1  UNL1       -0.0042
     12 C         -27.4948    2.5847   34.4052 C.ar    1  UNL1       -0.0003
     13 C         -28.1094    1.9504   35.3436 C.ar    1  UNL1       -0.0000
     14 C         -28.1337    0.5668   35.4009 C.ar    1  UNL1       -0.0003
     15 C         -27.4997   -0.1145   34.4124 C.ar    1  UNL1       -0.0042
     16 C         -27.1864   -4.3365   29.8313 C.1     1  UNL1        0.1752
     17 O         -26.2909   -4.5788   29.0808 O.2     1  UNL1       -0.2278
@<TRIPOS>BOND
     1     1     2    1
     2     1     3    1
     3     1     4    2
     4     1     5    1
     5     3     6    1
     6     2     7    1
     7     5     8    1
     8     8     9    1
     9     9    10    1
    10     6    16    2
    11    16    17    2
    12    10    11   ar
    13    11    12   ar
    14    12    13   ar
    15    13    14   ar
    16    14    15   ar
    17    15    10   ar
