@<TRIPOS>MOLECULE
No_2792-gen_results/8p0m/2024-11-26-14-13-15/
 26 28 0 0 0
SMALL
GASTEIGER

@<TRIPOS>ATOM
      1 C         -28.0162   -0.8135   28.8779 C.ar    1  UNL1       -0.0000
      2 C         -28.4690   -0.7850   29.8287 C.ar    1  UNL1       -0.0002
      3 C         -27.1356    0.2359   28.5352 C.ar    1  UNL1       -0.0000
      4 C         -26.8745    1.2825   29.3982 C.ar    1  UNL1       -0.0012
      5 C         -28.3613    0.1987   30.9244 C.ar    1  UNL1       -0.0012
      6 C         -27.5277    1.2234   30.6356 C.ar    1  UNL1        0.0151
      7 C         -26.3879    0.2914   27.2334 C.ar    1  UNL1        0.0062
      8 C         -25.1510    0.3034   27.2565 C.ar    1  UNL1        0.0002
      9 C         -24.4401    0.7734   26.0139 C.ar    1  UNL1        0.0000
     10 C         -25.1645    0.7575   24.8330 C.ar    1  UNL1        0.0002
     11 C         -26.8422    0.7352   25.9349 C.ar    1  UNL1        0.0760
     12 C         -28.4084    0.6923   25.9845 C.2     1  UNL1        0.3457
     13 C         -26.2900    0.8278   24.8240 C.ar    1  UNL1        0.0065
     14 O         -29.1268    0.2630   25.1462 O.2     1  UNL1       -0.2445
     15 O         -29.0507    1.2782   27.0359 O.3     1  UNL1       -0.4210
     16 C         -30.0804    2.1365   26.7100 C.ar    1  UNL1        0.1488
     17 C         -30.7373    2.7009   27.8171 C.ar    1  UNL1        0.0376
     18 C         -31.7871    3.4247   27.5204 C.ar    1  UNL1        0.0031
     19 C         -32.1773    3.5601   26.1987 C.ar    1  UNL1        0.0002
     20 C         -31.5142    2.9484   25.3420 C.ar    1  UNL1        0.0031
     21 C         -30.4230    2.2391   25.5046 C.ar    1  UNL1        0.0376
     22 C         -27.2686    2.3461   31.6082 C.3     1  UNL1        0.2034
     23 N         -27.0519    2.3231   32.7057 N.2     1  UNL1       -0.2545
     24 C         -26.6360    3.3080   33.5493 C.2     1  UNL1        0.0689
     25 CL        -27.3603    3.9717   30.8438 Cl      1  UNL1       -0.0831
     26 C         -25.8884    4.2918   32.9180 C.3     1  UNL1        0.0529
@<TRIPOS>BOND
     1     3     7    1
     2    11    12    1
     3    12    14    2
     4    12    15    1
     5    15    16    1
     6     6    22    1
     7    22    23    1
     8    23    24    2
     9    22    25    1
    10    24    26    1
    11     7     8   ar
    12     8     9   ar
    13     9    10   ar
    14    10    13   ar
    15    13    11   ar
    16    11     7   ar
    17     1     2   ar
    18     2     5   ar
    19     5     6   ar
    20     6     4   ar
    21     4     3   ar
    22     3     1   ar
    23    16    17   ar
    24    17    18   ar
    25    18    19   ar
    26    19    20   ar
    27    20    21   ar
    28    21    16   ar
