@<TRIPOS>MOLECULE
No_2793-gen_results/8p0m/2024-11-26-14-13-15/
 18 20 0 0 0
SMALL
GASTEIGER

@<TRIPOS>ATOM
      1 C         -28.0162   -0.8135   28.8779 C.ar    1  UNL1        0.0239
      2 C         -28.4690   -0.7850   29.8287 C.ar    1  UNL1        0.1001
      3 C         -26.5042   -0.7777   28.8766 C.ar    1  UNL1        0.0618
      4 N         -25.7819   -0.0917   28.0078 N.pl3   1  UNL1       -0.3082
      5 C         -24.4684    0.0474   28.1024 C.3     1  UNL1        0.0731
      6 C         -23.7690   -0.7933   29.0032 C.3     1  UNL1        0.0241
      7 C         -25.7130   -1.4733   29.8687 C.ar    1  UNL1        0.0723
      8 C         -24.3812   -1.4503   29.9722 C.3     1  UNL1        0.0487
      9 C         -28.1815   -1.8518   30.9145 C.ar    1  UNL1        0.1051
     10 N         -26.6071   -2.0113   30.9491 N.ar    1  UNL1       -0.2467
     11 C         -26.3338    0.5793   26.8641 C.3     1  UNL1        0.0907
     12 C         -25.7439    0.8049   25.7760 C.3     1  UNL1        0.0215
     13 C         -24.2695    1.1315   25.9385 C.3     1  UNL1        0.0035
     14 C         -23.6145    0.5782   27.0149 C.3     1  UNL1        0.0198
     15 C         -30.1181   -0.9578   29.7716 C.2     1  UNL1        0.3893
     16 O         -30.7611   -1.6715   30.1797 O.co2   1  UNL1       -0.2405
     17 O         -30.6384    0.2152   29.3623 O.co2   1  UNL1       -0.2405
     18 C         -22.2363   -0.7128   29.1030 C.3     1  UNL1        0.0021
@<TRIPOS>BOND
     1     3     4    1
     2     4     5    1
     3     6     8    1
     4     7     8    1
     5     4    11    1
     6    12    13    1
     7     5    14    1
     8    13    14    1
     9     2    15    1
    10    15    16   ar
    11    15    17   ar
    12     6    18    1
    13     6     5    1
    14    12    11    1
    15     1     2   ar
    16     2     9   ar
    17     9    10   ar
    18    10     7   ar
    19     7     3   ar
    20     3     1   ar
