@<TRIPOS>MOLECULE
No_2794-gen_results/8p0m/2024-11-26-14-13-15/
 35 39 0 0 0
SMALL
GASTEIGER

@<TRIPOS>ATOM
      1 C         -28.0162   -0.8135   28.8779 C.ar    1  UNL1        0.0114
      2 C         -28.4690   -0.7850   29.8287 C.ar    1  UNL1        0.0603
      3 C         -26.5042   -0.7777   28.8766 C.ar    1  UNL1       -0.0175
      4 C         -25.8103   -0.8531   30.1028 C.ar    1  UNL1       -0.0039
      5 C         -27.9906   -0.8916   31.2257 C.ar    1  UNL1        0.0153
      6 C         -26.6042   -0.8676   31.2652 C.ar    1  UNL1        0.0010
      7 N         -29.9765   -0.8288   29.8497 N.am    1  UNL1       -0.2082
      8 C         -30.5795   -0.1232   28.9820 C.2     1  UNL1        0.2351
      9 O         -30.0432    0.5770   28.2959 O.2     1  UNL1       -0.2741
     10 C         -31.9697   -0.6633   28.7352 C.3     1  UNL1        0.0865
     11 C         -32.3730   -1.5515   29.2177 C.3     1  UNL1        0.0192
     12 C         -31.6543   -2.2821   30.2970 C.3     1  UNL1        0.0865
     13 C         -30.4399   -2.0046   30.5793 C.2     1  UNL1        0.2351
     14 O         -29.7420   -2.6080   31.4419 O.2     1  UNL1       -0.2741
     15 C         -25.6389   -0.6754   27.6570 C.3     1  UNL1        0.0415
     16 C         -25.9046    0.3089   26.6888 C.2     1  UNL1       -0.0303
     17 C         -25.5055    1.2819   26.4446 C.2     1  UNL1        0.0255
     18 C         -24.4868    1.9645   27.3435 C.3     1  UNL1        0.0667
     19 C         -24.1234    1.5897   28.4062 C.ar    1  UNL1       -0.0201
     20 C         -22.9160    0.7211   28.3814 C.ar    1  UNL1       -0.0042
     21 C         -22.4780    0.1258   29.6744 C.ar    1  UNL1       -0.0003
     22 C         -24.7692    1.7524   29.6576 C.ar    1  UNL1       -0.0213
     23 C         -24.1401    1.5304   30.9323 C.ar    1  UNL1       -0.0042
     24 C         -23.0176    0.6562   30.9126 C.ar    1  UNL1       -0.0003
     25 C         -25.9569    2.6584   29.6907 C.3     1  UNL1        0.0536
     26 C         -26.3186    3.5579   28.8923 C.ar    1  UNL1       -0.0042
     27 C         -26.4505    4.8315   29.3199 C.ar    1  UNL1       -0.0027
     28 C         -26.6165    5.8892   28.3077 C.ar    1  UNL1       -0.0002
     29 C         -26.8315    5.4972   26.9937 C.ar    1  UNL1        0.0013
     30 C         -26.7111    4.2313   26.5869 C.ar    1  UNL1        0.0145
     31 C         -26.4230    3.2523   27.5273 C.ar    1  UNL1        0.0476
     32 N         -26.2971    2.0677   27.1057 N.pl3   1  UNL1       -0.2891
     33 C         -27.6067    1.6589   27.3198 C.3     1  UNL1        0.1169
     34 C         -26.5505   -0.4678   25.5715 C.3     1  UNL1        0.0276
     35 C         -24.7348   -1.7177   27.4585 C.3     1  UNL1        0.0091
@<TRIPOS>BOND
     1     2     7    1
     2     7     8   am
     3     8     9    2
     4     8    10    1
     5    11    12    1
     6     7    13   am
     7    12    13    1
     8    13    14    2
     9     3    15    1
    10    15    16    1
    11    16    17    2
    12    17    18    1
    13    18    19    1
    14    22    25    1
    15    25    26    1
    16    17    32    1
    17    31    32    1
    18    32    33    1
    19    16    34    1
    20    15    35    1
    21    10    11    1
    22    26    27   ar
    23    27    28   ar
    24    28    29   ar
    25    29    30   ar
    26    30    31   ar
    27    31    26   ar
    28    19    20   ar
    29    20    21   ar
    30    21    24   ar
    31    24    23   ar
    32    23    22   ar
    33    22    19   ar
    34     1     2   ar
    35     2     5   ar
    36     5     6   ar
    37     6     4   ar
    38     4     3   ar
    39     3     1   ar
