@<TRIPOS>MOLECULE
No_2795-gen_results/8p0m/2024-11-26-14-13-15/
 19 20 0 0 0
SMALL
GASTEIGER

@<TRIPOS>ATOM
      1 C         -28.0162   -0.8135   28.8779 C.ar    1  UNL1       -0.0043
      2 C         -28.4690   -0.7850   29.8287 C.ar    1  UNL1       -0.0003
      3 C         -27.0871    0.2903   28.6377 C.ar    1  UNL1       -0.0219
      4 C         -26.8317    1.2487   29.5869 C.ar    1  UNL1       -0.0043
      5 C         -28.3914    0.0801   31.0065 C.ar    1  UNL1       -0.0000
      6 C         -27.4940    1.1521   30.7841 C.ar    1  UNL1       -0.0003
      7 C         -26.3109    0.3918   27.3640 C.3     1  UNL1        0.0307
      8 C         -24.9687    0.2477   27.4806 C.3     1  UNL1        0.0326
      9 C         -26.9237    0.5760   26.1378 C.3     1  UNL1        0.0261
     10 C         -26.2090    0.4232   24.9761 C.3     1  UNL1        0.0050
     11 C         -24.2782    0.0093   28.7301 C.ar    1  UNL1       -0.0027
     12 C         -23.3140    0.7624   29.1416 C.ar    1  UNL1        0.0946
     13 N         -22.5403    0.3057   30.1857 N.ar    1  UNL1       -0.2426
     14 C         -24.1057   -1.2658   29.3678 C.ar    1  UNL1       -0.0011
     15 C         -23.4459   -1.6701   30.3001 C.ar    1  UNL1        0.0204
     16 C         -22.5426   -0.7217   30.8351 C.ar    1  UNL1        0.0989
     17 C         -28.3006    0.8740   26.0005 C.2     1  UNL1       -0.0307
     18 C         -28.9671    1.7740   26.6971 C.2     1  UNL1       -0.0304
     19 C         -30.3278    2.0341   26.5192 C.3     1  UNL1        0.0303
@<TRIPOS>BOND
     1     3     7    1
     2     7     8    1
     3     7     9    1
     4     9    10    1
     5     8    11    1
     6     9    17    1
     7    17    18    2
     8    18    19    1
     9     1     2   ar
    10     2     5   ar
    11     5     6   ar
    12     6     4   ar
    13     4     3   ar
    14     3     1   ar
    15    11    12   ar
    16    12    13   ar
    17    13    16   ar
    18    16    15   ar
    19    15    14   ar
    20    14    11   ar
