@<TRIPOS>MOLECULE
No_2796-gen_results/8p0m/2024-11-26-14-13-15/
 14 15 0 0 0
SMALL
GASTEIGER

@<TRIPOS>ATOM
      1 C         -28.0162   -0.8135   28.8779 C.ar    1  UNL1       -0.0039
      2 C         -27.0636   -0.1190   28.6079 C.ar    1  UNL1       -0.0178
      3 C         -26.9287    1.1713   29.0083 C.ar    1  UNL1       -0.0039
      4 C         -27.9560    1.7411   29.7840 C.ar    1  UNL1       -0.0003
      5 C         -29.0569   -0.3271   29.7466 C.ar    1  UNL1       -0.0003
      6 C         -28.9828    0.9722   30.1516 C.ar    1  UNL1       -0.0000
      7 C         -25.8907   -0.6263   27.7858 C.3     1  UNL1        0.0526
      8 C         -24.7183   -1.0610   28.6129 C.ar    1  UNL1       -0.0181
      9 C         -23.5950   -0.2827   28.8125 C.ar    1  UNL1       -0.0082
     10 C         -22.5044   -0.8064   29.5509 C.ar    1  UNL1       -0.0222
     11 C         -24.5481   -2.4308   28.9357 C.ar    1  UNL1       -0.0040
     12 C         -23.4521   -2.9201   29.5716 C.ar    1  UNL1       -0.0006
     13 C         -21.3703    0.1420   29.8476 C.3     1  UNL1        0.0310
     14 C         -22.4293   -2.1359   29.8929 C.ar    1  UNL1       -0.0043
@<TRIPOS>BOND
     1     2     7    1
     2     7     8    1
     3    10    13    1
     4     1     2   ar
     5     2     3   ar
     6     3     4   ar
     7     4     6   ar
     8     6     5   ar
     9     5     1   ar
    10     8     9   ar
    11     9    10   ar
    12    10    14   ar
    13    14    12   ar
    14    12    11   ar
    15    11     8   ar
