@<TRIPOS>MOLECULE
No_2798-gen_results/8p0m/2024-11-26-14-13-15/
 19 19 0 0 0
SMALL
GASTEIGER

@<TRIPOS>ATOM
      1 C         -28.0162   -0.8135   28.8779 C.ar    1  UNL1        0.0433
      2 C         -27.0636   -0.1190   28.6079 C.ar    1  UNL1        0.0778
      3 C         -26.9716    0.7139   27.5060 C.ar    1  UNL1        0.0485
      4 C         -28.1053    0.7744   26.6421 C.ar    1  UNL1        0.2259
      5 C         -29.2008    0.1044   27.0527 C.ar    1  UNL1        0.2124
      6 C         -29.2096   -0.6029   28.1853 C.ar    1  UNL1        0.1702
      7 F         -30.2808    0.2156   26.2913 F       1  UNL1       -0.1976
      8 C         -25.7162   -0.2143   29.4079 C.3     1  UNL1        0.4188
      9 F         -25.5845   -1.1990   30.0583 F       1  UNL1       -0.1659
     10 F         -25.6661    0.8568   30.3080 F       1  UNL1       -0.1659
     11 F         -24.6389    0.0475   28.6278 F       1  UNL1       -0.1659
     12 O         -28.0211    1.5431   25.5580 O.3     1  UNL1       -0.2841
     13 O         -30.2807   -1.2959   28.5854 O.3     1  UNL1       -0.4581
     14 C         -30.3894   -1.8421   29.8324 C.3     1  UNL1        0.3319
     15 C         -31.7360   -1.8486   30.2779 C.2     1  UNL1        0.4119
     16 O         -32.0186   -2.3009   31.2553 O.co2   1  UNL1       -0.2411
     17 O         -32.4829   -0.9701   29.6990 O.co2   1  UNL1       -0.2411
     18 C         -29.7378   -3.2066   29.9040 C.2     1  UNL1        0.2626
     19 O         -28.5486   -3.2150   30.4388 O.2     1  UNL1       -0.2837
@<TRIPOS>BOND
     1     5     7    1
     2     2     8    1
     3     8     9    1
     4     8    10    1
     5     8    11    1
     6     4    12    1
     7     6    13    1
     8    13    14    1
     9    14    15    1
    10    15    16   ar
    11    15    17   ar
    12    14    18    1
    13    18    19    2
    14     1     2   ar
    15     2     3   ar
    16     3     4   ar
    17     4     5   ar
    18     5     6   ar
    19     6     1   ar
