@<TRIPOS>MOLECULE
No_2799-gen_results/8p0m/2024-11-26-14-13-15/
 10 10 0 0 0
SMALL
GASTEIGER

@<TRIPOS>ATOM
      1 C         -28.0162   -0.8135   28.8779 C.3     1  UNL1        0.1150
      2 C         -27.0636   -0.1189   28.6079 C.ar    1  UNL1       -0.0047
      3 C         -26.9716    0.7139   27.5060 C.ar    1  UNL1       -0.0020
      4 C         -25.8205    1.4909   27.1160 C.ar    1  UNL1        0.0111
      5 C         -24.6562    1.4242   27.9180 C.ar    1  UNL1        0.0577
      6 C         -24.7114    0.5419   29.0507 C.ar    1  UNL1        0.0111
      7 C         -25.8042   -0.2058   29.3881 C.ar    1  UNL1       -0.0020
      8 N         -29.2059   -0.1642   28.9962 N.3     1  UNL1       -0.2118
      9 C         -30.2606   -0.7397   29.6067 C.3     1  UNL1        0.1079
     10 CL        -23.2741    2.3010   27.5700 Cl      1  UNL1       -0.0822
@<TRIPOS>BOND
     1     1     8    1
     2     8     9    1
     3     5    10    1
     4     1     2    1
     5     2     3   ar
     6     3     4   ar
     7     4     5   ar
     8     5     6   ar
     9     6     7   ar
    10     7     2   ar
