@<TRIPOS>MOLECULE
No_28-gen_results/8p0m/2024-11-26-14-13-15/
 24 24 0 0 0
SMALL
GASTEIGER

@<TRIPOS>ATOM
      1 P         -27.9505   -0.5786   29.0402 P.3     1  UNL1        0.5673
      2 O         -27.2401    0.0613   28.4283 O.3     1  UNL1       -0.4010
      3 O         -27.2444   -1.9817   29.3768 O.3     1  UNL1       -0.0727
      4 O         -28.1843   -0.0275   30.5202 O.2     1  UNL1       -0.2130
      5 O         -29.3988   -0.9154   28.6487 O.3     1  UNL1       -0.2236
      6 C         -25.9395    0.2581   28.6022 C.ar    1  UNL1        0.1486
      7 C         -25.2158    1.1298   27.6854 C.ar    1  UNL1        0.0413
      8 C         -23.8138    1.1891   27.9726 C.ar    1  UNL1        0.0741
      9 C         -23.4020    1.0992   29.0402 C.ar    1  UNL1       -0.0002
     10 C         -24.0424    0.3649   30.1057 C.ar    1  UNL1       -0.0183
     11 C         -25.3753    0.0795   29.8593 C.ar    1  UNL1        0.0332
     12 C         -23.2003    2.2829   27.0654 C.3     1  UNL1        0.4187
     13 F         -21.9135    2.1248   27.0058 F       1  UNL1       -0.1659
     14 F         -23.3879    3.5557   27.4730 F       1  UNL1       -0.1659
     15 F         -23.5516    2.2614   25.7749 F       1  UNL1       -0.1659
     16 C         -29.9893    0.0028   27.7478 C.3     1  UNL1        0.3815
     17 C         -31.1547   -0.5837   27.1192 C.2     1  UNL1        0.4240
     18 O         -31.5989   -1.5346   27.5087 O.co2   1  UNL1       -0.2399
     19 O         -31.6062   -0.0014   26.0160 O.co2   1  UNL1       -0.2399
     20 O         -29.1491    0.6585   26.9232 O.3     1  UNL1       -0.1765
     21 F         -28.0198   -2.9094   29.7513 F       1  UNL1       -0.0365
     22 C         -23.3926    0.1406   31.4016 C.3     1  UNL1        0.0387
     23 C         -23.9899   -1.0060   32.1822 C.3     1  UNL1        0.0723
     24 BR        -24.8018   -0.3748   33.0456 Br      1  UNL1       -0.0804
@<TRIPOS>BOND
     1     1     2    1
     2     1     3    1
     3     1     4    2
     4     1     5    1
     5     2     6    1
     6     8    12    1
     7    12    13    1
     8    12    14    1
     9    12    15    1
    10     5    16    1
    11    16    17    1
    12    17    18   ar
    13    17    19   ar
    14    16    20    1
    15     3    21    1
    16    10    22    1
    17    22    23    1
    18    23    24    1
    19     6     7   ar
    20     7     8   ar
    21     8     9   ar
    22     9    10   ar
    23    10    11   ar
    24    11     6   ar
