@<TRIPOS>MOLECULE
No_280-gen_results/8p0m/2024-11-26-14-13-15/
 33 37 0 0 0
SMALL
GASTEIGER

@<TRIPOS>ATOM
      1 C         -28.0162   -0.8135   28.8779 C.ar    1  UNL1        0.0615
      2 C         -27.0636   -0.1190   28.6079 C.ar    1  UNL1       -0.0070
      3 C         -27.0010    0.6913   27.4910 C.ar    1  UNL1       -0.0028
      4 C         -28.1373    0.7363   26.6350 C.ar    1  UNL1        0.0063
      5 C         -29.2360    0.0765   27.0690 C.ar    1  UNL1        0.0810
      6 C         -30.3815    0.2048   26.2662 C.2     1  UNL1        0.3878
      7 C         -29.1803   -0.6422   28.1830 C.ar    1  UNL1        0.0223
      8 O         -31.3262   -0.3813   26.5663 O.co2   1  UNL1       -0.2406
      9 O         -30.2374    0.5818   24.9688 O.co2   1  UNL1       -0.2406
     10 C         -25.8624   -0.2902   29.5992 C.3     1  UNL1        0.0337
     11 C         -25.0133    0.7000   29.9069 C.3     1  UNL1        0.0487
     12 C         -23.8165    1.0157   29.2957 C.ar    1  UNL1       -0.0181
     13 C         -23.4897    1.1592   28.3005 C.ar    1  UNL1       -0.0039
     14 C         -22.0854    1.4535   27.8221 C.ar    1  UNL1       -0.0003
     15 C         -21.0838    0.7685   28.4160 C.ar    1  UNL1       -0.0000
     16 C         -21.3910    0.1013   29.7012 C.ar    1  UNL1       -0.0003
     17 C         -22.7919    0.0709   30.0763 C.ar    1  UNL1       -0.0039
     18 C         -25.5341    1.8892   30.6691 C.ar    1  UNL1       -0.0173
     19 C         -25.4566    3.0728   30.3060 C.ar    1  UNL1        0.0074
     20 C         -25.8619    4.1843   31.1063 C.ar    1  UNL1        0.0574
     21 C         -26.4415    3.8901   32.3512 C.ar    1  UNL1        0.0114
     22 C         -26.0499    1.5499   32.0324 C.ar    1  UNL1       -0.0039
     23 C         -26.4830    2.6123   32.8469 C.ar    1  UNL1        0.0006
     24 C         -25.5265   -1.5860   30.0449 C.3     1  UNL1        0.0297
     25 CL        -25.7417    5.8134   30.5895 Cl      1  UNL1       -0.0823
     26 C         -24.8265   -2.4665   29.1265 C.3     1  UNL1        0.0665
     27 C         -24.9315   -3.9116   29.1883 C.2     1  UNL1        0.1508
     28 C         -26.0817   -4.4037   29.7651 C.3     1  UNL1        0.0663
     29 C         -27.0777   -3.5787   30.4026 C.3     1  UNL1        0.0293
     30 C         -26.9611   -2.2905   30.2590 C.3     1  UNL1        0.0935
     31 N         -27.7887   -1.5522   29.4769 N.pl3   1  UNL1       -0.2396
     32 C         -24.8248   -1.5976   31.4537 C.3     1  UNL1        0.0025
     33 O         -24.0690   -4.6838   28.6153 O.2     1  UNL1       -0.2961
@<TRIPOS>BOND
     1     5     6    1
     2     6     8   ar
     3     6     9   ar
     4     2    10    1
     5    10    11    1
     6    11    18    1
     7    10    24    1
     8    20    25    1
     9    24    26    1
    10    26    27    1
    11    27    28    1
    12    24    30    1
    13    29    30    1
    14     1    31    1
    15    30    31    1
    16    24    32    1
    17    27    33    2
    18    11    12    1
    19    28    29    1
    20    12    13   ar
    21    13    14   ar
    22    14    15   ar
    23    15    16   ar
    24    16    17   ar
    25    17    12   ar
    26    18    19   ar
    27    19    20   ar
    28    20    21   ar
    29    21    23   ar
    30    23    22   ar
    31    22    18   ar
    32     1     2   ar
    33     2     3   ar
    34     3     4   ar
    35     4     5   ar
    36     5     7   ar
    37     7     1   ar
