@<TRIPOS>MOLECULE
No_2803-gen_results/8p0m/2024-11-26-14-13-15/
 13 13 0 0 0
SMALL
GASTEIGER

@<TRIPOS>ATOM
      1 C         -28.0162   -0.8135   28.8779 C.ar    1  UNL1        0.0375
      2 C         -28.4690   -0.7850   29.8287 C.ar    1  UNL1        0.1454
      3 C         -26.5455   -0.8762   28.8500 C.ar    1  UNL1        0.0031
      4 C         -25.8041   -1.0324   30.0571 C.ar    1  UNL1        0.0002
      5 C         -27.9437   -0.9869   31.2075 C.ar    1  UNL1        0.0375
      6 C         -26.5825   -1.0386   31.2231 C.ar    1  UNL1        0.0031
      7 O         -29.9267   -0.7257   29.8772 O.3     1  UNL1       -0.4507
      8 C         -30.5050   -0.0237   28.9624 C.2     1  UNL1        0.1753
      9 C         -31.3773   -0.3992   28.1172 C.2     1  UNL1        0.0192
     10 C         -31.7096   -0.0497   27.1942 C.3     1  UNL1        0.0550
     11 C         -32.5833   -0.7214   26.1426 C.2     1  UNL1       -0.0259
     12 C         -32.9507   -2.0425   26.4169 C.2     1  UNL1       -0.0300
     13 C         -32.4878   -2.6148   27.5952 C.3     1  UNL1        0.0304
@<TRIPOS>BOND
     1     2     7    1
     2     7     8    1
     3     8     9    2
     4     9    10    1
     5    10    11    1
     6    11    12    2
     7    12    13    1
     8     1     2   ar
     9     2     5   ar
    10     5     6   ar
    11     6     4   ar
    12     4     3   ar
    13     3     1   ar
