@<TRIPOS>MOLECULE
No_2804-gen_results/8p0m/2024-11-26-14-13-15/
 16 17 0 0 0
SMALL
GASTEIGER

@<TRIPOS>ATOM
      1 C         -28.0162   -0.8135   28.8779 C.ar    1  UNL1        0.0026
      2 C         -27.0636   -0.1190   28.6079 C.ar    1  UNL1       -0.0176
      3 C         -26.8756    1.1325   28.9134 C.ar    1  UNL1       -0.0039
      4 C         -27.9014    1.8066   29.6436 C.ar    1  UNL1       -0.0001
      5 C         -29.0524   -0.2272   29.7118 C.ar    1  UNL1        0.0795
      6 C         -28.9628    1.0830   30.0431 C.ar    1  UNL1        0.0066
      7 C         -30.1740   -1.1090   30.1188 C.2     1  UNL1        0.3877
      8 O         -31.1559   -1.1119   29.6222 O.co2   1  UNL1       -0.2406
      9 O         -29.8728   -2.0067   31.1180 O.co2   1  UNL1       -0.2406
     10 C         -25.8916   -0.8861   27.9104 C.3     1  UNL1        0.0526
     11 C         -24.5389   -0.7272   28.6504 C.ar    1  UNL1       -0.0178
     12 C         -24.0829   -1.7830   29.4537 C.ar    1  UNL1       -0.0039
     13 C         -23.7026    0.3448   28.3543 C.ar    1  UNL1       -0.0039
     14 C         -22.3633    0.2959   28.9724 C.ar    1  UNL1       -0.0003
     15 C         -21.9594   -0.7128   29.7347 C.ar    1  UNL1       -0.0000
     16 C         -22.7919   -1.7581   29.9860 C.ar    1  UNL1       -0.0003
@<TRIPOS>BOND
     1     5     7    1
     2     7     8   ar
     3     7     9   ar
     4     2    10    1
     5    10    11    1
     6    11    12   ar
     7    12    16   ar
     8    16    15   ar
     9    15    14   ar
    10    14    13   ar
    11    13    11   ar
    12     1     2   ar
    13     2     3   ar
    14     3     4   ar
    15     4     6   ar
    16     6     5   ar
    17     5     1   ar
