@<TRIPOS>MOLECULE
No_2805-gen_results/8p0m/2024-11-26-14-13-15/
 14 14 0 0 0
SMALL
GASTEIGER

@<TRIPOS>ATOM
      1 C         -28.0162   -0.8135   28.8779 C.3     1  UNL1        0.0087
      2 C         -27.0636   -0.1190   28.6079 C.3     1  UNL1        0.0436
      3 C         -25.7923   -0.4302   29.0761 C.2     1  UNL1       -0.0267
      4 C         -25.2700   -0.0487   30.0123 C.2     1  UNL1       -0.0304
      5 C         -27.8851   -1.6684   30.1122 C.3     1  UNL1        0.0010
      6 C         -26.9250   -1.6038   31.1803 C.3     1  UNL1        0.0047
      7 C         -25.6201   -1.1588   31.0391 C.3     1  UNL1        0.0257
      8 C         -27.1679    0.7424   27.3834 C.2     1  UNL1       -0.0221
      9 C         -28.1641    1.2371   27.0561 C.2     1  UNL1       -0.0043
     10 C         -28.3004    2.0671   25.8345 C.2     1  UNL1       -0.0003
     11 C         -29.5211    2.6312   25.3797 C.2     1  UNL1       -0.0003
     12 C         -30.6233    2.4597   26.1692 C.2     1  UNL1       -0.0046
     13 C         -30.5568    1.7253   27.2955 C.2     1  UNL1       -0.0258
     14 C         -29.4415    1.1408   27.7436 C.3     1  UNL1        0.0307
@<TRIPOS>BOND
     1     1     2    1
     2     2     3    1
     3     3     4    2
     4     1     5    1
     5     5     6    1
     6     4     7    1
     7     6     7    1
     8     2     8    1
     9     8     9    2
    10     9    10    1
    11    10    11    2
    12    11    12    1
    13    12    13    2
    14    13    14    1
