@<TRIPOS>MOLECULE
No_2806-gen_results/8p0m/2024-11-26-14-13-15/
 14 15 0 0 0
SMALL
GASTEIGER

@<TRIPOS>ATOM
      1 C         -28.0162   -0.8135   28.8779 C.2     1  UNL1       -0.0042
      2 C         -27.0636   -0.1189   28.6079 C.2     1  UNL1       -0.0214
      3 C         -25.7647   -0.3897   29.0360 C.3     1  UNL1        0.0520
      4 C         -24.5516    0.4058   28.7646 C.ar    1  UNL1       -0.0214
      5 C         -24.6957    1.4480   27.7988 C.ar    1  UNL1       -0.0214
      6 C         -23.5821    2.2166   27.4626 C.ar    1  UNL1       -0.0042
      7 C         -22.3211    1.8240   27.9807 C.ar    1  UNL1       -0.0003
      8 C         -22.1777    0.8172   28.8883 C.ar    1  UNL1       -0.0003
      9 C         -23.3181    0.0418   29.2597 C.ar    1  UNL1       -0.0042
     10 C         -29.3481   -0.3213   28.7171 C.2     1  UNL1       -0.0003
     11 C         -29.5179    0.7705   27.8770 C.2     1  UNL1       -0.0003
     12 C         -28.4387    1.4577   27.4045 C.2     1  UNL1       -0.0042
     13 C         -27.1503    1.1228   27.7813 C.2     1  UNL1       -0.0214
     14 C         -25.9943    1.8276   27.3922 C.3     1  UNL1        0.0520
@<TRIPOS>BOND
     1     1     2    2
     2     2     3    1
     3     3     4    1
     4     1    10    1
     5    10    11    2
     6    11    12    1
     7    12    13    2
     8     5    14    1
     9    13    14    1
    10     4     5   ar
    11     5     6   ar
    12     6     7   ar
    13     7     8   ar
    14     8     9   ar
    15     9     4   ar
