@<TRIPOS>MOLECULE
No_2807-gen_results/8p0m/2024-11-26-14-13-15/
 23 24 0 0 0
SMALL
GASTEIGER

@<TRIPOS>ATOM
      1 C         -28.0162   -0.8135   28.8779 C.ar    1  UNL1        0.0114
      2 C         -27.0636   -0.1190   28.6079 C.ar    1  UNL1        0.0577
      3 C         -26.8756    1.1325   28.9134 C.ar    1  UNL1        0.0114
      4 C         -27.9014    1.8066   29.6436 C.ar    1  UNL1        0.0010
      5 C         -29.0458   -0.2316   29.7181 C.ar    1  UNL1        0.0010
      6 C         -28.9402    1.0517   30.0597 C.ar    1  UNL1        0.0030
      7 CL        -25.7206   -0.8229   27.6886 Cl      1  UNL1       -0.0822
      8 C         -30.0291    1.6913   30.8750 C.ar    1  UNL1        0.0346
      9 C         -31.0856    1.9481   30.6939 C.ar    1  UNL1        0.1455
     10 C         -32.0163    2.5979   31.5961 C.ar    1  UNL1        0.0441
     11 C         -29.4576    2.0205   32.2782 C.ar    1  UNL1        0.0032
     12 C         -30.2886    2.6575   33.1936 C.ar    1  UNL1        0.0068
     13 C         -31.5588    2.9416   32.8432 C.ar    1  UNL1        0.0828
     14 C         -32.4602    3.6146   33.8001 C.2     1  UNL1        0.3879
     15 O         -32.0906    4.1190   34.8093 O.co2   1  UNL1       -0.2406
     16 O         -33.7348    3.6110   33.4264 O.co2   1  UNL1       -0.2406
     17 O         -31.6253    1.6319   29.4559 O.3     1  UNL1       -0.4507
     18 C         -32.5389    0.7091   29.2660 C.2     1  UNL1        0.1754
     19 C         -32.5545    0.2707   27.9910 C.2     1  UNL1        0.0220
     20 C         -31.8017    0.8670   27.0225 C.3     1  UNL1        0.0900
     21 C         -31.5623    2.0902   26.9787 C.3     1  UNL1        0.0131
     22 C         -31.1891    0.0002   25.9553 C.2     1  UNL1        0.2114
     23 O         -31.4635   -1.1359   25.8731 O.2     1  UNL1       -0.2879
@<TRIPOS>BOND
     1     2     7    1
     2     6     8    1
     3    13    14    1
     4    14    15   ar
     5    14    16   ar
     6     9    17    1
     7    17    18    1
     8    18    19    2
     9    19    20    1
    10    20    21    1
    11    20    22    1
    12    22    23    2
    13     8     9   ar
    14     9    10   ar
    15    10    13   ar
    16    13    12   ar
    17    12    11   ar
    18    11     8   ar
    19     1     2   ar
    20     2     3   ar
    21     3     4   ar
    22     4     6   ar
    23     6     5   ar
    24     5     1   ar
