@<TRIPOS>MOLECULE
No_2808-gen_results/8p0m/2024-11-26-14-13-15/
 13 14 0 0 0
SMALL
GASTEIGER

@<TRIPOS>ATOM
      1 N         -28.0544   -1.0498   28.7246 N.3     1  UNL1       -0.1719
      2 C         -27.7460   -0.0733   29.0098 C.3     1  UNL1        0.1938
      3 C         -27.1741    0.7325   28.8254 C.ar    1  UNL1        0.0140
      4 C         -26.3455    0.6640   27.6407 C.ar    1  UNL1       -0.0012
      5 C         -25.4622    1.6710   27.1772 C.ar    1  UNL1       -0.0002
      6 C         -25.2745    2.7892   27.9629 C.ar    1  UNL1       -0.0000
      7 C         -25.9812    2.9656   29.1028 C.ar    1  UNL1       -0.0002
      8 C         -26.8272    1.9888   29.5612 C.ar    1  UNL1       -0.0012
      9 N         -28.6976    0.2733   30.1581 N.am    1  UNL1       -0.1664
     10 C         -29.5598   -0.7824   30.6214 C.2     1  UNL1        0.3421
     11 C         -28.1836   -2.1629   29.6178 C.3     1  UNL1        0.2078
     12 N         -29.1697   -1.9799   30.4864 N.am    1  UNL1       -0.1675
     13 O         -30.3378   -0.4605   31.6480 O.2     1  UNL1       -0.2491
@<TRIPOS>BOND
     1     1     2    1
     2     2     3    1
     3     2     9    1
     4     9    10   am
     5    10    12   am
     6    10    13    2
     7     1    11    1
     8    11    12    1
     9     3     4   ar
    10     4     5   ar
    11     5     6   ar
    12     6     7   ar
    13     7     8   ar
    14     8     3   ar
