@<TRIPOS>MOLECULE
No_281-gen_results/8p0m/2024-11-26-14-13-15/
 21 23 0 0 0
SMALL
GASTEIGER

@<TRIPOS>ATOM
      1 C         -28.0162   -0.8135   28.8779 C.ar    1  UNL1        0.0015
      2 C         -27.0636   -0.1189   28.6079 C.ar    1  UNL1        0.0000
      3 C         -25.7647   -0.3897   29.0360 C.ar    1  UNL1        0.0000
      4 C         -24.5516    0.4058   28.7646 C.ar    1  UNL1        0.0000
      5 C         -23.2300    0.1178   29.2575 C.ar    1  UNL1        0.0000
      6 C         -22.1393    0.9427   28.9224 C.ar    1  UNL1        0.0000
      7 C         -27.8294   -1.9287   29.8545 C.ar    1  UNL1        0.0187
      8 C         -26.5882   -2.3272   30.2682 C.ar    1  UNL1        0.0015
      9 C         -25.4565   -1.5432   29.9146 C.ar    1  UNL1        0.0000
     10 C         -22.2302    1.9089   27.8723 C.ar    1  UNL1        0.0000
     11 C         -24.2829    1.2237   27.5633 C.ar    1  UNL1        0.0000
     12 C         -23.3469    2.0355   27.2666 C.ar    1  UNL1        0.0000
     13 C         -28.9809   -2.7680   30.2603 C.2     1  UNL1        0.0935
     14 N         -28.8335   -4.0748   30.4659 N.2     1  UNL1       -0.2641
     15 C         -29.9287   -4.9047   30.7305 C.3     1  UNL1        0.1519
     16 C         -30.7638   -5.0557   29.6801 C.ar    1  UNL1        0.0020
     17 C         -30.8086   -4.5083   28.7118 C.ar    1  UNL1       -0.0023
     18 C         -31.7486   -4.7147   27.5805 C.ar    1  UNL1       -0.0003
     19 C         -32.5134   -5.8749   27.6682 C.ar    1  UNL1       -0.0000
     20 C         -32.4409   -6.6799   28.8043 C.ar    1  UNL1       -0.0003
     21 C         -31.5826   -6.3305   29.8263 C.ar    1  UNL1       -0.0023
@<TRIPOS>BOND
     1     3     4    1
     2     7    13    1
     3    13    14    2
     4    14    15    1
     5    15    16    1
     6     1     2   ar
     7     2     3   ar
     8     3     9   ar
     9     9     8   ar
    10     8     7   ar
    11     7     1   ar
    12     4     5   ar
    13     5     6   ar
    14     6    10   ar
    15    10    12   ar
    16    12    11   ar
    17    11     4   ar
    18    16    17   ar
    19    17    18   ar
    20    18    19   ar
    21    19    20   ar
    22    20    21   ar
    23    21    16   ar
