@<TRIPOS>MOLECULE
No_2811-gen_results/8p0m/2024-11-26-14-13-15/
 23 24 0 0 0
SMALL
GASTEIGER

@<TRIPOS>ATOM
      1 C         -28.0162   -0.8135   28.8779 C.2     1  UNL1        0.2491
      2 C         -27.0636   -0.1189   28.6079 C.ar    1  UNL1        0.0536
      3 C         -26.9287    1.1713   29.0083 C.ar    1  UNL1        0.0047
      4 C         -25.7702    2.0341   28.6884 C.ar    1  UNL1        0.0067
      5 C         -24.7141    1.4431   27.9188 C.ar    1  UNL1        0.0798
      6 C         -24.8590    0.0783   27.5836 C.ar    1  UNL1        0.0067
      7 C         -25.9647   -0.6606   27.9164 C.ar    1  UNL1        0.0047
      8 N         -27.9820   -1.6112   30.1028 N.am    1  UNL1       -0.2717
      9 C         -23.5351    2.1704   27.5550 C.2     1  UNL1        0.3878
     10 O         -23.4187    3.0100   26.9973 O.co2   1  UNL1       -0.2406
     11 O         -22.3480    1.4860   27.9792 O.co2   1  UNL1       -0.2406
     12 O         -29.2108   -0.5893   28.5143 O.2     1  UNL1       -0.2699
     13 C         -26.7425   -1.9586   30.7857 C.3     1  UNL1        0.1153
     14 C         -29.1049   -2.4189   30.5375 C.3     1  UNL1        0.1258
     15 C         -29.5618   -2.1176   31.8226 C.3     1  UNL1        0.1640
     16 O         -29.4067   -3.1495   32.5475 O.3     1  UNL1       -0.3472
     17 C         -30.5591   -3.7128   33.0643 C.3     1  UNL1        0.1687
     18 C         -30.7154   -4.8891   32.6632 C.ar    1  UNL1        0.0073
     19 C         -31.7354   -5.1881   32.1114 C.ar    1  UNL1       -0.0019
     20 C         -31.9530   -6.4788   31.3346 C.ar    1  UNL1       -0.0002
     21 C         -31.1183   -6.8303   30.6818 C.ar    1  UNL1       -0.0000
     22 C         -29.6749   -6.5289   31.0622 C.ar    1  UNL1       -0.0002
     23 C         -29.5250   -5.1705   31.5781 C.ar    1  UNL1       -0.0019
@<TRIPOS>BOND
     1     1     2    1
     2     1     8   am
     3     5     9    1
     4     9    10   ar
     5     9    11   ar
     6     1    12    2
     7     8    13    1
     8     8    14    1
     9    14    15    1
    10    15    16    1
    11    16    17    1
    12    17    18    1
    13    18    19   ar
    14    19    20   ar
    15    20    21   ar
    16    21    22   ar
    17    22    23   ar
    18    23    18   ar
    19     2     3   ar
    20     3     4   ar
    21     4     5   ar
    22     5     6   ar
    23     6     7   ar
    24     7     2   ar
