@<TRIPOS>MOLECULE
No_2813-gen_results/8p0m/2024-11-26-14-13-15/
 15 16 0 0 0
SMALL
GASTEIGER

@<TRIPOS>ATOM
      1 C         -28.0162   -0.8135   28.8779 C.ar    1  UNL1       -0.0003
      2 C         -27.0636   -0.1189   28.6079 C.ar    1  UNL1       -0.0039
      3 C         -25.7647   -0.3897   29.0360 C.ar    1  UNL1       -0.0159
      4 C         -25.5296   -1.5302   29.9014 C.ar    1  UNL1       -0.0039
      5 C         -26.6577   -2.2915   30.2035 C.ar    1  UNL1       -0.0003
      6 C         -27.8548   -1.9555   29.7630 C.ar    1  UNL1       -0.0000
      7 C         -24.5441    0.4126   28.7379 C.3     1  UNL1        0.0775
      8 C         -24.4731    1.2065   27.7114 C.ar    1  UNL1       -0.0159
      9 C         -25.1842    1.6469   26.8792 C.ar    1  UNL1       -0.0039
     10 C         -24.8101    2.4700   25.7819 C.ar    1  UNL1       -0.0003
     11 C         -23.4595    2.8569   25.7070 C.ar    1  UNL1       -0.0000
     12 C         -22.9727    1.7144   27.5696 C.ar    1  UNL1       -0.0039
     13 C         -22.5647    2.5174   26.6288 C.ar    1  UNL1       -0.0003
     14 C         -23.4742    0.3036   29.8045 C.3     1  UNL1        0.1907
     15 O         -23.4929    1.0269   30.7726 O.3     1  UNL1       -0.2197
@<TRIPOS>BOND
     1     3     7    1
     2     7     8    1
     3     7    14    1
     4    14    15    1
     5     1     2   ar
     6     2     3   ar
     7     3     4   ar
     8     4     5   ar
     9     5     6   ar
    10     6     1   ar
    11     8     9   ar
    12     9    10   ar
    13    10    11   ar
    14    11    13   ar
    15    13    12   ar
    16    12     8   ar
