@<TRIPOS>MOLECULE
No_2814-gen_results/8p0m/2024-11-26-14-13-15/
 14 15 0 0 0
SMALL
GASTEIGER

@<TRIPOS>ATOM
      1 C         -28.0162   -0.8135   28.8779 C.ar    1  UNL1       -0.0043
      2 C         -28.4690   -0.7850   29.8287 C.ar    1  UNL1       -0.0003
      3 C         -26.5042   -0.7777   28.8766 C.ar    1  UNL1       -0.0218
      4 C         -25.6540   -0.6597   27.7191 C.3     1  UNL1        0.0310
      5 C         -27.9180   -0.9374   31.1824 C.ar    1  UNL1       -0.0000
      6 C         -26.5423   -0.9399   31.2606 C.ar    1  UNL1       -0.0003
      7 C         -25.7832   -0.8935   30.1201 C.ar    1  UNL1       -0.0043
      8 C         -25.9259    0.2819   26.7445 C.3     1  UNL1        0.0310
      9 C         -25.6258    1.4719   26.8191 C.ar    1  UNL1       -0.0218
     10 C         -24.8156    1.9657   27.9646 C.ar    1  UNL1       -0.0043
     11 C         -24.1476    2.6036   28.3481 C.ar    1  UNL1       -0.0003
     12 C         -24.0136    3.6685   27.3657 C.ar    1  UNL1       -0.0000
     13 C         -24.6468    3.5068   26.0306 C.ar    1  UNL1       -0.0003
     14 C         -25.3792    2.3623   25.7809 C.ar    1  UNL1       -0.0043
@<TRIPOS>BOND
     1     3     4    1
     2     4     8    1
     3     8     9    1
     4     9    10   ar
     5    10    11   ar
     6    11    12   ar
     7    12    13   ar
     8    13    14   ar
     9    14     9   ar
    10     1     2   ar
    11     2     5   ar
    12     5     6   ar
    13     6     7   ar
    14     7     3   ar
    15     3     1   ar
