@<TRIPOS>MOLECULE
No_2816-gen_results/8p0m/2024-11-26-14-13-15/
 17 19 0 0 0
SMALL
GASTEIGER

@<TRIPOS>ATOM
      1 C         -28.0162   -0.8135   28.8779 C.ar    1  UNL1       -0.0039
      2 C         -27.0636   -0.1190   28.6079 C.ar    1  UNL1       -0.0181
      3 C         -26.9287    1.1713   29.0083 C.ar    1  UNL1       -0.0039
      4 C         -27.9560    1.7411   29.7840 C.ar    1  UNL1       -0.0003
      5 C         -29.0569   -0.3271   29.7466 C.ar    1  UNL1       -0.0003
      6 C         -28.9828    0.9722   30.1516 C.ar    1  UNL1       -0.0000
      7 C         -25.8815   -0.6260   27.7945 C.3     1  UNL1        0.0482
      8 C         -25.4214    0.1302   26.7096 C.3     1  UNL1        0.0298
      9 C         -25.0332   -1.6821   28.2396 C.2     1  UNL1       -0.0218
     10 C         -23.8635   -1.4377   29.0263 C.2     1  UNL1       -0.0049
     11 C         -23.2724   -0.1521   29.1376 C.2     1  UNL1       -0.0088
     12 C         -21.8771   -0.0831   29.3676 C.2     1  UNL1       -0.0261
     13 C         -21.1046    0.0007   28.3970 C.3     1  UNL1        0.0307
     14 C         -26.1107    0.4321   25.5667 C.3     1  UNL1        0.0053
     15 C         -24.1843    0.9300   26.7871 C.2     1  UNL1       -0.0301
     16 C         -23.3092    0.6176   27.7506 C.2     1  UNL1       -0.0264
     17 C         -21.8925    1.0326   27.4829 C.3     1  UNL1        0.0307
@<TRIPOS>BOND
     1     2     7    1
     2     7     8    1
     3     7     9    1
     4     9    10    2
     5    10    11    1
     6    11    12    2
     7    12    13    1
     8     8    14    1
     9     8    15    1
    10    11    16    1
    11    15    16    2
    12    13    17    1
    13    16    17    1
    14     1     2   ar
    15     2     3   ar
    16     3     4   ar
    17     4     6   ar
    18     6     5   ar
    19     5     1   ar
