@<TRIPOS>MOLECULE
No_2817-gen_results/8p0m/2024-11-26-14-13-15/
 35 41 0 0 0
SMALL
GASTEIGER

@<TRIPOS>ATOM
      1 C         -28.0162   -0.8135   28.8779 C.3     1  UNL1        0.0797
      2 C         -27.0636   -0.1190   28.6079 C.ar    1  UNL1       -0.0117
      3 C         -26.8756    1.1325   28.9134 C.ar    1  UNL1       -0.0238
      4 C         -25.6883    1.9515   28.5672 C.ar    1  UNL1       -0.0074
      5 C         -24.6394    1.2834   27.8753 C.ar    1  UNL1       -0.0053
      6 C         -24.8181   -0.0802   27.6166 C.ar    1  UNL1       -0.0032
      7 C         -25.9311   -0.7717   27.9696 C.ar    1  UNL1       -0.0036
      8 N         -29.1411   -0.2148   28.9977 N.3     1  UNL1       -0.2729
      9 C         -30.1381   -0.6998   29.7464 C.3     1  UNL1        0.0577
     10 C         -23.4244    1.9503   27.4992 C.3     1  UNL1        0.1140
     11 N         -22.2832    2.2211   27.9800 N.3     1  UNL1       -0.1281
     12 C         -23.5696    2.5228   26.0648 C.3     1  UNL1        0.0253
     13 C         -29.9817   -1.9689   30.2823 C.3     1  UNL1        0.0160
     14 C         -28.7402   -2.5802   30.3646 C.3     1  UNL1        0.0031
     15 C         -27.7085   -1.9224   29.8163 C.3     1  UNL1        0.0205
     16 C         -29.1701    1.0541   28.3948 C.3     1  UNL1        0.0616
     17 C         -28.1094    1.9676   28.8548 C.3     1  UNL1        0.0417
     18 C         -30.5543    1.7564   28.6626 C.3     1  UNL1        0.0778
     19 C         -29.2231    0.8445   26.8536 C.3     1  UNL1        0.0299
     20 C         -29.5802    1.6884   25.9465 C.3     1  UNL1        0.0774
     21 C         -30.9480    2.8250   27.7323 C.1     1  UNL1       -0.0907
     22 C         -30.8091    2.4590   26.3291 C.1     1  UNL1       -0.0910
     23 C         -31.6229    0.6882   28.8152 C.3     1  UNL1        0.0137
     24 C         -30.9192    0.1641   30.4623 C.3     1  UNL1        0.0170
     25 C         -31.7640   -0.3600   27.9514 C.3     1  UNL1        0.0017
     26 C         -33.1326   -0.3323   27.4121 C.3     1  UNL1        0.0084
     27 C         -33.5694   -1.2056   27.1917 C.3     1  UNL1        0.0260
     28 C         -35.0210   -1.2132   26.7283 C.2     1  UNL1       -0.0307
     29 C         -35.4563   -0.2159   26.5941 C.2     1  UNL1       -0.0310
     30 C         -34.1125    0.7656   27.2525 C.3     1  UNL1        0.0223
     31 C         -32.8593    1.4972   29.4503 C.3     1  UNL1        0.0017
     32 C         -33.9926    1.6759   28.4666 C.3     1  UNL1        0.0084
     33 C         -34.9634    2.7394   28.5312 C.3     1  UNL1        0.0263
     34 C         -34.7082    3.9338   28.1741 C.2     1  UNL1       -0.0261
     35 C         -35.6372    4.9680   28.2147 C.2     1  UNL1       -0.0049
@<TRIPOS>BOND
     1     1     8    1
     2     8     9    1
     3     5    10    1
     4    10    11    1
     5    10    12    1
     6    13    14    1
     7     1    15    1
     8    14    15    1
     9     8    16    1
    10     3    17    1
    11    16    17    1
    12    16    18    1
    13    16    19    1
    14    18    21    1
    15    20    22    1
    16    21    22    3
    17    18    23    1
    18     9    24    1
    19    23    24    1
    20    23    25    1
    21    25    26    1
    22    27    28    1
    23    28    29    2
    24    26    30    1
    25    29    30    1
    26    23    31    1
    27    30    32    1
    28    32    33    1
    29    33    34    1
    30    34    35    2
    31    27    26    1
    32     1     2    1
    33    13     9    1
    34    20    19    1
    35    32    31    1
    36     2     3   ar
    37     3     4   ar
    38     4     5   ar
    39     5     6   ar
    40     6     7   ar
    41     7     2   ar
