@<TRIPOS>MOLECULE
No_2818-gen_results/8p0m/2024-11-26-14-13-15/
 9 9 0 0 0
SMALL
GASTEIGER

@<TRIPOS>ATOM
      1 O         -28.1229   -1.3353   28.4874 O.2     1  UNL1       -0.2960
      2 C         -27.0637   -0.8242   28.8687 C.2     1  UNL1        0.1521
      3 C         -25.9464   -1.0396   28.8492 C.3     1  UNL1        0.0833
      4 C         -24.7602   -0.1562   29.1644 C.3     1  UNL1        0.1175
      5 C         -25.0917    1.0791   29.6490 C.3     1  UNL1        0.1677
      6 C         -26.4090    1.4383   29.7067 C.3     1  UNL1        0.0419
      7 C         -27.3694    0.6586   29.4148 C.3     1  UNL1        0.0672
      8 CL        -23.1430   -0.6426   29.0964 Cl      1  UNL1       -0.1119
      9 O         -23.9845    1.8551   29.9580 O.3     1  UNL1       -0.2218
@<TRIPOS>BOND
     1     1     2    2
     2     2     3    1
     3     3     4    1
     4     4     5    1
     5     5     6    1
     6     2     7    1
     7     4     8    1
     8     5     9    1
     9     6     7    1
