@<TRIPOS>MOLECULE
No_282-gen_results/8p0m/2024-11-26-14-13-15/
 15 16 0 0 0
SMALL
GASTEIGER

@<TRIPOS>ATOM
      1 F         -28.0727   -1.2542   28.5316 F       1  UNL1       -0.2042
      2 C         -27.3591   -0.3792   28.7224 C.ar    1  UNL1        0.1401
      3 C         -26.3323   -0.6441   29.4520 C.ar    1  UNL1        0.0296
      4 C         -25.2562    0.3203   29.7818 C.ar    1  UNL1        0.0023
      5 C         -25.4242    1.6275   29.2026 C.ar    1  UNL1        0.0001
      6 C         -26.5263    1.8254   28.4032 C.ar    1  UNL1        0.0061
      7 C         -27.4513    0.8601   28.1355 C.ar    1  UNL1        0.0274
      8 C         -28.5399    1.2022   27.2448 C.ar    1  UNL1        0.0022
      9 C         -28.4423    2.0101   26.2543 C.ar    1  UNL1        0.0000
     10 C         -27.3504    3.0613   26.3829 C.ar    1  UNL1        0.0039
     11 C         -26.3722    2.9149   27.3677 C.ar    1  UNL1        0.0715
     12 C         -25.2900    3.9215   27.4925 C.3     1  UNL1        0.4186
     13 F         -24.2055    3.3563   27.6519 F       1  UNL1       -0.1659
     14 F         -25.5268    4.6649   28.6602 F       1  UNL1       -0.1659
     15 F         -25.2632    4.8110   26.5535 F       1  UNL1       -0.1659
@<TRIPOS>BOND
     1     1     2    1
     2    11    12    1
     3    12    13    1
     4    12    14    1
     5    12    15    1
     6     2     3   ar
     7     3     4   ar
     8     4     5   ar
     9     5     6   ar
    10     7     2   ar
    11     6     7   ar
    12     7     8   ar
    13     8     9   ar
    14     9    10   ar
    15    10    11   ar
    16    11     6   ar
