@<TRIPOS>MOLECULE
No_2820-gen_results/8p0m/2024-11-26-14-13-15/
 20 23 0 0 0
SMALL
GASTEIGER

@<TRIPOS>ATOM
      1 C         -28.0162   -0.8135   28.8779 C.ar    1  UNL1        0.0177
      2 C         -27.0636   -0.1189   28.6079 C.ar    1  UNL1        0.0640
      3 C         -26.9716    0.7139   27.5060 C.ar    1  UNL1        0.0164
      4 C         -28.1053    0.7744   26.6421 C.ar    1  UNL1        0.0080
      5 C         -29.2008    0.1044   27.0527 C.ar    1  UNL1        0.0799
      6 C         -29.2096   -0.6029   28.1853 C.ar    1  UNL1        0.0081
      7 C         -30.3749    0.2232   26.1670 C.2     1  UNL1        0.3878
      8 O         -30.9604    1.2364   26.1300 O.co2   1  UNL1       -0.2406
      9 O         -30.9234   -0.9060   25.8359 O.co2   1  UNL1       -0.2406
     10 N         -25.7841   -0.2063   29.3818 N.ar    1  UNL1       -0.3049
     11 C         -25.1305    0.8278   29.9209 C.ar    1  UNL1        0.0640
     12 C         -23.8473    0.5664   30.4649 C.ar    1  UNL1        0.0191
     13 C         -24.7152   -1.1864   29.1089 C.ar    1  UNL1        0.0801
     14 C         -23.5946   -0.8457   29.9681 C.ar    1  UNL1        0.0205
     15 C         -25.0347    2.1055   29.0816 C.ar    1  UNL1        0.0162
     16 C         -24.3435    2.9732   29.3719 C.ar    1  UNL1        0.0014
     17 C         -24.3378    4.1753   28.5016 C.ar    1  UNL1        0.0000
     18 C         -25.2920    4.1466   27.4030 C.ar    1  UNL1        0.0000
     19 C         -25.9787    3.1277   27.1161 C.ar    1  UNL1        0.0001
     20 C         -25.9428    2.0848   27.9610 C.ar    1  UNL1        0.0028
@<TRIPOS>BOND
     1     5     7    1
     2     7     8   ar
     3     7     9   ar
     4     2    10   ar
     5    10    11   ar
     6    11    12   ar
     7    10    13   ar
     8    12    14   ar
     9    13    14   ar
    10    11    15   ar
    11     3    20   ar
    12    15    16   ar
    13    16    17   ar
    14    17    18   ar
    15    18    19   ar
    16    19    20   ar
    17    20    15   ar
    18     1     2   ar
    19     2     3   ar
    20     3     4   ar
    21     4     5   ar
    22     5     6   ar
    23     6     1   ar
