@<TRIPOS>MOLECULE
No_2823-gen_results/8p0m/2024-11-26-14-13-15/
 29 32 0 0 0
SMALL
GASTEIGER

@<TRIPOS>ATOM
      1 C         -28.0162   -0.8135   28.8779 C.ar    1  UNL1       -0.0001
      2 C         -28.4690   -0.7850   29.8287 C.ar    1  UNL1        0.0494
      3 C         -26.5455   -0.8762   28.8500 C.ar    1  UNL1       -0.0217
      4 C         -25.8041   -1.0324   30.0571 C.ar    1  UNL1       -0.0032
      5 C         -27.9437   -0.9869   31.2075 C.ar    1  UNL1       -0.0162
      6 C         -26.5825   -1.0386   31.2231 C.ar    1  UNL1       -0.0044
      7 C         -30.0606   -0.7371   29.9024 C.2     1  UNL1        0.2487
      8 O         -30.5524   -0.2769   29.0111 O.2     1  UNL1       -0.2699
      9 N         -30.7429   -1.2890   30.9939 N.am    1  UNL1       -0.2768
     10 C         -32.1712   -1.2600   30.9749 C.3     1  UNL1        0.1049
     11 C         -24.3688   -1.0881   30.0880 C.ar    1  UNL1        0.0166
     12 C         -23.7192    0.1799   30.0181 C.ar    1  UNL1        0.0806
     13 C         -22.4705    0.3023   29.3244 C.ar    1  UNL1        0.0066
     14 C         -21.8405   -0.9655   29.0202 C.ar    1  UNL1        0.0011
     15 C         -22.5723   -2.1038   28.9811 C.ar    1  UNL1        0.0114
     16 C         -23.8167   -2.2222   29.5193 C.ar    1  UNL1        0.0578
     17 C         -32.7019   -2.0908   31.6972 C.3     1  UNL1        0.1232
     18 C         -32.0050   -2.8803   32.7171 C.3     1  UNL1        0.0147
     19 C         -30.5953   -2.8845   32.6779 C.3     1  UNL1        0.0208
     20 C         -29.9794   -2.1983   31.7747 C.3     1  UNL1        0.0800
     21 C         -28.5462   -2.0121   31.9157 C.3     1  UNL1        0.0463
     22 C         -25.7411   -0.6523   27.6002 C.3     1  UNL1        0.0310
     23 CL        -24.6165   -3.6801   29.4891 Cl      1  UNL1       -0.0822
     24 C         -34.2189   -2.1075   31.8340 C.2     1  UNL1        0.3660
     25 O         -34.8815   -2.8073   31.1895 O.co2   1  UNL1       -0.2456
     26 O         -34.7891   -1.2194   32.6648 O.co2   1  UNL1       -0.2456
     27 C         -24.2994    1.4605   30.5657 C.2     1  UNL1        0.3878
     28 O         -24.6530    2.4172   29.8491 O.co2   1  UNL1       -0.2406
     29 O         -24.6000    1.4248   31.9389 O.co2   1  UNL1       -0.2406
@<TRIPOS>BOND
     1     2     7    1
     2     7     8    2
     3     7     9   am
     4     9    10    1
     5     4    11    1
     6    17    18    1
     7     9    20    1
     8    19    20    1
     9     5    21    1
    10    20    21    1
    11     3    22    1
    12    16    23    1
    13    17    24    1
    14    24    25   ar
    15    24    26   ar
    16    12    27    1
    17    27    28   ar
    18    27    29   ar
    19    10    17    1
    20    18    19    1
    21    11    12   ar
    22    12    13   ar
    23    13    14   ar
    24    14    15   ar
    25    15    16   ar
    26    16    11   ar
    27     1     2   ar
    28     2     5   ar
    29     5     6   ar
    30     6     4   ar
    31     4     3   ar
    32     3     1   ar
