@<TRIPOS>MOLECULE
No_2824-gen_results/8p0m/2024-11-26-14-13-15/
 24 25 0 0 0
SMALL
GASTEIGER

@<TRIPOS>ATOM
      1 C         -28.0162   -0.8135   28.8779 C.ar    1  UNL1        0.0692
      2 C         -27.0636   -0.1189   28.6079 C.ar    1  UNL1        0.0145
      3 C         -25.7923   -0.4302   29.0761 C.ar    1  UNL1        0.0015
      4 C         -24.5456    0.3494   28.8225 C.ar    1  UNL1        0.0080
      5 C         -24.6586    1.4196   27.8878 C.ar    1  UNL1        0.0975
      6 C         -25.9471    1.6811   27.3792 C.ar    1  UNL1        0.0077
      7 C         -27.0439    0.9739   27.6871 C.ar    1  UNL1       -0.0025
      8 N         -27.9517   -1.7518   29.9375 N.pl3   1  UNL1       -0.2011
      9 C         -29.0580   -2.4958   30.3311 C.3     1  UNL1        0.3392
     10 C         -23.4525    2.1575   27.5981 C.2     1  UNL1        0.4766
     11 N         -22.2769    1.7498   28.0673 N.pl3   1  UNL1        0.2047
     12 N         -23.5195    3.0803   26.6055 N.pl3   1  UNL1        0.2047
     13 C         -30.2384   -1.8568   30.3604 C.3     1  UNL1        0.4453
     14 F         -31.1610   -2.7560   30.4692 F       1  UNL1       -0.1658
     15 F         -30.2566   -0.9910   31.4200 F       1  UNL1       -0.1658
     16 O         -28.6245   -3.0883   31.5715 O.3     1  UNL1       -0.1896
     17 F         -30.6201   -1.1551   29.3484 F       1  UNL1       -0.1658
     18 C         -28.3344    1.3678   27.0617 C.ar    1  UNL1       -0.0219
     19 C         -28.3072    2.0912   25.9230 C.3     1  UNL1        0.0310
     20 C         -29.5432    1.0106   27.6218 C.ar    1  UNL1       -0.0020
     21 C         -29.4877   -0.1317   28.5539 C.ar    1  UNL1        0.0559
     22 C         -30.6281    0.3062   28.6457 C.3     1  UNL1        0.3334
     23 O         -31.1221    0.5312   29.9532 O.3     1  UNL1       -0.1790
     24 F         -31.5360   -0.1068   27.8520 F       1  UNL1       -0.1959
@<TRIPOS>BOND
     1     8     9    1
     2     5    10    1
     3    10    11    2
     4    10    12    1
     5     9    13    1
     6    13    14    1
     7    13    15    1
     8     9    16    1
     9    13    17    1
    10    18    19    1
    11    21    22    1
    12    22    23    1
    13    22    24    1
    14     8     1    1
    15     2     3   ar
    16     3     4   ar
    17     4     5   ar
    18     5     6   ar
    19     6     7   ar
    20     1     2   ar
    21     2     7   ar
    22     7    18   ar
    23    18    20   ar
    24    20    21   ar
    25    21     1   ar
