@<TRIPOS>MOLECULE
No_2825-gen_results/8p0m/2024-11-26-14-13-15/
 12 13 0 0 0
SMALL
GASTEIGER

@<TRIPOS>ATOM
      1 O         -28.1229   -1.3353   28.4874 O.2     1  UNL1       -0.2699
      2 C         -27.0637   -0.8242   28.8687 C.2     1  UNL1        0.2488
      3 C         -26.4017   -0.0623   28.6224 C.ar    1  UNL1        0.0497
      4 N         -26.3805   -1.7991   29.9619 N.am    1  UNL1       -0.2740
      5 C         -26.7771    1.0571   27.7896 C.ar    1  UNL1        0.0042
      6 C         -25.9129    1.9788   27.2177 C.ar    1  UNL1        0.0001
      7 C         -24.5242    2.0312   27.6989 C.ar    1  UNL1       -0.0003
      8 C         -24.1056    1.0476   28.5575 C.ar    1  UNL1       -0.0041
      9 C         -24.9060    0.0666   28.9860 C.ar    1  UNL1       -0.0161
     10 C         -25.2752   -1.5559   30.5960 C.3     1  UNL1        0.0984
     11 C         -24.3947   -0.7661   30.0325 C.3     1  UNL1        0.0480
     12 C         -27.4662   -2.7488   30.3805 C.3     1  UNL1        0.1152
@<TRIPOS>BOND
     1     1     2    2
     2     2     3    1
     3     2     4   am
     4     4    10    1
     5     9    11    1
     6    10    11    1
     7     4    12    1
     8     3     5   ar
     9     5     6   ar
    10     6     7   ar
    11     7     8   ar
    12     8     9   ar
    13     9     3   ar
