@<TRIPOS>MOLECULE
No_2827-gen_results/8p0m/2024-11-26-14-13-15/
 35 38 0 0 0
SMALL
GASTEIGER

@<TRIPOS>ATOM
      1 C         -28.0162   -0.8135   28.8779 C.ar    1  UNL1        0.1594
      2 C         -27.0636   -0.1189   28.6079 C.ar    1  UNL1        0.0385
      3 C         -25.7647   -0.3897   29.0360 C.ar    1  UNL1        0.0031
      4 C         -25.5296   -1.5302   29.9014 C.ar    1  UNL1        0.0010
      5 C         -26.6888   -2.2893   30.1810 C.ar    1  UNL1        0.0145
      6 C         -27.8727   -1.9508   29.7373 C.ar    1  UNL1        0.0922
      7 CL        -29.1941   -2.9228   30.2191 Cl      1  UNL1       -0.0791
      8 C         -24.5326    0.4193   28.7249 C.ar    1  UNL1        0.0014
      9 C         -23.3426    0.1084   29.1746 C.ar    1  UNL1        0.0187
     10 C         -23.1956   -1.1870   29.8223 C.ar    1  UNL1        0.0015
     11 C         -24.2588   -1.9382   30.2802 C.ar    1  UNL1        0.0001
     12 C         -22.1150    0.7984   28.7733 C.2     1  UNL1        0.0935
     13 N         -21.6074    1.1403   27.8582 N.2     1  UNL1       -0.2640
     14 C         -22.4610    1.6132   26.8788 C.3     1  UNL1        0.1551
     15 C         -23.6683    2.2590   27.2291 C.2     1  UNL1        0.0410
     16 C         -24.7303    1.4633   27.7070 C.2     1  UNL1        0.0009
     17 C         -24.0866    3.5718   26.6959 C.2     1  UNL1        0.1935
     18 C         -24.8456    4.4555   27.5001 C.ar    1  UNL1        0.0389
     19 C         -25.2237    5.7116   27.1463 C.ar    1  UNL1        0.0032
     20 C         -26.0121    6.5373   27.9080 C.ar    1  UNL1        0.0003
     21 C         -26.4483    6.0931   29.1552 C.ar    1  UNL1        0.0065
     22 C         -26.1129    4.8054   29.5532 C.ar    1  UNL1        0.0761
     23 C         -25.3166    3.9975   28.7843 C.ar    1  UNL1        0.0096
     24 C         -26.6024    4.2829   30.8945 C.2     1  UNL1        0.3458
     25 O         -27.4395    4.5479   31.4363 O.2     1  UNL1       -0.2445
     26 O         -25.7087    3.3376   31.3475 O.3     1  UNL1       -0.4179
     27 O         -23.7522    3.8591   25.5264 O.2     1  UNL1       -0.2868
     28 O         -29.3069   -0.4867   28.5475 O.3     1  UNL1       -0.4163
     29 C         -30.1036    0.1910   29.4381 C.2     1  UNL1        0.4146
     30 C         -31.3597   -0.0415   29.3163 C.2     1  UNL1        0.4090
     31 O         -32.0902    0.1096   30.2210 O.2     1  UNL1       -0.2468
     32 F         -31.8722   -0.4657   28.2321 F       1  UNL1       -0.1520
     33 O         -29.5240    1.1019   30.1407 O.2     1  UNL1       -0.2381
     34 C         -26.2080    2.2782   32.1355 C.2     1  UNL1        0.1832
     35 C         -25.5937    1.9750   33.1124 C.2     1  UNL1        0.0440
@<TRIPOS>BOND
     1     6     7    1
     2     9    12    1
     3    12    13    2
     4    13    14    1
     5    14    15    1
     6     8    16    1
     7    15    16    2
     8    15    17    1
     9    17    18    1
    10    22    24    1
    11    24    25    2
    12    24    26    1
    13    17    27    2
    14     1    28    1
    15    28    29    1
    16    29    30    1
    17    30    31    2
    18    30    32    1
    19    29    33    2
    20    26    34    1
    21    34    35    2
    22    18    19   ar
    23    19    20   ar
    24    20    21   ar
    25    21    22   ar
    26    22    23   ar
    27    23    18   ar
    28     1     2   ar
    29     2     3   ar
    30     4     5   ar
    31     5     6   ar
    32     6     1   ar
    33     3     4   ar
    34     4    11   ar
    35    11    10   ar
    36    10     9   ar
    37     9     8   ar
    38     8     3   ar
