@<TRIPOS>MOLECULE
No_2828-gen_results/8p0m/2024-11-26-14-13-15/
 17 19 0 0 0
SMALL
GASTEIGER

@<TRIPOS>ATOM
      1 C         -28.0162   -0.8135   28.8779 C.ar    1  UNL1        0.0001
      2 C         -27.0636   -0.1189   28.6079 C.ar    1  UNL1        0.0000
      3 C         -26.9716    0.7139   27.5060 C.ar    1  UNL1        0.0001
      4 C         -28.1053    0.7744   26.6421 C.ar    1  UNL1        0.0046
      5 C         -29.2008    0.1044   27.0527 C.ar    1  UNL1        0.0567
      6 C         -29.2096   -0.6029   28.1853 C.ar    1  UNL1        0.0046
      7 C         -30.4815    0.1441   26.3452 C.2     1  UNL1        0.2842
      8 N         -30.5517   -0.0501   25.1296 N.am    1  UNL1       -0.0837
      9 O         -31.5741    0.3207   26.9578 O.2     1  UNL1       -0.2667
     10 C         -25.6795   -0.2264   29.3981 C.ar    1  UNL1        0.0000
     11 C         -24.5440    0.1635   28.9064 C.ar    1  UNL1        0.0000
     12 C         -23.3065    0.0679   29.6076 C.ar    1  UNL1        0.0000
     13 C         -22.0603    0.5758   29.0832 C.ar    1  UNL1        0.0000
     14 C         -22.0102    1.2866   27.9119 C.ar    1  UNL1        0.0000
     15 C         -23.2201    1.5712   27.2349 C.ar    1  UNL1        0.0000
     16 C         -24.4378    1.0564   27.7022 C.ar    1  UNL1        0.0000
     17 C         -25.6852    1.2941   27.0165 C.ar    1  UNL1        0.0000
@<TRIPOS>BOND
     1     5     7    1
     2     7     8   am
     3     7     9    2
     4    11    12   ar
     5    12    13   ar
     6    13    14   ar
     7    14    15   ar
     8    15    16   ar
     9     1     2   ar
    10     3     4   ar
    11     4     5   ar
    12     5     6   ar
    13     6     1   ar
    14     2     3   ar
    15     3    17   ar
    16    17    16   ar
    17    16    11   ar
    18    11    10   ar
    19    10     2   ar
