@<TRIPOS>MOLECULE
No_283-gen_results/8p0m/2024-11-26-14-13-15/
 15 16 0 0 0
SMALL
GASTEIGER

@<TRIPOS>ATOM
      1 C         -28.0162   -0.8135   28.8779 C.ar    1  UNL1       -0.0003
      2 C         -27.0636   -0.1190   28.6079 C.ar    1  UNL1       -0.0040
      3 C         -25.7647   -0.3897   29.0360 C.ar    1  UNL1       -0.0184
      4 C         -25.5296   -1.5303   29.9014 C.ar    1  UNL1       -0.0040
      5 C         -26.6888   -2.2893   30.1810 C.ar    1  UNL1       -0.0003
      6 C         -27.8727   -1.9508   29.7373 C.ar    1  UNL1       -0.0000
      7 C         -24.5491    0.4100   28.7341 C.3     1  UNL1        0.0446
      8 C         -24.4789    1.1871   27.6843 C.2     1  UNL1       -0.0184
      9 C         -25.1757    1.5312   26.7988 C.2     1  UNL1       -0.0040
     10 C         -24.7856    2.3598   25.7091 C.2     1  UNL1       -0.0003
     11 C         -25.2181    3.1781   25.1457 C.2     1  UNL1       -0.0000
     12 C         -23.0543    1.6081   27.4568 C.2     1  UNL1       -0.0040
     13 C         -23.2075    2.5942   26.0958 C.2     1  UNL1       -0.0003
     14 C         -23.5273    0.3613   29.8539 C.3     1  UNL1        0.0087
     15 C         -22.4920   -0.5900   29.5859 C.3     1  UNL1        0.0007
@<TRIPOS>BOND
     1     3     7    1
     2     7     8    1
     3     8     9    2
     4     9    10    1
     5    10    11    2
     6     8    12    1
     7    10    13    1
     8    12    13    2
     9     7    14    1
    10    14    15    1
    11     1     2   ar
    12     2     3   ar
    13     3     4   ar
    14     4     5   ar
    15     5     6   ar
    16     6     1   ar
