@<TRIPOS>MOLECULE
No_2831-gen_results/8p0m/2024-11-26-14-13-15/
 21 23 0 0 0
SMALL
GASTEIGER

@<TRIPOS>ATOM
      1 N         -28.0544   -1.0498   28.7246 N.ar    1  UNL1       -0.1897
      2 C         -28.6544   -0.5669   29.5076 C.ar    1  UNL1        0.2464
      3 C         -26.6945   -1.3221   29.0236 C.ar    1  UNL1        0.2028
      4 N         -26.3171   -1.0619   30.3116 N.ar    1  UNL1       -0.2018
      5 N         -30.0524   -0.2833   29.1917 N.am    1  UNL1       -0.1380
      6 N         -28.3753   -0.1641   30.8403 N.ar    1  UNL1       -0.1897
      7 C         -27.1066   -0.4331   31.1804 C.ar    1  UNL1        0.2028
      8 C         -30.3274    0.2913   28.0432 C.2     1  UNL1        0.2892
      9 O         -29.5531    0.7901   27.3412 O.2     1  UNL1       -0.2663
     10 C         -31.7947    0.1872   27.6199 C.ar    1  UNL1        0.1366
     11 N         -32.6713    0.1005   28.2976 N.ar    1  UNL1       -0.2392
     12 C         -32.0371    0.1579   26.1380 C.ar    1  UNL1        0.0237
     13 C         -33.9979   -0.0319   27.9861 C.ar    1  UNL1        0.0990
     14 C         -30.9467    0.1895   25.1953 C.ar    1  UNL1        0.0208
     15 C         -34.2305   -0.0388   26.6727 C.ar    1  UNL1        0.0207
     16 C         -33.2866    0.0175   25.7285 C.ar    1  UNL1        0.0033
     17 C         -30.2008    1.2390   24.9255 C.ar    1  UNL1        0.0032
     18 C         -30.6024   -1.1119   24.5576 C.ar    1  UNL1        0.0989
     19 N         -29.5715   -1.1181   23.6982 N.ar    1  UNL1       -0.2423
     20 C         -29.1990    1.2354   23.9227 C.ar    1  UNL1        0.0207
     21 C         -28.8899   -0.0373   23.3548 C.ar    1  UNL1        0.0989
@<TRIPOS>BOND
     1     2     5    1
     2     5     8   am
     3     8     9    2
     4     8    10    1
     5    12    14    1
     6    14    17   ar
     7    17    20   ar
     8    20    21   ar
     9    21    19   ar
    10    19    18   ar
    11    18    14   ar
    12     1     2   ar
    13     2     6   ar
    14     6     7   ar
    15     7     4   ar
    16     4     3   ar
    17     3     1   ar
    18    10    11   ar
    19    11    13   ar
    20    13    15   ar
    21    15    16   ar
    22    16    12   ar
    23    12    10   ar
