@<TRIPOS>MOLECULE
No_2832-gen_results/8p0m/2024-11-26-14-13-15/
 14 14 0 0 0
SMALL
GASTEIGER

@<TRIPOS>ATOM
      1 C         -28.0162   -0.8135   28.8779 C.2     1  UNL1       -0.0287
      2 C         -27.0636   -0.1189   28.6079 C.2     1  UNL1       -0.0081
      3 C         -26.9716    0.7139   27.5060 C.3     1  UNL1        0.1726
      4 C         -28.1053    0.7744   26.6421 C.3     1  UNL1        0.0392
      5 C         -29.2041    0.1179   27.0477 C.3     1  UNL1        0.1095
      6 C         -30.3488    0.2568   26.2203 C.2     1  UNL1        0.3647
      7 C         -29.1817   -0.6758   28.1173 C.3     1  UNL1        0.0370
      8 O         -31.3387   -0.2347   26.5001 O.co2   1  UNL1       -0.2457
      9 O         -30.2776    0.8651   25.0275 O.co2   1  UNL1       -0.2457
     10 C         -25.6595    1.4147   27.1427 C.3     1  UNL1        0.4131
     11 F         -24.7463    0.6484   27.2145 F       1  UNL1       -0.1684
     12 F         -25.4411    2.3465   28.0977 F       1  UNL1       -0.1684
     13 F         -25.7260    2.0521   25.9916 F       1  UNL1       -0.1684
     14 CL        -26.4522    1.5798   27.1129 Cl      1  UNL1       -0.1030
@<TRIPOS>BOND
     1     1     2    2
     2     2     3    1
     3     3     4    1
     4     4     5    1
     5     5     6    1
     6     1     7    1
     7     5     7    1
     8     6     8   ar
     9     6     9   ar
    10     3    10    1
    11    10    11    1
    12    10    12    1
    13    10    13    1
    14     3    14    1
