@<TRIPOS>MOLECULE
No_2833-gen_results/8p0m/2024-11-26-14-13-15/
 26 27 0 0 0
SMALL
GASTEIGER

@<TRIPOS>ATOM
      1 C         -28.0162   -0.8135   28.8779 C.3     1  UNL1        0.1297
      2 C         -27.0636   -0.1190   28.6079 C.ar    1  UNL1       -0.0137
      3 C         -26.9287    1.1713   29.0083 C.ar    1  UNL1       -0.0038
      4 C         -25.7702    2.0341   28.6884 C.ar    1  UNL1        0.0042
      5 C         -24.7141    1.4431   27.9188 C.ar    1  UNL1        0.0550
      6 C         -24.8590    0.0783   27.5836 C.ar    1  UNL1        0.0042
      7 C         -25.9647   -0.6606   27.9164 C.ar    1  UNL1       -0.0038
      8 C         -28.6510   -0.6086   30.2543 C.3     1  UNL1        0.4017
      9 F         -28.0810   -0.9494   31.1792 F       1  UNL1       -0.1697
     10 F         -28.9319    0.7279   30.3540 F       1  UNL1       -0.1697
     11 F         -29.8561   -1.3252   30.2825 F       1  UNL1       -0.1697
     12 C         -23.5018    2.1352   27.5672 C.2     1  UNL1        0.2648
     13 N         -22.3121    1.6598   27.5081 N.am    1  UNL1       -0.2013
     14 O         -23.7048    3.1411   26.7164 O.2     1  UNL1       -0.2684
     15 C         -21.8385    0.7569   28.5140 C.3     1  UNL1        0.1201
     16 C         -21.7393   -0.3866   28.5243 C.3     1  UNL1        0.0495
     17 C         -22.5587   -1.1702   29.4426 C.2     1  UNL1       -0.0243
     18 C         -22.9685   -0.6039   30.7111 C.2     1  UNL1       -0.0045
     19 C         -23.6978   -1.3208   31.6321 C.2     1  UNL1       -0.0003
     20 C         -25.0417   -0.9206   31.8476 C.2     1  UNL1       -0.0000
     21 C         -25.2433    0.3796   32.5987 C.ar    1  UNL1       -0.0000
     22 C         -24.7648    1.4823   31.7522 C.ar    1  UNL1       -0.0000
     23 C         -25.1352    2.8016   32.3663 C.ar    1  UNL1        0.0000
     24 C         -25.9680    2.9225   33.4275 C.ar    1  UNL1        0.0000
     25 C         -26.5541    1.7540   33.9863 C.ar    1  UNL1        0.0000
     26 C         -26.2361    0.5030   33.5262 C.ar    1  UNL1       -0.0000
@<TRIPOS>BOND
     1     1     2    1
     2     1     8    1
     3     8     9    1
     4     8    10    1
     5     8    11    1
     6     5    12    1
     7    12    13   am
     8    12    14    2
     9    13    15    1
    10    15    16    1
    11    16    17    1
    12    17    18    2
    13    18    19    1
    14    19    20    2
    15    20    21    1
    16     2     3   ar
    17     3     4   ar
    18     4     5   ar
    19     5     6   ar
    20     6     7   ar
    21     7     2   ar
    22    21    22   ar
    23    22    23   ar
    24    23    24   ar
    25    24    25   ar
    26    25    26   ar
    27    26    21   ar
