@<TRIPOS>MOLECULE
No_2834-gen_results/8p0m/2024-11-26-14-13-15/
 31 33 0 0 0
SMALL
GASTEIGER

@<TRIPOS>ATOM
      1 C         -28.0162   -0.8135   28.8779 C.ar    1  UNL1        0.0046
      2 C         -27.0636   -0.1189   28.6079 C.ar    1  UNL1        0.0001
      3 C         -25.7923   -0.4302   29.0761 C.ar    1  UNL1        0.0000
      4 C         -25.5756   -1.5654   29.9363 C.ar    1  UNL1        0.0001
      5 C         -26.7354   -2.3004   30.2173 C.ar    1  UNL1        0.0046
      6 C         -27.9184   -1.9537   29.7629 C.ar    1  UNL1        0.0554
      7 C         -27.1057    1.1023   27.7593 C.ar    1  UNL1        0.0002
      8 C         -27.8576    1.5309   27.2156 C.ar    1  UNL1        0.0000
      9 C         -27.8433    2.7213   26.2861 C.ar    1  UNL1        0.0002
     10 C         -26.6217    3.3253   26.0566 C.ar    1  UNL1        0.0048
     11 C         -25.4854    2.7960   26.6725 C.ar    1  UNL1        0.0575
     12 C         -25.6222    1.7365   27.5193 C.ar    1  UNL1        0.0048
     13 C         -29.0776   -2.7599   30.2148 C.2     1  UNL1        0.2690
     14 N         -30.1904   -2.2909   30.2786 N.am    1  UNL1       -0.1754
     15 O         -28.8811   -3.9898   30.5195 O.2     1  UNL1       -0.2680
     16 C         -31.4167   -3.0447   30.6408 C.ar    1  UNL1        0.0737
     17 C         -24.1914    3.4149   26.4427 C.2     1  UNL1        0.2752
     18 N         -23.1858    2.9718   26.3660 N.2     1  UNL1       -0.2292
     19 O         -24.1806    4.8145   26.6609 O.2     1  UNL1       -0.2656
     20 C         -31.4809   -3.8982   31.3890 C.ar    1  UNL1        0.0175
     21 C         -32.5465   -2.5237   29.8801 C.ar    1  UNL1        0.0175
     22 C         -32.7090   -4.6370   31.6714 C.ar    1  UNL1        0.0127
     23 C         -33.7739   -3.2093   30.1048 C.ar    1  UNL1        0.0127
     24 C         -33.8147   -4.2179   31.0326 C.ar    1  UNL1        0.0578
     25 CL        -35.3233   -4.9839   31.2950 Cl      1  UNL1       -0.0822
     26 C         -22.6254    1.6751   26.4338 C.3     1  UNL1        0.1547
     27 C         -22.1994    1.3583   27.8843 C.2     1  UNL1       -0.0025
     28 C         -21.8522    0.1388   28.3537 C.2     1  UNL1       -0.0026
     29 C         -21.0216   -0.0345   29.3800 C.3     1  UNL1        0.1514
     30 N         -21.1374   -1.2302   29.8582 N.2     1  UNL1       -0.2625
     31 C         -22.3191   -1.8068   29.3079 C.2     1  UNL1        0.1137
@<TRIPOS>BOND
     1     2     7    1
     2     6    13    1
     3    13    14   am
     4    13    15    2
     5    14    16    1
     6    11    17    1
     7    17    18    2
     8    17    19    1
     9    24    25    1
    10    18    26    1
    11    26    27    1
    12    27    28    2
    13    28    29    1
    14    29    30    1
    15    30    31    2
    16     1     2   ar
    17     2     3   ar
    18     3     4   ar
    19     4     5   ar
    20     5     6   ar
    21     6     1   ar
    22    16    20   ar
    23    20    22   ar
    24    22    24   ar
    25    24    23   ar
    26    23    21   ar
    27    21    16   ar
    28     7     8   ar
    29     8     9   ar
    30     9    10   ar
    31    10    11   ar
    32    11    12   ar
    33    12     7   ar
