@<TRIPOS>MOLECULE
No_2835-gen_results/8p0m/2024-11-26-14-13-15/
 17 18 0 0 0
SMALL
GASTEIGER

@<TRIPOS>ATOM
      1 C         -28.0162   -0.8135   28.8779 C.ar    1  UNL1        0.0047
      2 C         -28.4690   -0.7850   29.8287 C.ar    1  UNL1        0.0025
      3 C         -28.1960    0.3478   28.0550 C.ar    1  UNL1        0.0576
      4 C         -29.0191    1.3501   28.3782 C.ar    1  UNL1        0.0342
      5 C         -29.4107    0.1803   30.3782 C.ar    1  UNL1        0.0296
      6 C         -29.6059    1.2495   29.6193 C.ar    1  UNL1        0.1403
      7 C         -27.4478    0.3799   26.7122 C.2     1  UNL1        0.2690
      8 N         -26.0871    0.2156   26.7405 N.am    1  UNL1       -0.1754
      9 C         -25.2278    1.0917   27.3339 C.ar    1  UNL1        0.0759
     10 C         -23.8780    0.6884   27.6098 C.ar    1  UNL1        0.0462
     11 C         -22.8180    1.5893   27.6381 C.ar    1  UNL1        0.1414
     12 C         -25.5077    2.4612   27.4560 C.ar    1  UNL1        0.0168
     13 C         -24.5156    3.4248   27.7316 C.ar    1  UNL1        0.0036
     14 C         -23.1858    3.0205   27.8175 C.ar    1  UNL1        0.0297
     15 O         -27.9883    0.6426   25.6965 O.2     1  UNL1       -0.2680
     16 F         -21.6094    1.2709   27.9121 F       1  UNL1       -0.2041
     17 F         -30.4297    2.2723   29.9887 F       1  UNL1       -0.2042
@<TRIPOS>BOND
     1     3     7    1
     2     7     8   am
     3     8     9    1
     4     7    15    2
     5    11    16    1
     6     6    17    1
     7     9    10   ar
     8    10    11   ar
     9    11    14   ar
    10    14    13   ar
    11    13    12   ar
    12    12     9   ar
    13     1     2   ar
    14     2     5   ar
    15     5     6   ar
    16     6     4   ar
    17     4     3   ar
    18     3     1   ar
