@<TRIPOS>MOLECULE
No_2836-gen_results/8p0m/2024-11-26-14-13-15/
 19 22 0 0 0
SMALL
GASTEIGER

@<TRIPOS>ATOM
      1 C         -28.0162   -0.8135   28.8779 C.ar    1  UNL1        0.1357
      2 C         -27.0636   -0.1189   28.6079 C.ar    1  UNL1        0.0196
      3 C         -26.9716    0.7139   27.5060 C.ar    1  UNL1       -0.0007
      4 C         -28.1053    0.7744   26.6421 C.ar    1  UNL1        0.0014
      5 C         -29.2008    0.1044   27.0527 C.ar    1  UNL1        0.0206
      6 C         -29.2096   -0.6029   28.1853 C.ar    1  UNL1        0.0381
      7 C         -30.3702    0.2264   26.1604 C.ar    1  UNL1        0.0814
      8 N         -30.2991    0.2342   24.9383 N.ar    1  UNL1       -0.2438
      9 C         -31.6879    0.0997   26.7606 C.ar    1  UNL1        0.0191
     10 C         -32.7636    0.0836   25.8698 C.ar    1  UNL1        0.0031
     11 C         -31.3039    0.2502   24.0456 C.ar    1  UNL1        0.0988
     12 C         -32.5813    0.1828   24.5534 C.ar    1  UNL1        0.0207
     13 O         -27.8870   -1.5657   30.0637 O.3     1  UNL1       -0.4710
     14 C         -26.9788   -2.5475   30.0156 C.3     1  UNL1        0.2315
     15 C         -25.6128   -2.1553   29.9258 C.2     1  UNL1        0.0167
     16 C         -25.0072   -1.6773   28.7255 C.2     1  UNL1       -0.0185
     17 C         -25.6581   -0.4183   28.2830 C.3     1  UNL1        0.0688
     18 C         -24.7891    0.4525   27.5422 C.2     1  UNL1       -0.0176
     19 C         -25.7877    1.4048   26.8743 C.2     1  UNL1       -0.0041
@<TRIPOS>BOND
     1     5     7    1
     2     1    13    1
     3    13    14    1
     4    14    15    1
     5    15    16    2
     6     2    17    1
     7    16    17    1
     8    17    18    1
     9     3    19    1
    10    18    19    2
    11     1     2   ar
    12     2     3   ar
    13     3     4   ar
    14     4     5   ar
    15     5     6   ar
    16     6     1   ar
    17     7     8   ar
    18     8    11   ar
    19    11    12   ar
    20    12    10   ar
    21    10     9   ar
    22     9     7   ar
