@<TRIPOS>MOLECULE
No_2837-gen_results/8p0m/2024-11-26-14-13-15/
 14 15 0 0 0
SMALL
GASTEIGER

@<TRIPOS>ATOM
      1 C         -28.0162   -0.8135   28.8779 C.ar    1  UNL1        0.0013
      2 C         -27.0636   -0.1190   28.6079 C.ar    1  UNL1        0.0148
      3 C         -25.7647   -0.3897   29.0360 C.ar    1  UNL1        0.0516
      4 C         -25.5296   -1.5302   29.9014 C.ar    1  UNL1        0.0148
      5 C         -26.6888   -2.2893   30.1810 C.ar    1  UNL1        0.0013
      6 C         -27.8727   -1.9508   29.7373 C.ar    1  UNL1        0.0001
      7 N         -24.6273    0.3693   28.7540 N.pl3   1  UNL1       -0.2851
      8 C         -24.5034    1.1490   27.7392 C.ar    1  UNL1        0.0516
      9 C         -23.9648    2.0913   27.5864 C.ar    1  UNL1        0.0148
     10 C         -24.0428    3.0183   26.4314 C.ar    1  UNL1        0.0013
     11 C         -24.9434    2.6318   25.4549 C.ar    1  UNL1        0.0001
     12 C         -25.4978    1.0411   26.6000 C.ar    1  UNL1        0.0148
     13 C         -25.5716    1.7148   25.5903 C.ar    1  UNL1        0.0013
     14 C         -23.9856    0.9474   29.9451 C.3     1  UNL1        0.1173
@<TRIPOS>BOND
     1     3     7    1
     2     7     8    1
     3     7    14    1
     4     1     2   ar
     5     2     3   ar
     6     3     4   ar
     7     4     5   ar
     8     5     6   ar
     9     6     1   ar
    10     8     9   ar
    11     9    10   ar
    12    10    11   ar
    13    11    13   ar
    14    13    12   ar
    15    12     8   ar
