@<TRIPOS>MOLECULE
No_2838-gen_results/8p0m/2024-11-26-14-13-15/
 30 35 0 0 0
SMALL
GASTEIGER

@<TRIPOS>ATOM
      1 O         -28.1229   -1.3353   28.4874 O.2     1  UNL1       -0.2541
      2 C         -27.0637   -0.8242   28.8687 C.2     1  UNL1        0.3329
      3 C         -26.4017   -0.0623   28.6224 C.2     1  UNL1        0.0618
      4 F         -26.4746   -1.7566   29.9709 F       1  UNL1       -0.1586
      5 C         -26.7809    1.0730   27.8517 C.2     1  UNL1       -0.0137
      6 C         -28.0705    1.2551   27.6918 C.3     1  UNL1        0.0332
      7 C         -28.7417    1.9886   28.1324 C.3     1  UNL1        0.0474
      8 C         -28.2000    2.8165   29.2188 C.2     1  UNL1       -0.0259
      9 C         -27.0067    3.4373   28.9474 C.2     1  UNL1       -0.0222
     10 C         -25.7450    2.8959   28.5609 C.3     1  UNL1        0.0723
     11 C         -25.6176    1.7198   28.1115 C.3     1  UNL1        0.1136
     12 C         -24.8276   -0.1861   28.8405 C.2     1  UNL1        0.0004
     13 C         -24.6775    1.8718   26.8660 C.3     1  UNL1        0.0306
     14 C         -23.4581    1.0652   27.2172 C.3     1  UNL1        0.0286
     15 C         -23.6185   -0.1376   27.9971 C.2     1  UNL1       -0.0259
     16 C         -24.2001    3.2751   26.6956 C.3     1  UNL1        0.0037
     17 C         -24.9888    4.0081   27.7065 C.3     1  UNL1        0.0131
     18 C         -25.2066    1.3625   25.5210 C.3     1  UNL1        0.0030
     19 C         -24.8412    2.9026   30.0165 C.3     1  UNL1        0.1488
     20 O         -25.3828    1.6462   29.4183 O.3     1  UNL1       -0.3540
     21 C         -27.0989    4.9883   29.0538 C.ar    1  UNL1       -0.0081
     22 C         -27.5253    5.4706   30.1418 C.ar    1  UNL1       -0.0006
     23 C         -27.4683    6.4588   30.5896 C.ar    1  UNL1       -0.0000
     24 C         -26.9383    7.5826   29.7656 C.ar    1  UNL1       -0.0003
     25 C         -26.4149    7.2225   28.5312 C.ar    1  UNL1       -0.0043
     26 C         -26.4254    5.8329   28.2076 C.ar    1  UNL1       -0.0225
     27 C         -25.7544    5.2648   27.3914 C.3     1  UNL1        0.0268
     28 C         -30.2086    2.3111   27.9219 C.2     1  UNL1       -0.0263
     29 C         -30.9726    2.9603   28.7301 C.2     1  UNL1       -0.0300
     30 C         -32.0353    3.2641   28.8262 C.3     1  UNL1        0.0304
@<TRIPOS>BOND
     1     1     2    2
     2     2     3    1
     3     2     4    1
     4     3     5    2
     5     5     6    1
     6     6     7    1
     7     7     8    1
     8     8     9    2
     9     9    10    1
    10     5    11    1
    11    10    11    1
    12     3    12    1
    13    11    13    1
    14    13    14    1
    15    12    15    2
    16    14    15    1
    17    13    16    1
    18    10    17    1
    19    16    17    1
    20    13    18    1
    21    10    19    1
    22    11    20    1
    23    19    20    1
    24     9    21    1
    25    17    27    1
    26    26    27    1
    27     7    28    1
    28    28    29    2
    29    29    30    1
    30    21    22   ar
    31    22    23   ar
    32    23    24   ar
    33    24    25   ar
    34    25    26   ar
    35    26    21   ar
