@<TRIPOS>MOLECULE
No_2839-gen_results/8p0m/2024-11-26-14-13-15/
 16 16 0 0 0
SMALL
GASTEIGER

@<TRIPOS>ATOM
      1 C         -28.0162   -0.8135   28.8779 C.3     1  UNL1        0.1131
      2 C         -27.0636   -0.1190   28.6079 C.ar    1  UNL1       -0.0130
      3 C         -26.9287    1.1713   29.0083 C.ar    1  UNL1       -0.0036
      4 C         -25.7702    2.0341   28.6884 C.ar    1  UNL1        0.0045
      5 C         -24.7141    1.4431   27.9188 C.ar    1  UNL1        0.0593
      6 C         -24.8590    0.0783   27.5836 C.ar    1  UNL1        0.0045
      7 C         -25.9647   -0.6606   27.9164 C.ar    1  UNL1       -0.0036
      8 C         -28.0422   -1.5426   30.2417 C.2     1  UNL1        0.2462
      9 N         -27.0493   -1.6480   30.8391 N.am    1  UNL1       -0.1966
     10 O         -29.1345   -2.1192   30.5825 O.2     1  UNL1       -0.2730
     11 C         -23.5306    2.1621   27.5677 C.2     1  UNL1        0.2968
     12 N         -22.4080    1.6711   27.2205 N.2     1  UNL1       -0.1025
     13 O         -23.6916    3.4623   27.4365 O.2     1  UNL1       -0.2636
     14 C         -26.9321   -2.5467   32.1428 C.3     1  UNL1        0.1869
     15 C         -27.7669   -1.7039   33.1041 C.2     1  UNL1        0.2309
     16 O         -27.1294   -0.8688   33.7634 O.2     1  UNL1       -0.2863
@<TRIPOS>BOND
     1     1     2    1
     2     1     8    1
     3     8     9   am
     4     8    10    2
     5     5    11    1
     6    11    12    2
     7    11    13    1
     8     9    14    1
     9    14    15    1
    10    15    16    2
    11     2     3   ar
    12     3     4   ar
    13     4     5   ar
    14     5     6   ar
    15     6     7   ar
    16     7     2   ar
