@<TRIPOS>MOLECULE
No_284-gen_results/8p0m/2024-11-26-14-13-15/
 15 16 0 0 0
SMALL
GASTEIGER

@<TRIPOS>ATOM
      1 C         -28.0162   -0.8135   28.8779 C.ar    1  UNL1        0.0000
      2 C         -27.0636   -0.1189   28.6079 C.ar    1  UNL1        0.0001
      3 C         -26.9287    1.1713   29.0083 C.ar    1  UNL1        0.0000
      4 C         -27.9560    1.7411   29.7840 C.ar    1  UNL1        0.0000
      5 C         -29.0569   -0.3271   29.7466 C.ar    1  UNL1        0.0000
      6 C         -28.9828    0.9722   30.1516 C.ar    1  UNL1        0.0000
      7 C         -25.8907   -0.6263   27.7857 C.ar    1  UNL1        0.0029
      8 C         -25.4633    0.1123   26.6815 C.ar    1  UNL1       -0.0042
      9 C         -24.6097   -0.9583   28.5937 C.ar    1  UNL1        0.0422
     10 C         -24.5826   -2.2068   29.2392 C.2     1  UNL1        0.2342
     11 C         -23.5558   -0.1010   28.7713 C.ar    1  UNL1        0.0030
     12 C         -23.2984    0.9369   27.8182 C.ar    1  UNL1       -0.0042
     13 C         -24.3349    1.0669   26.7878 C.ar    1  UNL1       -0.0218
     14 C         -24.1681    2.1869   25.8338 C.3     1  UNL1        0.0310
     15 O         -24.9683   -3.0797   28.9084 O.2     1  UNL1       -0.2831
@<TRIPOS>BOND
     1     2     7    1
     2    13    14    1
     3    10    15    2
     4    10     9    1
     5     7     8   ar
     6     8    13   ar
     7    13    12   ar
     8    12    11   ar
     9    11     9   ar
    10     9     7   ar
    11     1     2   ar
    12     2     3   ar
    13     3     4   ar
    14     4     6   ar
    15     6     5   ar
    16     5     1   ar
