@<TRIPOS>MOLECULE
No_2840-gen_results/8p0m/2024-11-26-14-13-15/
 7 6 0 0 0
SMALL
GASTEIGER

@<TRIPOS>ATOM
      1 C         -28.0162   -0.8135   28.8779 C.2     1  UNL1       -0.0049
      2 C         -27.0636   -0.1190   28.6079 C.2     1  UNL1       -0.0261
      3 C         -26.9716    0.7139   27.5060 C.3     1  UNL1        0.0264
      4 C         -25.8205    1.4909   27.1160 C.3     1  UNL1        0.0093
      5 C         -24.6562    1.4242   27.9180 C.3     1  UNL1        0.0264
      6 C         -24.6847    0.5901   29.0659 C.2     1  UNL1       -0.0261
      7 C         -25.8099   -0.1266   29.3338 C.2     1  UNL1       -0.0049
@<TRIPOS>BOND
     1     1     2    2
     2     2     3    1
     3     3     4    1
     4     4     5    1
     5     5     6    1
     6     6     7    2
