@<TRIPOS>MOLECULE
No_2841-gen_results/8p0m/2024-11-26-14-13-15/
 14 15 0 0 0
SMALL
GASTEIGER

@<TRIPOS>ATOM
      1 C         -28.0162   -0.8135   28.8779 C.ar    1  UNL1        0.0029
      2 C         -28.4690   -0.7850   29.8287 C.ar    1  UNL1        0.0795
      3 C         -27.1356    0.2359   28.5352 C.ar    1  UNL1       -0.0141
      4 C         -26.3351    0.2900   27.2835 C.3     1  UNL1        0.0661
      5 C         -29.3807   -1.9134   30.3549 C.2     1  UNL1        0.3877
      6 C         -28.2295    0.3010   30.9036 C.ar    1  UNL1        0.0066
      7 C         -26.4076   -0.2207   26.3599 C.2     1  UNL1       -0.0177
      8 C         -26.1897    0.4108   25.2229 C.2     1  UNL1       -0.0042
      9 C         -27.4413    1.3250   30.6461 C.ar    1  UNL1       -0.0001
     10 C         -26.7753    1.3285   29.4731 C.ar    1  UNL1       -0.0036
     11 C         -25.3566    1.3058   25.1850 C.2     1  UNL1       -0.0042
     12 C         -25.3196    1.4505   26.9517 C.2     1  UNL1       -0.0177
     13 O         -29.1201   -2.9079   30.5155 O.co2   1  UNL1       -0.2406
     14 O         -30.4653   -1.5008   31.0193 O.co2   1  UNL1       -0.2406
@<TRIPOS>BOND
     1     3     4    1
     2     2     5    1
     3     4     7    1
     4     7     8    2
     5     8    11    1
     6     4    12    1
     7    11    12    2
     8     5    13   ar
     9     5    14   ar
    10     1     2   ar
    11     2     6   ar
    12     6     9   ar
    13     9    10   ar
    14    10     3   ar
    15     3     1   ar
