@<TRIPOS>MOLECULE
No_2842-gen_results/8p0m/2024-11-26-14-13-15/
 35 39 0 0 0
SMALL
GASTEIGER

@<TRIPOS>ATOM
      1 C         -28.0162   -0.8135   28.8779 C.ar    1  UNL1        0.0043
      2 C         -28.4690   -0.7850   29.8287 C.ar    1  UNL1        0.0554
      3 C         -26.5042   -0.7777   28.8766 C.ar    1  UNL1       -0.0038
      4 C         -25.8103   -0.8531   30.1028 C.ar    1  UNL1       -0.0177
      5 C         -27.9906   -0.8916   31.2257 C.ar    1  UNL1        0.0043
      6 C         -26.6042   -0.8676   31.2652 C.ar    1  UNL1       -0.0038
      7 C         -30.0739   -0.8360   29.8615 C.2     1  UNL1        0.2690
      8 O         -30.5608   -0.4417   28.9417 O.2     1  UNL1       -0.2680
      9 N         -30.7486   -1.4028   30.9473 N.am    1  UNL1       -0.1754
     10 C         -32.1750   -1.4682   30.8889 C.ar    1  UNL1        0.0737
     11 C         -32.7835   -2.0405   31.4467 C.ar    1  UNL1        0.0166
     12 C         -34.2955   -2.0689   31.4277 C.ar    1  UNL1        0.0013
     13 C         -34.8439   -1.2012   30.4640 C.ar    1  UNL1        0.0001
     14 C         -34.0049   -0.4631   29.6725 C.ar    1  UNL1        0.0013
     15 C         -32.6784   -0.4694   29.8433 C.ar    1  UNL1        0.0166
     16 C         -36.3254   -1.1620   30.3477 C.ar    1  UNL1        0.0000
     17 C         -37.0375   -2.0716   30.4573 C.ar    1  UNL1        0.0000
     18 C         -38.5139   -1.9941   30.3304 C.ar    1  UNL1        0.0000
     19 C         -38.9997   -0.7202   29.9600 C.ar    1  UNL1        0.0001
     20 C         -38.1565    0.3207   29.7868 C.ar    1  UNL1        0.0022
     21 C         -36.7685    0.2184   29.9725 C.ar    1  UNL1        0.0001
     22 C         -38.6833    1.6634   29.4330 C.ar    1  UNL1        0.0275
     23 C         -39.2863    2.3864   30.3853 C.ar    1  UNL1        0.0022
     24 C         -39.8341    3.6361   30.0626 C.ar    1  UNL1        0.0001
     25 C         -38.4107    2.1223   28.1578 C.ar    1  UNL1        0.1401
     26 C         -38.9471    3.4008   27.8313 C.ar    1  UNL1        0.0296
     27 C         -39.6238    4.1282   28.7567 C.ar    1  UNL1        0.0023
     28 F         -37.7792    1.4699   27.2958 F       1  UNL1       -0.2042
     29 C         -24.3656   -0.7956   30.1462 C.3     1  UNL1        0.0542
     30 C         -23.5949   -0.4719   29.1147 C.ar    1  UNL1        0.0014
     31 C         -22.1605   -0.3365   29.2656 C.ar    1  UNL1        0.0949
     32 N         -21.4942    0.1167   28.1954 N.ar    1  UNL1       -0.2426
     33 C         -22.1190    0.9577   27.3422 C.ar    1  UNL1        0.0989
     34 C         -23.4951    1.1243   27.3111 C.ar    1  UNL1        0.0204
     35 C         -24.2042    0.5079   28.2346 C.ar    1  UNL1       -0.0008
@<TRIPOS>BOND
     1     2     7    1
     2     7     8    2
     3     7     9   am
     4     9    10    1
     5    13    16    1
     6    20    22    1
     7    25    28    1
     8     4    29    1
     9    29    30    1
    10    30    31   ar
    11    31    32   ar
    12    32    33   ar
    13    33    34   ar
    14    34    35   ar
    15    35    30   ar
    16    10    11   ar
    17    11    12   ar
    18    12    13   ar
    19    13    14   ar
    20    14    15   ar
    21    15    10   ar
    22    22    23   ar
    23    23    24   ar
    24    24    27   ar
    25    27    26   ar
    26    26    25   ar
    27    25    22   ar
    28     1     2   ar
    29     2     5   ar
    30     5     6   ar
    31     6     4   ar
    32     4     3   ar
    33     3     1   ar
    34    16    17   ar
    35    17    18   ar
    36    18    19   ar
    37    19    20   ar
    38    20    21   ar
    39    21    16   ar
