@<TRIPOS>MOLECULE
No_2843-gen_results/8p0m/2024-11-26-14-13-15/
 35 38 0 0 0
SMALL
GASTEIGER

@<TRIPOS>ATOM
      1 C         -28.0162   -0.8135   28.8779 C.ar    1  UNL1        0.0023
      2 C         -28.4690   -0.7850   29.8287 C.ar    1  UNL1        0.0795
      3 C         -26.5042   -0.7777   28.8766 C.ar    1  UNL1       -0.0210
      4 C         -25.6540   -0.6597   27.7191 C.3     1  UNL1        0.0546
      5 C         -27.9180   -0.9374   31.1824 C.ar    1  UNL1        0.0062
      6 C         -26.5423   -0.9399   31.2606 C.ar    1  UNL1       -0.0039
      7 C         -25.7832   -0.8935   30.1201 C.ar    1  UNL1       -0.0174
      8 C         -25.2134    0.6923   27.3830 C.ar    1  UNL1        0.0097
      9 C         -23.9202    0.9215   27.7698 C.ar    1  UNL1       -0.0017
     10 C         -23.2576    2.1194   27.2629 C.ar    1  UNL1       -0.0002
     11 C         -23.9322    2.9640   26.4349 C.ar    1  UNL1        0.0023
     12 C         -25.8566    1.4747   26.4320 C.ar    1  UNL1        0.1365
     13 C         -25.2193    2.6095   25.9797 C.ar    1  UNL1        0.0293
     14 C         -24.3655   -0.9777   30.2000 C.3     1  UNL1        0.1005
     15 C         -23.3942   -0.0572   30.4337 C.2     1  UNL1        0.2492
     16 C         -23.8442   -2.3404   29.7230 C.3     1  UNL1        0.0144
     17 C         -30.0709   -0.7796   29.8461 C.2     1  UNL1        0.3877
     18 O         -30.6658    0.1811   30.3846 O.co2   1  UNL1       -0.2406
     19 O         -30.6438   -1.6696   29.2428 O.co2   1  UNL1       -0.2406
     20 F         -26.9916    1.1857   25.9609 F       1  UNL1       -0.2045
     21 N         -23.7510    1.0205   31.1790 N.am    1  UNL1       -0.1776
     22 O         -22.1818   -0.0225   29.9862 O.2     1  UNL1       -0.2726
     23 C         -24.9952    1.2487   31.8025 C.2     1  UNL1        0.0886
     24 C         -25.2010    2.6713   32.3056 C.2     1  UNL1        0.0180
     25 C         -25.9697    3.5127   31.6558 C.ar    1  UNL1        0.0042
     26 C         -26.4043    3.2490   30.4940 C.ar    1  UNL1        0.0002
     27 C         -27.8720    3.4762   30.2015 C.ar    1  UNL1        0.0031
     28 C         -28.2305    4.6293   30.2934 C.ar    1  UNL1        0.0369
     29 C         -27.7090    5.3821   31.4725 C.ar    1  UNL1        0.1389
     30 C         -26.5851    4.8019   32.2322 C.ar    1  UNL1        0.0335
     31 O         -28.2883    6.5346   31.8729 O.3     1  UNL1       -0.4710
     32 C         -27.9601    7.1299   32.8367 C.3     1  UNL1        0.2278
     33 C         -25.9598    5.4889   33.3247 C.2     1  UNL1       -0.0019
     34 C         -26.6839    6.8361   33.6539 C.2     1  UNL1       -0.0006
     35 C         -26.1575    7.6084   34.7331 C.3     1  UNL1        0.0301
@<TRIPOS>BOND
     1     3     4    1
     2     4     8    1
     3     7    14    1
     4    14    15    1
     5    14    16    1
     6     2    17    1
     7    17    18   ar
     8    17    19   ar
     9    12    20    1
    10    15    21   am
    11    15    22    2
    12    21    23    1
    13    23    24    2
    14    24    25    1
    15    29    31    1
    16    31    32    1
    17    30    33    1
    18    32    34    1
    19    33    34    2
    20    34    35    1
    21    25    26   ar
    22    26    27   ar
    23    27    28   ar
    24    28    29   ar
    25    29    30   ar
    26    30    25   ar
    27     1     2   ar
    28     2     5   ar
    29     5     6   ar
    30     6     7   ar
    31     7     3   ar
    32     3     1   ar
    33     8     9   ar
    34     9    10   ar
    35    10    11   ar
    36    11    13   ar
    37    13    12   ar
    38    12     8   ar
