@<TRIPOS>MOLECULE
No_2844-gen_results/8p0m/2024-11-26-14-13-15/
 34 36 0 0 0
SMALL
GASTEIGER

@<TRIPOS>ATOM
      1 C         -28.0162   -0.8135   28.8779 C.ar    1  UNL1        0.0743
      2 C         -28.4690   -0.7850   29.8287 C.2     1  UNL1        0.3415
      3 C         -28.1816    0.4277   28.1134 C.ar    1  UNL1        0.0366
      4 C         -27.4498    0.6435   26.8500 C.ar    1  UNL1        0.1508
      5 C         -26.1815    0.0357   26.7145 C.ar    1  UNL1        0.0847
      6 C         -25.7800   -0.9326   27.6938 C.ar    1  UNL1        0.0099
      7 C         -26.5568   -1.2134   28.7413 C.ar    1  UNL1       -0.0107
      8 O         -28.4904   -1.9180   30.6356 O.3     1  UNL1       -0.4331
      9 O         -29.4439    0.0156   30.3409 O.2     1  UNL1       -0.2449
     10 CL        -25.1520    0.3462   25.4126 Cl      1  UNL1       -0.0799
     11 C         -25.9502   -2.2713   29.5924 C.3     1  UNL1        0.0540
     12 C         -24.9115   -3.0589   29.0918 C.2     1  UNL1        0.0257
     13 C         -23.6508   -2.4947   29.0313 C.2     1  UNL1       -0.0033
     14 C         -25.1465   -4.4274   28.8433 C.3     1  UNL1        0.3375
     15 F         -24.1671   -5.1495   28.4995 F       1  UNL1       -0.1936
     16 F         -26.1514   -5.0362   29.1720 F       1  UNL1       -0.1936
     17 F         -27.8255    1.6954   26.1411 F       1  UNL1       -0.2033
     18 C         -29.0351   -2.2744   31.4992 C.3     1  UNL1        0.3174
     19 C         -29.3732   -3.7442   31.5218 C.2     1  UNL1        0.3666
     20 O         -29.0375   -4.4252   30.6604 O.2     1  UNL1       -0.2455
     21 O         -30.0482   -4.2938   32.4889 O.3     1  UNL1       -0.4207
     22 C         -31.0112   -5.1819   32.3310 C.ar    1  UNL1        0.1590
     23 C         -32.0061   -5.0933   31.5354 C.ar    1  UNL1        0.0385
     24 C         -32.6936   -6.1420   31.1798 C.ar    1  UNL1        0.0031
     25 C         -32.4949   -7.4165   31.7861 C.ar    1  UNL1        0.0011
     26 C         -31.4029   -7.5843   32.6558 C.ar    1  UNL1        0.0145
     27 C         -30.5471   -6.4730   32.9555 C.ar    1  UNL1        0.0922
     28 CL        -29.2350   -6.6275   33.9579 Cl      1  UNL1       -0.0791
     29 C         -33.9683   -6.0386   30.3588 C.ar    1  UNL1        0.0001
     30 C         -34.7250   -5.1592   30.5311 C.ar    1  UNL1        0.0000
     31 C         -35.9083   -4.9343   29.6619 C.ar    1  UNL1        0.0000
     32 C         -36.0809   -5.8737   28.6656 C.ar    1  UNL1        0.0000
     33 C         -35.1910   -6.8759   28.4571 C.ar    1  UNL1        0.0000
     34 C         -34.0918   -6.9753   29.2745 C.ar    1  UNL1        0.0000
@<TRIPOS>BOND
     1     1     2    1
     2     2     8    1
     3     2     9    2
     4     5    10    1
     5     7    11    1
     6    11    12    1
     7    12    13    2
     8    12    14    1
     9    14    15    1
    10    14    16    1
    11     4    17    1
    12     8    18    1
    13    18    19    1
    14    19    20    2
    15    19    21    1
    16    21    22    1
    17    27    28    1
    18    24    29    1
    19    29    30   ar
    20    30    31   ar
    21    31    32   ar
    22    32    33   ar
    23    33    34   ar
    24    34    29   ar
    25    22    23   ar
    26    23    24   ar
    27    24    25   ar
    28    25    26   ar
    29    26    27   ar
    30    27    22   ar
    31     1     3   ar
    32     3     4   ar
    33     4     5   ar
    34     5     6   ar
    35     6     7   ar
    36     7     1   ar
