@<TRIPOS>MOLECULE
No_2845-gen_results/8p0m/2024-11-26-14-13-15/
 19 19 0 0 0
SMALL
GASTEIGER

@<TRIPOS>ATOM
      1 C         -28.0162   -0.8135   28.8779 C.ar    1  UNL1       -0.0046
      2 C         -28.4690   -0.7850   29.8287 C.ar    1  UNL1       -0.0003
      3 C         -26.5042   -0.7777   28.8766 C.ar    1  UNL1       -0.0255
      4 C         -25.8103   -0.8531   30.1028 C.ar    1  UNL1       -0.0221
      5 C         -27.9906   -0.8916   31.2257 C.ar    1  UNL1       -0.0003
      6 C         -24.3976   -0.8364   30.1775 C.3     1  UNL1        0.0480
      7 C         -26.5754   -0.8899   31.2661 C.ar    1  UNL1       -0.0043
      8 C         -23.7964    0.4357   29.9090 C.2     1  UNL1       -0.0397
      9 C         -22.4944    0.4757   29.3633 C.2     1  UNL1       -0.0340
     10 C         -21.9370    1.6932   28.9178 C.3     1  UNL1        0.0254
     11 C         -24.3775    1.6726   30.3250 C.3     1  UNL1        0.0480
     12 C         -25.5867    1.6901   31.0763 C.2     1  UNL1       -0.0218
     13 C         -26.0347    3.0756   31.4254 C.2     1  UNL1       -0.0046
     14 C         -27.0112    3.2510   32.3696 C.2     1  UNL1       -0.0049
     15 C         -22.3007    1.9294   27.5912 C.3     1  UNL1        0.0050
     16 C         -25.7059   -0.6171   27.6383 C.3     1  UNL1        0.0307
     17 C         -27.5459    4.5113   32.5522 C.2     1  UNL1       -0.0261
     18 C         -27.0644    5.6169   31.8240 C.3     1  UNL1        0.0260
     19 C         -27.6195    6.8996   31.9532 C.3     1  UNL1        0.0050
@<TRIPOS>BOND
     1     4     6    1
     2     6     8    1
     3     8     9    2
     4     9    10    1
     5     8    11    1
     6    11    12    1
     7    12    13    2
     8    13    14    1
     9    10    15    1
    10     3    16    1
    11    14    17    2
    12    17    18    1
    13    18    19    1
    14     1     2   ar
    15     2     5   ar
    16     5     7   ar
    17     7     4   ar
    18     4     3   ar
    19     3     1   ar
