@<TRIPOS>MOLECULE
No_2846-gen_results/8p0m/2024-11-26-14-13-15/
 8 8 0 0 0
SMALL
GASTEIGER

@<TRIPOS>ATOM
      1 C         -28.0162   -0.8135   28.8779 C.ar    1  UNL1        0.0103
      2 C         -28.4690   -0.7850   29.8287 C.ar    1  UNL1        0.0684
      3 C         -27.1356    0.2359   28.5352 C.ar    1  UNL1        0.0007
      4 C         -26.8050    1.0509   29.2763 C.ar    1  UNL1        0.0000
      5 C         -29.4120   -1.8886   30.3141 C.1     1  UNL1        0.1004
      6 C         -27.3211    1.1276   30.6065 C.ar    1  UNL1        0.0007
      7 C         -28.1972    0.0819   30.9803 C.ar    1  UNL1        0.0103
      8 N         -29.6684   -2.8943   30.2043 N.1     1  UNL1       -0.1908
@<TRIPOS>BOND
     1     2     5    1
     2     5     8    3
     3     1     2   ar
     4     2     7   ar
     5     7     6   ar
     6     6     4   ar
     7     4     3   ar
     8     3     1   ar
