@<TRIPOS>MOLECULE
No_2847-gen_results/8p0m/2024-11-26-14-13-15/
 19 22 0 0 0
SMALL
GASTEIGER

@<TRIPOS>ATOM
      1 C         -28.0162   -0.8135   28.8779 C.ar    1  UNL1        0.0989
      2 C         -27.0636   -0.1189   28.6079 C.ar    1  UNL1        0.0188
      3 C         -25.7647   -0.3897   29.0360 C.ar    1  UNL1        0.0015
      4 C         -24.5516    0.4058   28.7646 C.ar    1  UNL1       -0.0003
      5 C         -24.6957    1.4480   27.7988 C.ar    1  UNL1       -0.0040
      6 C         -25.9755    1.7250   27.3077 C.ar    1  UNL1       -0.0218
      7 C         -27.0718    1.0134   27.6535 C.ar    1  UNL1       -0.0027
      8 N         -29.1869   -0.1649   29.1026 N.ar    1  UNL1       -0.2407
      9 C         -23.4964    2.1689   27.4760 C.ar    1  UNL1       -0.0003
     10 C         -22.2362    1.6392   27.8619 C.ar    1  UNL1       -0.0000
     11 C         -22.1862    0.6201   28.8290 C.ar    1  UNL1       -0.0000
     12 C         -23.3020   -0.0988   29.2079 C.ar    1  UNL1       -0.0000
     13 C         -29.9304   -0.3781   30.0946 C.ar    1  UNL1        0.1195
     14 C         -29.8312   -1.6291   30.7643 C.ar    1  UNL1        0.1195
     15 N         -28.7269   -2.3109   30.6392 N.ar    1  UNL1       -0.2407
     16 C         -27.7472   -1.8106   29.9670 C.ar    1  UNL1        0.0989
     17 C         -26.3589   -2.3037   30.1124 C.ar    1  UNL1        0.0206
     18 C         -25.4805   -1.5020   29.8670 C.ar    1  UNL1        0.0016
     19 C         -26.1397    2.9373   26.4546 C.3     1  UNL1        0.0310
@<TRIPOS>BOND
     1     6    19    1
     2     3     4   ar
     3     5     6   ar
     4     6     7   ar
     5     7     2   ar
     6     1     8   ar
     7     8    13   ar
     8    13    14   ar
     9    14    15   ar
    10    15    16   ar
    11     4     5   ar
    12     5     9   ar
    13     9    10   ar
    14    10    11   ar
    15    11    12   ar
    16    12     4   ar
    17     1     2   ar
    18     2     3   ar
    19     3    18   ar
    20    18    17   ar
    21    17    16   ar
    22    16     1   ar
