@<TRIPOS>MOLECULE
No_2848-gen_results/8p0m/2024-11-26-14-13-15/
 19 20 0 0 0
SMALL
GASTEIGER

@<TRIPOS>ATOM
      1 C         -28.0162   -0.8135   28.8779 C.ar    1  UNL1        0.0547
      2 C         -27.0636   -0.1189   28.6079 C.ar    1  UNL1        0.0006
      3 C         -26.9716    0.7139   27.5060 C.ar    1  UNL1       -0.0183
      4 C         -28.1053    0.7744   26.6421 C.ar    1  UNL1       -0.0001
      5 C         -29.2008    0.1044   27.0527 C.ar    1  UNL1        0.0713
      6 C         -28.0219   -1.5899   30.0879 C.2     1  UNL1        0.2648
      7 C         -29.1640   -0.6394   28.1484 C.ar    1  UNL1        0.0084
      8 N         -28.8376   -1.8977   30.7662 N.am    1  UNL1       -0.1998
      9 O         -26.7856   -1.9477   30.5474 O.2     1  UNL1       -0.2684
     10 C         -28.8380   -2.8804   31.8973 C.3     1  UNL1        0.1388
     11 C         -30.3883    0.2139   26.1798 C.3     1  UNL1        0.4186
     12 F         -30.9482    1.1289   26.2711 F       1  UNL1       -0.1659
     13 F         -31.1852   -0.8422   26.5529 F       1  UNL1       -0.1659
     14 F         -30.0670   -0.1140   24.9048 F       1  UNL1       -0.1659
     15 C         -25.7002    1.4018   27.0774 C.3     1  UNL1        0.0443
     16 C         -24.5766    0.9664   27.5728 C.2     1  UNL1       -0.0266
     17 C         -23.3666    1.7321   27.4337 C.2     1  UNL1       -0.0304
     18 C         -23.4727    2.6735   26.3836 C.3     1  UNL1        0.0264
     19 C         -25.2308    2.5563   26.2871 C.3     1  UNL1        0.0134
@<TRIPOS>BOND
     1     1     6    1
     2     6     8   am
     3     6     9    2
     4     8    10    1
     5     5    11    1
     6    11    12    1
     7    11    13    1
     8    11    14    1
     9     3    15    1
    10    15    16    1
    11    16    17    2
    12    17    18    1
    13    15    19    1
    14    18    19    1
    15     1     2   ar
    16     2     3   ar
    17     3     4   ar
    18     4     5   ar
    19     5     7   ar
    20     7     1   ar
