@<TRIPOS>MOLECULE
No_2850-gen_results/8p0m/2024-11-26-14-13-15/
 22 24 0 0 0
SMALL
GASTEIGER

@<TRIPOS>ATOM
      1 C         -28.0162   -0.8135   28.8779 C.ar    1  UNL1        0.0160
      2 C         -27.0636   -0.1189   28.6079 C.ar    1  UNL1        0.0578
      3 C         -25.7647   -0.3897   29.0360 C.ar    1  UNL1        0.0106
      4 C         -25.4887   -1.1536   29.7171 C.ar    1  UNL1        0.0010
      5 C         -27.7606   -1.9034   29.8572 C.ar    1  UNL1        0.0562
      6 C         -26.4781   -2.1057   30.2362 C.ar    1  UNL1        0.0046
      7 C         -28.7676   -2.8171   30.3438 C.2     1  UNL1        0.2690
      8 O         -28.5723   -4.0383   30.4045 O.2     1  UNL1       -0.2680
      9 N         -29.9624   -2.3461   30.7489 N.am    1  UNL1       -0.1754
     10 C         -31.0161   -3.2462   31.2249 C.ar    1  UNL1        0.0737
     11 CL        -27.3531    1.2129   27.4605 Cl      1  UNL1       -0.0822
     12 C         -32.0465   -2.6257   31.5847 C.ar    1  UNL1        0.0166
     13 C         -33.1183   -3.2282   32.0804 C.ar    1  UNL1        0.0013
     14 C         -33.0676   -4.6842   32.1620 C.ar    1  UNL1        0.0001
     15 C         -31.9190   -5.3358   31.7578 C.ar    1  UNL1        0.0013
     16 C         -30.8287   -4.6153   31.3247 C.ar    1  UNL1        0.0166
     17 C         -24.4771    0.4633   28.5168 C.ar    1  UNL1        0.0008
     18 C         -24.3505    1.2183   27.5143 C.ar    1  UNL1        0.0000
     19 C         -23.1343    1.8024   27.1783 C.ar    1  UNL1        0.0000
     20 C         -21.9614    1.5385   27.9499 C.ar    1  UNL1        0.0000
     21 C         -23.2274    0.2090   29.2436 C.ar    1  UNL1        0.0000
     22 C         -22.0173    0.7706   28.9513 C.ar    1  UNL1        0.0000
@<TRIPOS>BOND
     1     5     7    1
     2     7     8    2
     3     7     9   am
     4     9    10    1
     5     2    11    1
     6     3    17    1
     7    17    18   ar
     8    18    19   ar
     9    19    20   ar
    10    20    22   ar
    11    22    21   ar
    12    21    17   ar
    13     1     2   ar
    14     2     3   ar
    15     3     4   ar
    16     4     6   ar
    17     6     5   ar
    18     5     1   ar
    19    10    12   ar
    20    12    13   ar
    21    13    14   ar
    22    14    15   ar
    23    15    16   ar
    24    16    10   ar
