@<TRIPOS>MOLECULE
No_2851-gen_results/8p0m/2024-11-26-14-13-15/
 15 17 0 0 0
SMALL
GASTEIGER

@<TRIPOS>ATOM
      1 C         -28.0162   -0.8135   28.8779 C.ar    1  UNL1       -0.0003
      2 C         -27.0636   -0.1190   28.6079 C.ar    1  UNL1       -0.0042
      3 C         -25.7923   -0.4302   29.0761 C.ar    1  UNL1       -0.0217
      4 C         -25.5681   -1.2411   29.7572 C.ar    1  UNL1       -0.0255
      5 C         -24.2377   -1.6686   30.3647 C.3     1  UNL1        0.0307
      6 C         -27.8484   -1.8924   29.8409 C.ar    1  UNL1       -0.0003
      7 C         -26.5621   -2.1768   30.2392 C.ar    1  UNL1       -0.0046
      8 C         -23.1907   -1.7440   29.4411 C.3     1  UNL1        0.0307
      9 C         -22.4896   -0.4559   29.1904 C.ar    1  UNL1       -0.0255
     10 C         -21.3722   -0.1719   29.2246 C.ar    1  UNL1       -0.0046
     11 C         -20.7943    1.0477   28.6278 C.ar    1  UNL1       -0.0003
     12 C         -21.7285    1.8903   27.9055 C.ar    1  UNL1       -0.0003
     13 C         -23.0476    1.5457   27.8491 C.ar    1  UNL1       -0.0042
     14 C         -23.4515    0.4233   28.4238 C.ar    1  UNL1       -0.0217
     15 C         -24.9064    0.1790   28.5546 C.3     1  UNL1        0.0520
@<TRIPOS>BOND
     1     4     5    1
     2     5     8    1
     3     8     9    1
     4     3    15    1
     5    14    15    1
     6     9    10   ar
     7    10    11   ar
     8    11    12   ar
     9    12    13   ar
    10    13    14   ar
    11    14     9   ar
    12     1     2   ar
    13     2     3   ar
    14     3     4   ar
    15     4     7   ar
    16     7     6   ar
    17     6     1   ar
