@<TRIPOS>MOLECULE
No_2852-gen_results/8p0m/2024-11-26-14-13-15/
 13 13 0 0 0
SMALL
GASTEIGER

@<TRIPOS>ATOM
      1 F         -28.0727   -1.2542   28.5316 F       1  UNL1       -0.1905
      2 C         -27.3591   -0.3792   28.7224 C.3     1  UNL1        0.3681
      3 F         -26.3180   -0.6608   29.1159 F       1  UNL1       -0.1905
      4 C         -27.9301    0.6892   29.6024 C.3     1  UNL1        0.3248
      5 C         -27.1711    0.2908   27.2968 C.2     1  UNL1        0.2161
      6 F         -28.0689    0.2159   30.6975 F       1  UNL1       -0.1979
      7 C         -27.0181    1.8630   29.7738 C.3     1  UNL1        0.0627
      8 C         -26.9204    2.7082   28.5670 C.3     1  UNL1        0.0134
      9 C         -26.2893    1.5671   27.3641 C.3     1  UNL1        0.0706
     10 F         -29.1006    1.0561   29.0920 F       1  UNL1       -0.1979
     11 O         -27.5607   -0.0468   26.1950 O.2     1  UNL1       -0.2902
     12 C         -25.6168    1.5218   30.3208 C.3     1  UNL1        0.0057
     13 C         -27.6377    2.9013   30.7851 C.3     1  UNL1        0.0057
@<TRIPOS>BOND
     1     1     2    1
     2     2     3    1
     3     2     4    1
     4     2     5    1
     5     4     6    1
     6     4     7    1
     7     7     8    1
     8     5     9    1
     9     8     9    1
    10     4    10    1
    11     5    11    2
    12     7    12    1
    13     7    13    1
