@<TRIPOS>MOLECULE
No_2853-gen_results/8p0m/2024-11-26-14-13-15/
 12 12 0 0 0
SMALL
GASTEIGER

@<TRIPOS>ATOM
      1 C         -28.0162   -0.8135   28.8779 C.ar    1  UNL1        0.0001
      2 C         -28.4690   -0.7850   29.8287 C.ar    1  UNL1        0.0000
      3 C         -26.6028   -1.0596   28.5384 C.ar    1  UNL1        0.0046
      4 C         -25.7969   -1.4490   29.7273 C.ar    1  UNL1        0.0554
      5 C         -26.4284   -1.5407   30.9833 C.ar    1  UNL1        0.0046
      6 C         -27.7564   -1.2444   31.0750 C.ar    1  UNL1        0.0001
      7 C         -24.3922   -1.7399   29.5644 C.2     1  UNL1        0.2687
      8 N         -23.3469   -1.1655   29.7936 N.am    1  UNL1       -0.1798
      9 C         -23.3717    0.0005   30.5078 C.2     1  UNL1        0.0518
     10 O         -24.2280   -3.0338   29.0487 O.2     1  UNL1       -0.2680
     11 C         -22.7317    1.2497   29.8453 C.2     1  UNL1        0.0132
     12 C         -23.8839    0.1191   31.8439 C.3     1  UNL1        0.0493
@<TRIPOS>BOND
     1     4     7    1
     2     7     8   am
     3     8     9    1
     4     7    10    2
     5     9    11    2
     6     9    12    1
     7     1     2   ar
     8     2     6   ar
     9     6     5   ar
    10     5     4   ar
    11     4     3   ar
    12     3     1   ar
