@<TRIPOS>MOLECULE
No_2854-gen_results/8p0m/2024-11-26-14-13-15/
 17 18 0 0 0
SMALL
GASTEIGER

@<TRIPOS>ATOM
      1 C         -28.0162   -0.8135   28.8779 C.ar    1  UNL1        0.0148
      2 C         -28.4690   -0.7850   29.8287 C.ar    1  UNL1        0.0518
      3 C         -26.5042   -0.7777   28.8766 C.ar    1  UNL1        0.0013
      4 C         -25.8103   -0.8531   30.1028 C.ar    1  UNL1        0.0001
      5 C         -27.9906   -0.8916   31.2257 C.ar    1  UNL1        0.0148
      6 C         -26.6042   -0.8676   31.2652 C.ar    1  UNL1        0.0013
      7 N         -29.9765   -0.8288   29.8497 N.pl3   1  UNL1       -0.2825
      8 C         -30.7392   -1.6442   30.3465 C.ar    1  UNL1        0.0518
      9 C         -31.3713   -2.3649   30.0343 C.ar    1  UNL1        0.0148
     10 C         -32.1698   -3.4142   30.7667 C.ar    1  UNL1        0.0013
     11 C         -31.9906   -3.3570   32.1474 C.ar    1  UNL1        0.0001
     12 C         -31.1398   -2.5060   32.7169 C.ar    1  UNL1        0.0013
     13 C         -30.3999   -1.6387   31.9457 C.ar    1  UNL1        0.0148
     14 C         -30.5688    0.1726   28.9778 C.3     1  UNL1        0.1215
     15 C         -31.2103    1.1158   29.5349 C.2     1  UNL1       -0.0090
     16 C         -31.0089    1.8564   30.3463 C.2     1  UNL1       -0.0286
     17 C         -31.8141    2.9664   30.8746 C.3     1  UNL1        0.0304
@<TRIPOS>BOND
     1     2     7    1
     2     7     8    1
     3     7    14    1
     4    14    15    1
     5    15    16    2
     6    16    17    1
     7     8     9   ar
     8     9    10   ar
     9    10    11   ar
    10    11    12   ar
    11    12    13   ar
    12    13     8   ar
    13     1     2   ar
    14     2     5   ar
    15     5     6   ar
    16     6     4   ar
    17     4     3   ar
    18     3     1   ar
