@<TRIPOS>MOLECULE
No_2855-gen_results/8p0m/2024-11-26-14-13-15/
 16 17 0 0 0
SMALL
GASTEIGER

@<TRIPOS>ATOM
      1 C         -28.0162   -0.8135   28.8779 C.ar    1  UNL1        0.0032
      2 C         -28.4690   -0.7850   29.8287 C.ar    1  UNL1        0.0001
      3 C         -27.1356    0.2359   28.5352 C.ar    1  UNL1        0.0390
      4 C         -26.8745    1.2825   29.3982 C.ar    1  UNL1        0.0032
      5 C         -28.3613    0.1987   30.9244 C.ar    1  UNL1        0.0000
      6 C         -27.5277    1.2234   30.6356 C.ar    1  UNL1        0.0001
      7 C         -26.3879    0.2914   27.2334 C.2     1  UNL1        0.1955
      8 C         -25.1510    0.3034   27.2565 C.ar    1  UNL1        0.0391
      9 C         -24.4003    0.9473   26.1454 C.ar    1  UNL1        0.0032
     10 C         -23.0443    1.2950   26.2840 C.ar    1  UNL1        0.0002
     11 C         -22.3647    1.0314   27.5108 C.ar    1  UNL1        0.0033
     12 C         -23.1141    0.4233   28.5657 C.ar    1  UNL1        0.0423
     13 C         -24.4445    0.1500   28.4732 C.ar    1  UNL1        0.0065
     14 O         -27.1600    0.5395   26.2269 O.2     1  UNL1       -0.2866
     15 C         -22.2888    0.2100   29.7981 C.2     1  UNL1        0.2342
     16 O         -22.3608   -0.8256   30.2592 O.2     1  UNL1       -0.2831
@<TRIPOS>BOND
     1     3     7    1
     2     7     8    1
     3     7    14    2
     4    12    15    1
     5    15    16    2
     6     8     9   ar
     7     9    10   ar
     8    10    11   ar
     9    11    12   ar
    10    12    13   ar
    11    13     8   ar
    12     1     2   ar
    13     2     5   ar
    14     5     6   ar
    15     6     4   ar
    16     4     3   ar
    17     3     1   ar
