@<TRIPOS>MOLECULE
No_2858-gen_results/8p0m/2024-11-26-14-13-15/
 29 33 0 0 0
SMALL
GASTEIGER

@<TRIPOS>ATOM
      1 N         -28.0544   -1.0498   28.7246 N.ar    1  UNL1       -0.2454
      2 C         -27.7460   -0.0733   29.0098 C.ar    1  UNL1        0.0809
      3 C         -27.1737    0.7565   28.1070 C.ar    1  UNL1        0.0137
      4 C         -26.5770    2.0960   28.3920 C.ar    1  UNL1       -0.0207
      5 C         -26.5762    2.4337   29.7569 C.ar    1  UNL1       -0.0042
      6 C         -27.0953    1.5387   30.7175 C.ar    1  UNL1        0.0012
      7 C         -27.5988    0.3077   30.4002 C.ar    1  UNL1        0.0177
      8 C         -28.6506   -1.8727   29.8028 C.ar    1  UNL1        0.0812
      9 C         -29.0773   -3.2385   29.4921 C.ar    1  UNL1        0.0191
     10 C         -28.6290   -1.5168   31.1559 C.ar    1  UNL1        0.0177
     11 C         -28.1018   -0.4261   31.4673 C.ar    1  UNL1        0.0030
     12 C         -29.2923   -4.1470   30.6250 C.ar    1  UNL1        0.0015
     13 C         -29.3869   -3.7541   31.9021 C.ar    1  UNL1        0.0001
     14 C         -28.9731   -2.5032   32.1874 C.ar    1  UNL1        0.0015
     15 C         -27.1490    0.4835   26.6367 C.ar    1  UNL1        0.0011
     16 C         -28.0271    0.9369   25.8093 C.ar    1  UNL1        0.0000
     17 C         -28.0692    0.4248   24.5207 C.ar    1  UNL1        0.0000
     18 C         -27.1332   -0.6476   24.1933 C.ar    1  UNL1        0.0000
     19 C         -26.1242   -0.9342   25.0808 C.ar    1  UNL1        0.0000
     20 C         -26.1200   -0.4691   26.3570 C.ar    1  UNL1        0.0000
     21 C         -26.0423    2.9913   27.4171 C.3     1  UNL1        0.0268
     22 C         -25.0283    2.8804   26.9964 C.3     1  UNL1        0.0323
     23 C         -23.9032    2.5032   26.9877 C.ar    1  UNL1       -0.0027
     24 C         -23.2695    1.9395   28.1864 C.ar    1  UNL1       -0.0011
     25 C         -21.9315    1.3861   28.1472 C.ar    1  UNL1        0.0204
     26 C         -26.8358    4.1879   27.5769 C.3     1  UNL1        0.0050
     27 C         -22.8953    2.3044   25.9096 C.ar    1  UNL1        0.0946
     28 N         -21.7335    1.9228   25.9346 N.ar    1  UNL1       -0.2426
     29 C         -21.1755    1.4711   27.0832 C.ar    1  UNL1        0.0989
@<TRIPOS>BOND
     1     3    15    1
     2     4    21    1
     3    21    22    1
     4    21    26    1
     5    22    23    1
     6    15    16   ar
     7    16    17   ar
     8    17    18   ar
     9    18    19   ar
    10    19    20   ar
    11    20    15   ar
    12     8     9   ar
    13     9    12   ar
    14    12    13   ar
    15    13    14   ar
    16    14    10   ar
    17    23    24   ar
    18    24    25   ar
    19    25    29   ar
    20    29    28   ar
    21    28    27   ar
    22    27    23   ar
    23     2     3   ar
    24     3     4   ar
    25     4     5   ar
    26     5     6   ar
    27     6     7   ar
    28     1     2   ar
    29     2     7   ar
    30     7    11   ar
    31    11    10   ar
    32    10     8   ar
    33     8     1   ar
