@<TRIPOS>MOLECULE
No_286-gen_results/8p0m/2024-11-26-14-13-15/
 12 12 0 0 0
SMALL
GASTEIGER

@<TRIPOS>ATOM
      1 C         -28.0162   -0.8135   28.8779 C.ar    1  UNL1       -0.0039
      2 C         -28.4690   -0.7850   29.8287 C.ar    1  UNL1       -0.0003
      3 C         -27.0871    0.2903   28.6377 C.ar    1  UNL1       -0.0178
      4 C         -26.9102    0.8486   27.4199 C.3     1  UNL1        0.0523
      5 C         -27.8863   -0.5049   31.0944 C.ar    1  UNL1       -0.0000
      6 C         -26.9294    0.5930   31.0741 C.ar    1  UNL1       -0.0003
      7 C         -26.5225    0.9550   29.8008 C.ar    1  UNL1       -0.0039
      8 C         -25.7212    0.5056   26.8627 C.2     1  UNL1       -0.0214
      9 C         -24.6320    1.1945   27.0059 C.2     1  UNL1       -0.0046
     10 C         -23.8647    1.4823   28.0879 C.2     1  UNL1       -0.0049
     11 C         -22.6287    2.1383   28.0157 C.2     1  UNL1       -0.0258
     12 C         -22.0581    2.3014   26.7068 C.3     1  UNL1        0.0307
@<TRIPOS>BOND
     1     3     4    1
     2     4     8    1
     3     8     9    2
     4     9    10    1
     5    10    11    2
     6    11    12    1
     7     1     2   ar
     8     2     5   ar
     9     5     6   ar
    10     6     7   ar
    11     7     3   ar
    12     3     1   ar
