@<TRIPOS>MOLECULE
No_2860-gen_results/8p0m/2024-11-26-14-13-15/
 16 17 0 0 0
SMALL
GASTEIGER

@<TRIPOS>ATOM
      1 C         -28.0162   -0.8135   28.8779 C.3     1  UNL1        0.0475
      2 C         -27.0636   -0.1190   28.6079 C.ar    1  UNL1       -0.0228
      3 C         -26.8756    1.1325   28.9134 C.ar    1  UNL1       -0.0061
      4 C         -25.6883    1.9515   28.5672 C.ar    1  UNL1        0.0037
      5 C         -24.6394    1.2834   27.8753 C.ar    1  UNL1        0.0795
      6 C         -24.8068   -0.0513   27.6040 C.ar    1  UNL1        0.0062
      7 C         -25.9019   -0.7670   27.9511 C.ar    1  UNL1       -0.0043
      8 C         -28.6392   -0.5118   30.2403 C.3     1  UNL1        0.0958
      9 N         -28.9296    0.7781   30.4465 N.pl3   1  UNL1       -0.3025
     10 C         -27.7421    1.6291   30.1100 C.3     1  UNL1        0.1174
     11 C         -30.0629    1.3392   30.9197 C.2     1  UNL1        0.0570
     12 C         -23.4775    1.9964   27.3697 C.2     1  UNL1        0.3877
     13 O         -22.3356    1.6992   27.7199 O.co2   1  UNL1       -0.2406
     14 O         -23.7137    3.2244   26.9077 O.co2   1  UNL1       -0.2406
     15 C         -31.0860    1.3045   30.4371 C.2     1  UNL1       -0.0100
     16 C         -32.2845    1.8654   30.9653 C.3     1  UNL1        0.0321
@<TRIPOS>BOND
     1     1     8    1
     2     8     9    1
     3     3    10    1
     4     9    10    1
     5     9    11    1
     6     5    12    1
     7    12    13   ar
     8    12    14   ar
     9    11    15    2
    10    15    16    1
    11     1     2    1
    12     2     3   ar
    13     3     4   ar
    14     4     5   ar
    15     5     6   ar
    16     6     7   ar
    17     7     2   ar
