@<TRIPOS>MOLECULE
No_2861-gen_results/8p0m/2024-11-26-14-13-15/
 18 19 0 0 0
SMALL
GASTEIGER

@<TRIPOS>ATOM
      1 C         -28.0162   -0.8135   28.8779 C.ar    1  UNL1        0.0026
      2 C         -28.4690   -0.7850   29.8287 C.ar    1  UNL1        0.0795
      3 C         -26.5042   -0.7777   28.8766 C.ar    1  UNL1       -0.0175
      4 C         -25.6540   -0.6597   27.7191 C.3     1  UNL1        0.0557
      5 C         -27.9180   -0.9374   31.1824 C.ar    1  UNL1        0.0066
      6 C         -26.5423   -0.9399   31.2606 C.ar    1  UNL1       -0.0001
      7 C         -25.7832   -0.8935   30.1201 C.ar    1  UNL1       -0.0039
      8 C         -25.2204    0.6866   27.3939 C.ar    1  UNL1        0.0162
      9 C         -23.9014    0.8981   27.7598 C.ar    1  UNL1        0.1350
     10 C         -23.2620    2.1173   27.2513 C.ar    1  UNL1        0.0366
     11 C         -23.9515    2.9749   26.4625 C.ar    1  UNL1        0.0031
     12 C         -25.8717    1.4893   26.4729 C.ar    1  UNL1       -0.0009
     13 C         -25.2452    2.6238   26.0239 C.ar    1  UNL1       -0.0001
     14 C         -30.0570   -0.7970   29.8510 C.2     1  UNL1        0.3877
     15 O         -30.7276   -1.6072   30.2988 O.co2   1  UNL1       -0.2406
     16 O         -30.5646    0.2040   29.2009 O.co2   1  UNL1       -0.2406
     17 O         -23.1504    0.1895   28.5980 O.3     1  UNL1       -0.4717
     18 C         -22.2621    0.7652   29.5553 C.3     1  UNL1        0.2525
@<TRIPOS>BOND
     1     3     4    1
     2     4     8    1
     3     2    14    1
     4    14    15   ar
     5    14    16   ar
     6     9    17    1
     7    17    18    1
     8     1     2   ar
     9     2     5   ar
    10     5     6   ar
    11     6     7   ar
    12     7     3   ar
    13     3     1   ar
    14     8     9   ar
    15     9    10   ar
    16    10    11   ar
    17    11    13   ar
    18    13    12   ar
    19    12     8   ar
