@<TRIPOS>MOLECULE
No_2862-gen_results/8p0m/2024-11-26-14-13-15/
 19 21 0 0 0
SMALL
GASTEIGER

@<TRIPOS>ATOM
      1 C         -28.0162   -0.8135   28.8779 C.ar    1  UNL1       -0.0027
      2 C         -28.4690   -0.7850   29.8287 C.ar    1  UNL1       -0.0002
      3 C         -27.1356    0.2359   28.5352 C.ar    1  UNL1       -0.0041
      4 C         -26.3351    0.2900   27.2835 C.3     1  UNL1        0.0551
      5 C         -28.3692    0.1957   30.9236 C.ar    1  UNL1        0.0013
      6 C         -27.5158    1.2655   30.6540 C.ar    1  UNL1        0.0145
      7 C         -26.8411    1.2942   29.4761 C.ar    1  UNL1        0.0479
      8 C         -25.6774    1.5199   26.9774 C.ar    1  UNL1       -0.0041
      9 C         -24.6512    1.5543   26.2096 C.ar    1  UNL1       -0.0027
     10 C         -23.8845    2.8925   26.0981 C.ar    1  UNL1       -0.0002
     11 C         -24.3714    4.0011   26.8162 C.ar    1  UNL1        0.0013
     12 C         -25.5145    3.8796   27.5451 C.ar    1  UNL1        0.0145
     13 C         -26.1261    2.6351   27.7527 C.ar    1  UNL1        0.0479
     14 N         -26.7823    2.5336   28.9410 N.pl3   1  UNL1       -0.2860
     15 C         -27.2258    3.7324   29.5839 C.3     1  UNL1        0.1132
     16 C         -26.4127    4.1855   30.6217 C.3     1  UNL1        0.1189
     17 CL        -25.3545    3.3916   31.2802 Cl      1  UNL1       -0.1116
     18 C         -26.4684    5.6671   30.8487 C.3     1  UNL1        0.1272
     19 N         -25.6089    6.1715   31.6308 N.3     1  UNL1       -0.1300
@<TRIPOS>BOND
     1     3     4    1
     2     4     8    1
     3     7    14    1
     4    13    14    1
     5    14    15    1
     6    15    16    1
     7    16    17    1
     8    16    18    1
     9    18    19    1
    10     8     9   ar
    11     9    10   ar
    12    10    11   ar
    13    11    12   ar
    14    12    13   ar
    15    13     8   ar
    16     1     2   ar
    17     2     5   ar
    18     5     6   ar
    19     6     7   ar
    20     7     3   ar
    21     3     1   ar
