@<TRIPOS>MOLECULE
No_2863-gen_results/8p0m/2024-11-26-14-13-15/
 13 14 0 0 0
SMALL
GASTEIGER

@<TRIPOS>ATOM
      1 C         -28.0162   -0.8135   28.8779 C.ar    1  UNL1        0.0114
      2 C         -28.4690   -0.7850   29.8287 C.ar    1  UNL1        0.0577
      3 C         -26.5455   -0.8762   28.8500 C.ar    1  UNL1        0.0009
      4 C         -25.8974   -0.8267   29.8894 C.ar    1  UNL1        0.0001
      5 C         -27.9129   -0.8385   31.1942 C.ar    1  UNL1        0.0114
      6 C         -26.5519   -0.8324   31.1775 C.ar    1  UNL1        0.0009
      7 CL        -30.2866   -0.7927   29.9260 Cl      1  UNL1       -0.0822
      8 C         -24.3720   -0.8622   29.9318 C.ar    1  UNL1        0.0000
      9 C         -23.6386   -1.5043   30.3053 C.ar    1  UNL1        0.0000
     10 C         -23.7963    0.3495   29.1708 C.ar    1  UNL1        0.0000
     11 C         -22.4101    0.4258   29.0567 C.ar    1  UNL1        0.0000
     12 C         -22.1953   -1.5591   30.3514 C.ar    1  UNL1        0.0000
     13 C         -21.6194   -0.5058   29.6443 C.ar    1  UNL1        0.0000
@<TRIPOS>BOND
     1     2     7    1
     2     4     8    1
     3     8     9   ar
     4     9    12   ar
     5    12    13   ar
     6    13    11   ar
     7    11    10   ar
     8    10     8   ar
     9     1     2   ar
    10     2     5   ar
    11     5     6   ar
    12     6     4   ar
    13     4     3   ar
    14     3     1   ar
