@<TRIPOS>MOLECULE
No_2864-gen_results/8p0m/2024-11-26-14-13-15/
 6 6 0 0 0
SMALL
GASTEIGER

@<TRIPOS>ATOM
      1 C         -28.0162   -0.8135   28.8779 C.ar    1  UNL1        0.0000
      2 C         -27.0636   -0.1189   28.6079 C.ar    1  UNL1        0.0000
      3 C         -25.7923   -0.4302   29.0761 C.ar    1  UNL1        0.0000
      4 C         -25.5711   -1.5997   29.9130 C.ar    1  UNL1        0.0000
      5 C         -27.9520   -1.9099   29.8524 C.ar    1  UNL1        0.0000
      6 C         -26.6878   -2.2953   30.2915 C.ar    1  UNL1        0.0000
@<TRIPOS>BOND
     1     1     2   ar
     2     2     3   ar
     3     3     4   ar
     4     4     6   ar
     5     6     5   ar
     6     5     1   ar
