@<TRIPOS>MOLECULE
No_2865-gen_results/8p0m/2024-11-26-14-13-15/
 14 15 0 0 0
SMALL
GASTEIGER

@<TRIPOS>ATOM
      1 C         -28.0162   -0.8135   28.8779 C.2     1  UNL1        0.1740
      2 BR        -28.5949   -0.9931   29.8894 Br      1  UNL1       -0.0166
      3 C         -26.5252   -0.7012   29.0257 C.2     1  UNL1        0.0366
      4 C         -25.6952   -0.0303   28.1256 C.ar    1  UNL1        0.0027
      5 C         -24.2599    0.1380   28.3601 C.ar    1  UNL1        0.0001
      6 C         -23.3508    0.9331   27.5949 C.ar    1  UNL1        0.0000
      7 C         -22.0089    1.1972   28.0016 C.ar    1  UNL1        0.0000
      8 C         -21.4597    0.3369   28.9202 C.ar    1  UNL1        0.0000
      9 C         -23.5493   -0.5948   29.4145 C.ar    1  UNL1        0.0000
     10 C         -22.2359   -0.4931   29.6713 C.ar    1  UNL1        0.0000
     11 F         -28.3129   -0.4284   27.7103 F       1  UNL1       -0.1969
     12 C         -23.9819    1.7972   26.5637 C.ar    1  UNL1        0.0000
     13 C         -25.3525    1.5384   26.2299 C.ar    1  UNL1        0.0000
     14 C         -26.1495    0.7721   27.0269 C.ar    1  UNL1        0.0001
@<TRIPOS>BOND
     1     1     2    1
     2     1     3    2
     3     3     4    1
     4     1    11    1
     5     4     5   ar
     6     6    12   ar
     7    12    13   ar
     8    13    14   ar
     9    14     4   ar
    10     5     6   ar
    11     6     7   ar
    12     7     8   ar
    13     8    10   ar
    14    10     9   ar
    15     9     5   ar
