@<TRIPOS>MOLECULE
No_2866-gen_results/8p0m/2024-11-26-14-13-15/
 21 23 0 0 0
SMALL
GASTEIGER

@<TRIPOS>ATOM
      1 C         -28.0162   -0.8135   28.8779 C.ar    1  UNL1        0.0744
      2 C         -27.0636   -0.1189   28.6079 C.ar    1  UNL1        0.1483
      3 C         -26.9287    1.1713   29.0083 C.ar    1  UNL1        0.0377
      4 C         -27.9560    1.7411   29.7840 C.ar    1  UNL1        0.0062
      5 C         -29.0569   -0.3271   29.7466 C.ar    1  UNL1        0.1421
      6 C         -28.9828    0.9722   30.1516 C.ar    1  UNL1        0.0371
      7 O         -25.9911   -0.6119   27.8566 O.3     1  UNL1       -0.4534
      8 C         -24.9038   -1.1483   28.5775 C.ar    1  UNL1        0.1453
      9 C         -23.7733   -0.9238   28.7488 C.ar    1  UNL1        0.0375
     10 C         -25.2670   -2.5528   29.1249 C.ar    1  UNL1        0.0375
     11 C         -22.7926   -1.5184   29.4729 C.ar    1  UNL1        0.0031
     12 C         -24.3845   -3.2811   29.7863 C.ar    1  UNL1        0.0031
     13 C         -23.1235   -2.7642   30.0154 C.ar    1  UNL1        0.0002
     14 O         -30.0728   -1.1402   30.0877 O.3     1  UNL1       -0.4705
     15 C         -29.8343   -2.1603   30.8837 C.3     1  UNL1        0.2320
     16 C         -30.8539   -2.5247   31.7418 C.ar    1  UNL1        0.0212
     17 C         -31.8945   -2.0270   31.8132 C.ar    1  UNL1       -0.0007
     18 C         -33.0009   -2.4175   32.7294 C.ar    1  UNL1       -0.0002
     19 C         -32.7137   -3.4994   33.5512 C.ar    1  UNL1       -0.0000
     20 C         -31.5140   -4.1447   33.5204 C.ar    1  UNL1       -0.0002
     21 C         -30.4884   -3.7153   32.6496 C.ar    1  UNL1       -0.0007
@<TRIPOS>BOND
     1     2     7    1
     2     7     8    1
     3     5    14    1
     4    14    15    1
     5    15    16    1
     6     8     9   ar
     7     9    11   ar
     8    11    13   ar
     9    13    12   ar
    10    12    10   ar
    11    10     8   ar
    12     1     2   ar
    13     2     3   ar
    14     3     4   ar
    15     4     6   ar
    16     6     5   ar
    17     5     1   ar
    18    16    17   ar
    19    17    18   ar
    20    18    19   ar
    21    19    20   ar
    22    20    21   ar
    23    21    16   ar
