@<TRIPOS>MOLECULE
No_2867-gen_results/8p0m/2024-11-26-14-13-15/
 15 15 0 0 0
SMALL
GASTEIGER

@<TRIPOS>ATOM
      1 C         -28.0162   -0.8135   28.8779 C.ar    1  UNL1        0.0066
      2 C         -28.4690   -0.7850   29.8287 C.ar    1  UNL1        0.0002
      3 C         -28.1960    0.3478   28.0550 C.ar    1  UNL1        0.0798
      4 C         -29.0191    1.3501   28.3782 C.ar    1  UNL1        0.0066
      5 C         -29.4107    0.1803   30.3782 C.ar    1  UNL1        0.0000
      6 C         -29.6059    1.2495   29.6193 C.ar    1  UNL1        0.0002
      7 C         -27.4478    0.3799   26.7122 C.2     1  UNL1        0.3878
      8 O         -26.9538    1.5101   26.4836 O.co2   1  UNL1       -0.2406
      9 O         -26.8176   -0.5706   26.2257 O.co2   1  UNL1       -0.2406
     10 C         -30.5512    2.3239   30.0500 C.2     1  UNL1        0.0000
     11 C         -30.0987    3.0865   31.0127 C.2     1  UNL1        0.0000
     12 C         -30.3195    4.0546   31.5189 C.2     1  UNL1        0.0000
     13 C         -29.6845    4.7884   32.6581 C.2     1  UNL1        0.0000
     14 C         -28.5443    4.1166   33.1746 C.2     1  UNL1        0.0000
     15 C         -28.1075    2.9156   32.6236 C.2     1  UNL1        0.0000
@<TRIPOS>BOND
     1     3     7    1
     2     7     8   ar
     3     7     9   ar
     4     6    10    1
     5    10    11    2
     6    11    12    1
     7    12    13    2
     8    13    14    1
     9    14    15    2
    10     1     2   ar
    11     2     5   ar
    12     5     6   ar
    13     6     4   ar
    14     4     3   ar
    15     3     1   ar
