@<TRIPOS>MOLECULE
No_2869-gen_results/8p0m/2024-11-26-14-13-15/
 7 7 0 0 0
SMALL
GASTEIGER

@<TRIPOS>ATOM
      1 C         -28.0162   -0.8135   28.8779 C.ar    1  UNL1        0.0296
      2 C         -28.4690   -0.7850   29.8287 C.ar    1  UNL1        0.1401
      3 C         -26.5455   -0.8762   28.8500 C.ar    1  UNL1        0.0023
      4 C         -25.8041   -1.0324   30.0571 C.ar    1  UNL1        0.0001
      5 C         -27.9437   -0.9869   31.2075 C.ar    1  UNL1        0.0296
      6 C         -26.5825   -1.0386   31.2231 C.ar    1  UNL1        0.0023
      7 F         -29.9086   -0.7397   29.8642 F       1  UNL1       -0.2042
@<TRIPOS>BOND
     1     2     7    1
     2     1     2   ar
     3     2     5   ar
     4     5     6   ar
     5     6     4   ar
     6     4     3   ar
     7     3     1   ar
