@<TRIPOS>MOLECULE
No_287-gen_results/8p0m/2024-11-26-14-13-15/
 35 37 0 0 0
SMALL
GASTEIGER

@<TRIPOS>ATOM
      1 C         -28.0162   -0.8135   28.8779 C.ar    1  UNL1        0.0043
      2 C         -28.4690   -0.7850   29.8287 C.ar    1  UNL1        0.0554
      3 C         -26.5455   -0.8762   28.8500 C.ar    1  UNL1       -0.0025
      4 C         -25.8041   -1.0324   30.0571 C.ar    1  UNL1       -0.0023
      5 C         -27.9437   -0.9869   31.2075 C.ar    1  UNL1        0.0043
      6 C         -26.5825   -1.0386   31.2231 C.ar    1  UNL1       -0.0025
      7 C         -30.0606   -0.7371   29.9024 C.2     1  UNL1        0.2687
      8 O         -30.7252   -1.5544   30.2697 O.2     1  UNL1       -0.2680
      9 N         -30.5563    0.4242   29.3124 N.am    1  UNL1       -0.1794
     10 C         -31.9645    0.5638   29.1626 C.2     1  UNL1        0.0587
     11 C         -32.7762    0.4546   29.7383 C.2     1  UNL1        0.0137
     12 C         -32.1006    1.0961   27.7187 C.3     1  UNL1        0.1020
     13 P         -33.6384    1.3225   27.1398 P.3     1  UNL1        0.1229
     14 O         -33.7424    1.8939   25.9983 O.2     1  UNL1       -0.4597
     15 O         -34.1858   -0.1578   27.0857 O.3     1  UNL1       -0.3569
     16 O         -34.4203    2.0494   28.2581 O.3     1  UNL1       -0.3569
     17 C         -24.3680   -1.0960   30.0691 C.3     1  UNL1        0.1208
     18 N         -23.7341    0.1654   30.0827 N.am    1  UNL1       -0.2679
     19 C         -22.5763    0.4138   29.3832 C.3     1  UNL1        0.1208
     20 C         -24.2473    1.2334   30.8316 C.2     1  UNL1        0.2496
     21 C         -22.5976    0.6343   28.0150 C.ar    1  UNL1       -0.0023
     22 C         -23.7243    0.9840   27.3748 C.ar    1  UNL1       -0.0026
     23 C         -23.6945    1.7487   26.2052 C.ar    1  UNL1       -0.0003
     24 C         -22.4461    2.1876   25.7060 C.ar    1  UNL1       -0.0000
     25 C         -21.3414    2.0383   26.4954 C.ar    1  UNL1       -0.0003
     26 C         -21.3861    1.3885   27.6636 C.ar    1  UNL1       -0.0026
     27 C         -25.2630    1.1083   31.7602 C.2     1  UNL1        0.0580
     28 C         -26.0534    2.2405   32.0019 C.2     1  UNL1        0.0047
     29 C         -27.1617    2.1718   32.9272 C.ar    1  UNL1        0.0001
     30 C         -28.1513    3.1093   32.8711 C.ar    1  UNL1        0.0000
     31 C         -29.3448    2.9454   33.6331 C.ar    1  UNL1        0.0000
     32 C         -29.4037    1.8203   34.5062 C.ar    1  UNL1        0.0000
     33 C         -28.4256    0.9144   34.5801 C.ar    1  UNL1        0.0000
     34 C         -27.2804    1.0592   33.7950 C.ar    1  UNL1        0.0000
     35 O         -23.4144    2.2465   31.0280 O.2     1  UNL1       -0.2699
@<TRIPOS>BOND
     1     2     7    1
     2     7     8    2
     3     7     9   am
     4     9    10    1
     5    10    11    2
     6    10    12    1
     7    12    13    1
     8    13    14    2
     9    13    15    1
    10    13    16    1
    11     4    17    1
    12    17    18    1
    13    18    19    1
    14    18    20   am
    15    19    21    1
    16    20    27    1
    17    27    28    2
    18    28    29    1
    19    20    35    2
    20    29    30   ar
    21    30    31   ar
    22    31    32   ar
    23    32    33   ar
    24    33    34   ar
    25    34    29   ar
    26     1     2   ar
    27     2     5   ar
    28     5     6   ar
    29     6     4   ar
    30     4     3   ar
    31     3     1   ar
    32    21    22   ar
    33    22    23   ar
    34    23    24   ar
    35    24    25   ar
    36    25    26   ar
    37    26    21   ar
