@<TRIPOS>MOLECULE
No_2870-gen_results/8p0m/2024-11-26-14-13-15/
 31 34 0 0 0
SMALL
GASTEIGER

@<TRIPOS>ATOM
      1 C         -28.0162   -0.8135   28.8779 C.2     1  UNL1        0.2716
      2 C         -27.0636   -0.1189   28.6079 C.ar    1  UNL1        0.0555
      3 C         -27.0010    0.6913   27.4910 C.ar    1  UNL1        0.0045
      4 C         -25.8548    1.4825   27.0830 C.ar    1  UNL1        0.0040
      5 C         -24.6901    1.4526   27.8807 C.ar    1  UNL1        0.0714
      6 C         -24.7379    0.6010   29.0416 C.ar    1  UNL1        0.0040
      7 C         -25.8234   -0.1688   29.3887 C.ar    1  UNL1        0.0045
      8 N         -27.9613   -1.6072   30.0877 N.am    1  UNL1       -0.1371
      9 C         -23.5206    2.2106   27.5733 C.3     1  UNL1        0.4186
     10 F         -22.9726    2.6850   28.5756 F       1  UNL1       -0.1659
     11 F         -22.5521    1.3926   26.9591 F       1  UNL1       -0.1659
     12 F         -23.8434    3.2524   26.7319 F       1  UNL1       -0.1659
     13 O         -29.1896   -0.5955   28.5050 O.2     1  UNL1       -0.2679
     14 C         -29.0649   -2.4659   30.5835 C.2     1  UNL1        0.2716
     15 C         -29.4294   -2.0887   31.7998 C.ar    1  UNL1        0.0555
     16 C         -30.4037   -1.0684   31.9303 C.ar    1  UNL1        0.0046
     17 C         -30.5393   -0.5550   33.1124 C.ar    1  UNL1        0.0001
     18 C         -30.1726   -1.2245   34.2301 C.ar    1  UNL1        0.0000
     19 C         -29.3301   -2.3055   34.1850 C.ar    1  UNL1        0.0001
     20 C         -28.9434   -2.7472   32.9041 C.ar    1  UNL1        0.0046
     21 O         -29.2826   -3.4571   29.9643 O.2     1  UNL1       -0.2679
     22 C         -31.7265    0.3946   33.4046 C.ar    1  UNL1        0.0001
     23 C         -31.3807    1.5115   33.6924 C.ar    1  UNL1        0.0000
     24 C         -32.4013    2.6158   33.8824 C.ar    1  UNL1        0.0000
     25 C         -33.7071    2.2264   33.6014 C.ar    1  UNL1        0.0015
     26 C         -32.9763    0.0649   33.0501 C.ar    1  UNL1        0.0030
     27 C         -33.9801    0.9604   33.1741 C.ar    1  UNL1        0.0192
     28 C         -35.3593    0.5621   32.8584 C.ar    1  UNL1        0.0988
     29 N         -35.7426   -0.3177   32.3644 N.ar    1  UNL1       -0.2423
     30 C         -34.8305   -1.2639   31.9906 C.ar    1  UNL1        0.0989
     31 C         -33.4523   -1.1965   32.4025 C.ar    1  UNL1        0.0207
@<TRIPOS>BOND
     1     1     2    1
     2     1     8   am
     3     5     9    1
     4     9    10    1
     5     9    11    1
     6     9    12    1
     7     1    13    2
     8     8    14   am
     9    14    15    1
    10    14    21    2
    11    17    22    1
    12    15    16   ar
    13    16    17   ar
    14    17    18   ar
    15    18    19   ar
    16    19    20   ar
    17    20    15   ar
    18     2     3   ar
    19     3     4   ar
    20     4     5   ar
    21     5     6   ar
    22     6     7   ar
    23     7     2   ar
    24    22    23   ar
    25    23    24   ar
    26    24    25   ar
    27    25    27   ar
    28    26    22   ar
    29    26    27   ar
    30    27    28   ar
    31    28    29   ar
    32    29    30   ar
    33    30    31   ar
    34    31    26   ar
