@<TRIPOS>MOLECULE
No_2871-gen_results/8p0m/2024-11-26-14-13-15/
 12 12 0 0 0
SMALL
GASTEIGER

@<TRIPOS>ATOM
      1 C         -28.0162   -0.8135   28.8779 C.2     1  UNL1        0.0364
      2 C         -27.0636   -0.1189   28.6079 C.2     1  UNL1       -0.0431
      3 C         -25.7647   -0.3897   29.0360 C.3     1  UNL1        0.0223
      4 C         -24.5516    0.4058   28.7646 C.3     1  UNL1        0.0104
      5 C         -24.6957    1.4480   27.7988 C.3     1  UNL1        0.0440
      6 C         -25.9755    1.7250   27.3077 C.3     1  UNL1        0.0104
      7 C         -27.0718    1.0134   27.6535 C.3     1  UNL1        0.0223
      8 C         -29.2099   -0.0501   29.3493 C.3     1  UNL1        0.3402
      9 F         -29.0298    0.5236   30.3808 F       1  UNL1       -0.1933
     10 F         -29.8470    0.2389   28.3665 F       1  UNL1       -0.1933
     11 C         -23.5038    2.2471   27.5411 C.2     1  UNL1        0.0953
     12 N         -22.3083    1.7130   27.7715 N.2     1  UNL1       -0.1514
@<TRIPOS>BOND
     1     1     2    2
     2     2     3    1
     3     3     4    1
     4     4     5    1
     5     5     6    1
     6     2     7    1
     7     6     7    1
     8     1     8    1
     9     8     9    1
    10     8    10    1
    11     5    11    1
    12    11    12    2
