@<TRIPOS>MOLECULE
No_2872-gen_results/8p0m/2024-11-26-14-13-15/
 15 16 0 0 0
SMALL
GASTEIGER

@<TRIPOS>ATOM
      1 C         -28.0162   -0.8135   28.8779 C.ar    1  UNL1       -0.0043
      2 C         -28.4690   -0.7850   29.8287 C.ar    1  UNL1       -0.0003
      3 C         -27.1356    0.2359   28.5352 C.ar    1  UNL1       -0.0222
      4 C         -26.8745    1.2825   29.3982 C.ar    1  UNL1       -0.0043
      5 C         -27.5070    1.2380   30.6295 C.ar    1  UNL1       -0.0003
      6 C         -28.3293    0.1745   30.9350 C.ar    1  UNL1       -0.0000
      7 C         -26.4077    0.3070   27.2259 C.3     1  UNL1        0.0267
      8 C         -25.0105    0.3902   27.3228 C.3     1  UNL1        0.0050
      9 C         -27.0459    0.3288   26.0049 C.3     1  UNL1        0.0307
     10 C         -28.4008    0.3616   25.8738 C.ar    1  UNL1       -0.0219
     11 C         -28.9079    0.2793   24.5565 C.ar    1  UNL1       -0.0043
     12 C         -30.3027    0.2446   24.3867 C.ar    1  UNL1       -0.0003
     13 C         -31.1239    0.1924   25.4683 C.ar    1  UNL1       -0.0000
     14 C         -30.5961    0.2576   26.7584 C.ar    1  UNL1       -0.0003
     15 C         -29.2960    0.3481   26.9673 C.ar    1  UNL1       -0.0043
@<TRIPOS>BOND
     1     3     7    1
     2     7     8    1
     3     7     9    1
     4     9    10    1
     5     1     2   ar
     6     2     6   ar
     7     6     5   ar
     8     5     4   ar
     9     4     3   ar
    10     3     1   ar
    11    10    11   ar
    12    11    12   ar
    13    12    13   ar
    14    13    14   ar
    15    14    15   ar
    16    15    10   ar
