@<TRIPOS>MOLECULE
No_2874-gen_results/8p0m/2024-11-26-14-13-15/
 16 17 0 0 0
SMALL
GASTEIGER

@<TRIPOS>ATOM
      1 C         -28.0162   -0.8135   28.8779 C.ar    1  UNL1        0.0362
      2 C         -27.0636   -0.1189   28.6079 C.ar    1  UNL1        0.1532
      3 N         -26.9515    1.1286   28.9566 N.ar    1  UNL1       -0.2273
      4 C         -29.1088   -0.2102   29.6318 C.ar    1  UNL1        0.0045
      5 C         -29.0365    0.8335   29.8907 C.ar    1  UNL1        0.0208
      6 C         -27.9758    1.6953   29.6193 C.ar    1  UNL1        0.1004
      7 N         -25.8991   -0.6135   27.9470 N.pl3   1  UNL1       -0.1755
      8 C         -24.9394    0.1342   27.3656 C.ar    1  UNL1        0.1531
      9 C         -23.7252    0.3684   28.0513 C.ar    1  UNL1        0.0331
     10 C         -22.7735    1.2895   27.5836 C.ar    1  UNL1        0.0044
     11 C         -23.1194    2.0531   26.4575 C.ar    1  UNL1        0.0208
     12 N         -25.2595    0.8022   26.2568 N.ar    1  UNL1       -0.2273
     13 C         -24.3833    1.7873   25.8626 C.ar    1  UNL1        0.1004
     14 C         -23.3569   -0.3445   29.2868 C.2     1  UNL1       -0.0017
     15 C         -22.2589   -0.4334   29.8665 C.2     1  UNL1       -0.0257
     16 C         -21.2304    0.4597   29.2340 C.3     1  UNL1        0.0307
@<TRIPOS>BOND
     1     2     7    1
     2     7     8    1
     3     9    14    1
     4    14    15    2
     5    15    16    1
     6     1     2   ar
     7     2     3   ar
     8     3     6   ar
     9     6     5   ar
    10     5     4   ar
    11     4     1   ar
    12     8     9   ar
    13     9    10   ar
    14    10    11   ar
    15    11    13   ar
    16    13    12   ar
    17    12     8   ar
