@<TRIPOS>MOLECULE
No_2875-gen_results/8p0m/2024-11-26-14-13-15/
 15 16 0 0 0
SMALL
GASTEIGER

@<TRIPOS>ATOM
      1 C         -28.0162   -0.8135   28.8779 C.ar    1  UNL1        0.0046
      2 C         -28.4690   -0.7850   29.8287 C.ar    1  UNL1        0.0554
      3 C         -26.5455   -0.8762   28.8500 C.ar    1  UNL1        0.0001
      4 C         -25.8041   -1.0324   30.0571 C.ar    1  UNL1        0.0000
      5 C         -27.9437   -0.9869   31.2075 C.ar    1  UNL1        0.0046
      6 C         -26.5825   -1.0386   31.2231 C.ar    1  UNL1        0.0001
      7 C         -30.0606   -0.7371   29.9024 C.2     1  UNL1        0.2690
      8 N         -30.6056   -0.0348   29.0093 N.am    1  UNL1       -0.1754
      9 C         -31.7125   -0.3118   28.3887 C.ar    1  UNL1        0.0737
     10 C         -32.4860   -1.2855   28.7558 C.ar    1  UNL1        0.0166
     11 O         -30.6394   -1.5004   30.6877 O.2     1  UNL1       -0.2680
     12 C         -32.0123    0.5091   27.2237 C.ar    1  UNL1        0.0166
     13 C         -33.6887   -1.6309   27.9985 C.ar    1  UNL1        0.0013
     14 C         -33.2087    0.1910   26.5134 C.ar    1  UNL1        0.0013
     15 C         -34.0081   -0.8508   26.9217 C.ar    1  UNL1        0.0001
@<TRIPOS>BOND
     1     2     7    1
     2     7     8   am
     3     8     9    1
     4     7    11    2
     5     9    10   ar
     6    10    13   ar
     7    13    15   ar
     8    15    14   ar
     9    14    12   ar
    10    12     9   ar
    11     1     2   ar
    12     2     5   ar
    13     5     6   ar
    14     6     4   ar
    15     4     3   ar
    16     3     1   ar
