@<TRIPOS>MOLECULE
No_2876-gen_results/8p0m/2024-11-26-14-13-15/
 10 10 0 0 0
SMALL
GASTEIGER

@<TRIPOS>ATOM
      1 C         -28.0162   -0.8135   28.8779 C.3     1  UNL1        0.1346
      2 C         -27.0636   -0.1189   28.6079 C.3     1  UNL1        0.1994
      3 F         -27.0425    0.2440   27.4277 F       1  UNL1       -0.2311
      4 CL        -27.8975   -1.9189   30.1948 Cl      1  UNL1       -0.1103
      5 C         -25.8751    0.1982   29.3855 C.ar    1  UNL1        0.0111
      6 C         -25.9026    0.2601   30.6994 C.ar    1  UNL1       -0.0016
      7 C         -24.5930    0.3953   31.3421 C.ar    1  UNL1       -0.0002
      8 C         -23.4798    0.7468   30.5840 C.ar    1  UNL1       -0.0000
      9 C         -23.5041    0.6959   29.2387 C.ar    1  UNL1       -0.0002
     10 C         -24.6896    0.3922   28.5749 C.ar    1  UNL1       -0.0016
@<TRIPOS>BOND
     1     1     2    1
     2     2     3    1
     3     1     4    1
     4     2     5    1
     5     5     6   ar
     6     6     7   ar
     7     7     8   ar
     8     8     9   ar
     9     9    10   ar
    10    10     5   ar
