@<TRIPOS>MOLECULE
No_2877-gen_results/8p0m/2024-11-26-14-13-15/
 28 29 0 0 0
SMALL
GASTEIGER

@<TRIPOS>ATOM
      1 C         -28.0162   -0.8135   28.8779 C.ar    1  UNL1        0.0448
      2 C         -28.4690   -0.7850   29.8287 C.ar    1  UNL1        0.0792
      3 C         -26.5455   -0.8762   28.8500 C.ar    1  UNL1        0.1560
      4 C         -25.8041   -1.0324   30.0571 C.ar    1  UNL1        0.0921
      5 C         -27.9437   -0.9869   31.2075 C.ar    1  UNL1        0.0075
      6 C         -26.5825   -1.0386   31.2231 C.ar    1  UNL1        0.0147
      7 CL        -24.1543   -1.1143   30.0877 Cl      1  UNL1       -0.0791
      8 C         -30.0979   -0.7294   29.8876 C.2     1  UNL1        0.3482
      9 O         -30.6814    0.0005   29.1534 O.2     1  UNL1       -0.2444
     10 O         -30.7541   -1.4838   30.7470 O.3     1  UNL1       -0.3815
     11 O         -25.7508   -0.8285   27.7142 O.3     1  UNL1       -0.4503
     12 C         -25.4053    0.2238   27.3363 C.ar    1  UNL1        0.1748
     13 C         -25.9385    0.7000   26.0437 C.ar    1  UNL1        0.1745
     14 C         -24.2207    0.9166   27.7735 C.ar    1  UNL1        0.0694
     15 C         -23.6657    2.0388   27.1078 C.ar    1  UNL1        0.1433
     16 C         -25.3532    1.8024   25.4031 C.ar    1  UNL1        0.0351
     17 C         -24.2085    2.4729   25.9455 C.ar    1  UNL1        0.0322
     18 F         -22.6126    2.5682   27.6937 F       1  UNL1       -0.2041
     19 C         -31.9471   -1.9891   30.4452 C.2     1  UNL1        0.4249
     20 C         -32.2308   -3.2498   31.1037 C.2     1  UNL1        0.4191
     21 O         -33.1483   -3.8460   30.8924 O.2     1  UNL1       -0.2375
     22 O         -31.3704   -3.7520   31.9933 O.3     1  UNL1       -0.4284
     23 O         -32.8253   -1.2239   30.2792 O.2     1  UNL1       -0.2370
     24 C         -31.0011   -5.0182   32.1333 C.3     1  UNL1        0.3217
     25 C         -29.8490   -5.4049   31.5133 C.2     1  UNL1        0.4086
     26 O         -29.7143   -6.3296   30.8968 O.co2   1  UNL1       -0.2415
     27 O         -28.6788   -4.6619   31.8132 O.co2   1  UNL1       -0.2415
     28 F         -26.8815    0.0600   25.5547 F       1  UNL1       -0.2009
@<TRIPOS>BOND
     1     4     7    1
     2     2     8    1
     3     8     9    2
     4     8    10    1
     5     3    11    1
     6    11    12    1
     7    15    18    1
     8    10    19    1
     9    19    20    1
    10    20    21    2
    11    20    22    1
    12    19    23    2
    13    22    24    1
    14    24    25    1
    15    25    26   ar
    16    25    27   ar
    17    13    28    1
    18     1     2   ar
    19     2     5   ar
    20     5     6   ar
    21     6     4   ar
    22     4     3   ar
    23     3     1   ar
    24    12    13   ar
    25    13    16   ar
    26    16    17   ar
    27    17    15   ar
    28    15    14   ar
    29    14    12   ar
