@<TRIPOS>MOLECULE
No_2878-gen_results/8p0m/2024-11-26-14-13-15/
 15 15 0 0 0
SMALL
GASTEIGER

@<TRIPOS>ATOM
      1 C         -28.0162   -0.8135   28.8779 C.ar    1  UNL1        0.0054
      2 C         -27.0636   -0.1190   28.6079 C.ar    1  UNL1        0.0715
      3 C         -25.7923   -0.4302   29.0761 C.ar    1  UNL1        0.0039
      4 C         -25.5756   -1.5654   29.9363 C.ar    1  UNL1       -0.0000
      5 C         -26.7354   -2.3004   30.2173 C.ar    1  UNL1        0.0015
      6 C         -27.9184   -1.9537   29.7629 C.ar    1  UNL1        0.0187
      7 C         -27.1057    1.1023   27.7593 C.3     1  UNL1        0.4186
      8 F         -26.3437    1.1719   26.9645 F       1  UNL1       -0.1659
      9 F         -27.0574    2.2431   28.5236 F       1  UNL1       -0.1659
     10 F         -28.4185    1.1780   27.2364 F       1  UNL1       -0.1659
     11 C         -29.0651   -2.7677   30.2051 C.2     1  UNL1        0.0932
     12 N         -28.9500   -4.0716   30.4142 N.2     1  UNL1       -0.2661
     13 C         -30.0156   -4.9297   30.6381 C.3     1  UNL1        0.1610
     14 C         -30.7686   -5.1264   29.5263 C.3     1  UNL1        0.2083
     15 O         -31.3702   -6.2336   29.3601 O.3     1  UNL1       -0.2182
@<TRIPOS>BOND
     1     2     7    1
     2     7     8    1
     3     7     9    1
     4     7    10    1
     5     6    11    1
     6    11    12    2
     7    12    13    1
     8    13    14    1
     9    14    15    1
    10     1     2   ar
    11     2     3   ar
    12     3     4   ar
    13     4     5   ar
    14     5     6   ar
    15     6     1   ar
