@<TRIPOS>MOLECULE
No_288-gen_results/8p0m/2024-11-26-14-13-15/
 15 17 0 0 0
SMALL
GASTEIGER

@<TRIPOS>ATOM
      1 C         -28.0162   -0.8135   28.8779 C.ar    1  UNL1       -0.0038
      2 C         -27.0636   -0.1189   28.6079 C.ar    1  UNL1       -0.0147
      3 C         -25.7923   -0.4302   29.0761 C.3     1  UNL1        0.0528
      4 C         -24.5456    0.3494   28.8225 C.ar    1  UNL1       -0.0147
      5 C         -23.2409    0.0217   29.3323 C.ar    1  UNL1       -0.0038
      6 C         -22.1362    0.7695   29.0059 C.ar    1  UNL1       -0.0003
      7 C         -29.3516   -0.3508   28.7011 C.ar    1  UNL1       -0.0003
      8 C         -29.5331    0.7200   27.8442 C.ar    1  UNL1        0.0001
      9 C         -28.4343    1.4357   27.3693 C.ar    1  UNL1        0.0029
     10 C         -27.1113    1.0941   27.8118 C.ar    1  UNL1        0.0353
     11 C         -22.1684    1.8197   28.0988 C.ar    1  UNL1        0.0001
     12 C         -23.4344    2.1623   27.5486 C.ar    1  UNL1        0.0029
     13 C         -24.5633    1.4259   27.8559 C.ar    1  UNL1        0.0353
     14 C         -25.9399    1.8110   27.4075 C.2     1  UNL1        0.1950
     15 O         -26.0125    2.8315   26.6395 O.2     1  UNL1       -0.2866
@<TRIPOS>BOND
     1     3     4    1
     2    10    14    1
     3    13    14    1
     4    14    15    2
     5     2     3    1
     6     1     2   ar
     7     2    10   ar
     8    10     9   ar
     9     9     8   ar
    10     8     7   ar
    11     7     1   ar
    12     4     5   ar
    13     5     6   ar
    14     6    11   ar
    15    11    12   ar
    16    12    13   ar
    17    13     4   ar
