@<TRIPOS>MOLECULE
No_2880-gen_results/8p0m/2024-11-26-14-13-15/
 35 38 0 0 0
SMALL
GASTEIGER

@<TRIPOS>ATOM
      1 C         -28.0162   -0.8135   28.8779 C.ar    1  UNL1        0.0337
      2 C         -27.0636   -0.1189   28.6079 C.ar    1  UNL1       -0.0099
      3 C         -25.7923   -0.4302   29.0761 C.ar    1  UNL1       -0.0036
      4 C         -25.5756   -1.5654   29.9363 C.ar    1  UNL1        0.0028
      5 C         -26.7354   -2.3004   30.2173 C.ar    1  UNL1        0.0375
      6 C         -27.9184   -1.9537   29.7629 C.ar    1  UNL1        0.1451
      7 C         -26.8968    1.1016   27.7052 C.3     1  UNL1        0.1116
      8 C         -26.6638    2.1999   27.9486 C.ar    1  UNL1       -0.0099
      9 C         -26.2708    2.5380   29.3969 C.ar    1  UNL1        0.0337
     10 C         -25.9022    3.8928   29.6804 C.ar    1  UNL1        0.1450
     11 C         -25.8160    4.7929   28.6517 C.ar    1  UNL1        0.0375
     12 C         -26.0496    4.5027   27.3513 C.ar    1  UNL1        0.0028
     13 C         -26.4630    3.2105   27.0013 C.ar    1  UNL1       -0.0036
     14 C         -27.7379    0.9333   26.4112 C.3     1  UNL1        0.3264
     15 F         -28.3999    1.8192   26.1591 F       1  UNL1       -0.1977
     16 F         -27.6426   -0.1390   25.8189 F       1  UNL1       -0.1977
     17 O         -25.6190    4.2166   30.9325 O.3     1  UNL1       -0.4535
     18 O         -29.0125   -2.6457   30.0827 O.3     1  UNL1       -0.4504
     19 C         -25.6905    5.3563   31.5080 C.ar    1  UNL1        0.1453
     20 C         -24.9805    5.5110   32.7470 C.ar    1  UNL1        0.0375
     21 C         -24.8966    6.8158   33.3674 C.ar    1  UNL1        0.0031
     22 C         -25.6255    7.8533   32.8138 C.ar    1  UNL1        0.0002
     23 C         -26.3171    6.4790   30.9877 C.ar    1  UNL1        0.0375
     24 C         -26.2981    7.7087   31.6247 C.ar    1  UNL1        0.0031
     25 C         -28.9218   -3.9388   30.6281 C.ar    1  UNL1        0.1790
     26 C         -28.9839   -4.8822   29.8221 C.ar    1  UNL1        0.0406
     27 C         -30.3583   -5.0731   29.4277 C.ar    1  UNL1        0.0033
     28 C         -31.1479   -5.4309   30.2607 C.ar    1  UNL1        0.0033
     29 C         -29.9952   -4.0042   31.7567 C.ar    1  UNL1        0.1736
     30 C         -31.2499   -4.4876   31.4132 C.ar    1  UNL1        0.0401
     31 O         -29.6878   -3.4644   32.9818 O.3     1  UNL1       -0.4606
     32 C         -30.3365   -2.4676   33.5523 C.3     1  UNL1        0.3187
     33 C         -29.5857   -1.5234   33.9788 C.2     1  UNL1        0.4084
     34 O         -28.6619   -1.6961   34.7260 O.co2   1  UNL1       -0.2415
     35 O         -29.7920   -0.2707   33.5626 O.co2   1  UNL1       -0.2415
@<TRIPOS>BOND
     1     2     7    1
     2     7    14    1
     3    14    15    1
     4    14    16    1
     5    10    17    1
     6     6    18    1
     7    17    19    1
     8    18    25    1
     9    29    31    1
    10    31    32    1
    11    32    33    1
    12    33    34   ar
    13    33    35   ar
    14     7     8    1
    15     1     2   ar
    16     2     3   ar
    17     3     4   ar
    18     4     5   ar
    19     5     6   ar
    20     6     1   ar
    21    25    26   ar
    22    26    27   ar
    23    27    28   ar
    24    28    30   ar
    25    30    29   ar
    26    29    25   ar
    27     8     9   ar
    28     9    10   ar
    29    10    11   ar
    30    11    12   ar
    31    12    13   ar
    32    13     8   ar
    33    19    20   ar
    34    20    21   ar
    35    21    22   ar
    36    22    24   ar
    37    24    23   ar
    38    23    19   ar
