@<TRIPOS>MOLECULE
No_2883-gen_results/8p0m/2024-11-26-14-13-15/
 27 30 0 0 0
SMALL
GASTEIGER

@<TRIPOS>ATOM
      1 C         -28.0162   -0.8135   28.8779 C.ar    1  UNL1        0.0375
      2 C         -27.0636   -0.1190   28.6079 C.ar    1  UNL1        0.0028
      3 C         -25.7647   -0.3897   29.0360 C.ar    1  UNL1       -0.0034
      4 C         -24.5516    0.4058   28.7646 C.ar    1  UNL1       -0.0152
      5 C         -23.2300    0.1178   29.2575 C.ar    1  UNL1       -0.0039
      6 C         -23.0942   -1.1309   29.8730 C.ar    1  UNL1       -0.0003
      7 C         -27.7981   -1.9341   29.8560 C.ar    1  UNL1        0.1454
      8 C         -26.5420   -2.3269   30.2580 C.ar    1  UNL1        0.0375
      9 C         -25.4514   -1.5516   29.9079 C.ar    1  UNL1        0.0027
     10 C         -24.1562   -1.9097   30.2809 C.ar    1  UNL1        0.0001
     11 C         -24.6450    1.6582   27.9464 C.3     1  UNL1        0.0841
     12 C         -24.8958    2.7559   28.5615 C.2     1  UNL1        0.1767
     13 C         -25.3970    2.9144   29.8358 C.ar    1  UNL1        0.0350
     14 C         -25.6667    2.1427   30.6134 C.ar    1  UNL1        0.0029
     15 C         -26.1682    2.3914   31.9959 C.ar    1  UNL1        0.0001
     16 C         -26.3106    3.7169   32.3231 C.ar    1  UNL1        0.0000
     17 C         -25.8766    4.7276   31.4778 C.ar    1  UNL1        0.0001
     18 C         -25.4657    4.4278   30.2972 C.ar    1  UNL1        0.0029
     19 C         -24.6213    1.3736   26.5759 C.3     1  UNL1        0.0129
     20 O         -24.9398    3.9037   27.7788 O.2     1  UNL1       -0.2910
     21 O         -28.9125   -2.6741   30.2148 O.3     1  UNL1       -0.4519
     22 C         -29.9588   -2.0686   30.7712 C.ar    1  UNL1        0.1644
     23 C         -29.8805   -1.1495   31.5547 C.ar    1  UNL1        0.0407
     24 C         -31.0344   -0.4165   32.0075 C.ar    1  UNL1        0.0238
     25 C         -32.2287   -0.9125   31.6239 C.ar    1  UNL1        0.0991
     26 C         -31.2384   -2.5534   30.3101 C.ar    1  UNL1        0.1362
     27 N         -32.3201   -1.9353   30.7470 N.ar    1  UNL1       -0.2391
@<TRIPOS>BOND
     1     4    11    1
     2    11    12    1
     3    12    13    1
     4    11    19    1
     5    12    20    2
     6     7    21    1
     7    21    22    1
     8    13    14   ar
     9    14    15   ar
    10    15    16   ar
    11    16    17   ar
    12    17    18   ar
    13    18    13   ar
    14     1     2   ar
    15     2     3   ar
    16     9     8   ar
    17     8     7   ar
    18     7     1   ar
    19    22    23   ar
    20    23    24   ar
    21    24    25   ar
    22    25    27   ar
    23    27    26   ar
    24    26    22   ar
    25     3     4   ar
    26     4     5   ar
    27     5     6   ar
    28     6    10   ar
    29    10     9   ar
    30     9     3   ar
