@<TRIPOS>MOLECULE
No_2884-gen_results/8p0m/2024-11-26-14-13-15/
 9 9 0 0 0
SMALL
GASTEIGER

@<TRIPOS>ATOM
      1 C         -28.0162   -0.8135   28.8779 C.ar    1  UNL1        0.0066
      2 C         -28.4690   -0.7850   29.8287 C.ar    1  UNL1        0.0798
      3 C         -26.5042   -0.7777   28.8766 C.ar    1  UNL1        0.0002
      4 C         -25.8305   -1.6807   29.6849 C.ar    1  UNL1        0.0000
      5 C         -28.0065   -1.6474   31.0141 C.ar    1  UNL1        0.0066
      6 C         -26.6094   -1.9242   30.9641 C.ar    1  UNL1        0.0002
      7 C         -30.0124   -0.5741   29.9983 C.2     1  UNL1        0.3878
      8 O         -30.2777    0.5236   30.6225 O.co2   1  UNL1       -0.2406
      9 O         -30.8204   -1.3396   29.4547 O.co2   1  UNL1       -0.2406
@<TRIPOS>BOND
     1     2     7    1
     2     7     8   ar
     3     7     9   ar
     4     1     2   ar
     5     2     5   ar
     6     5     6   ar
     7     6     4   ar
     8     4     3   ar
     9     3     1   ar
