@<TRIPOS>MOLECULE
No_2885-gen_results/8p0m/2024-11-26-14-13-15/
 34 38 0 0 0
SMALL
GASTEIGER

@<TRIPOS>ATOM
      1 C         -28.0162   -0.8135   28.8779 C.ar    1  UNL1        0.0065
      2 C         -28.4690   -0.7850   29.8287 C.ar    1  UNL1        0.0757
      3 C         -26.5455   -0.8762   28.8500 C.ar    1  UNL1        0.0032
      4 C         -25.8041   -1.0324   30.0571 C.ar    1  UNL1        0.0014
      5 C         -27.9437   -0.9869   31.2075 C.ar    1  UNL1        0.0064
      6 C         -26.5825   -1.0386   31.2231 C.ar    1  UNL1        0.0003
      7 C         -24.4246   -0.9571   29.9095 C.ar    1  UNL1        0.0180
      8 C         -23.6646   -1.5515   30.5005 C.2     1  UNL1        0.0949
      9 C         -23.8906   -0.1307   28.8204 C.ar    1  UNL1        0.0193
     10 C         -24.4293    0.8765   28.0749 C.ar    1  UNL1        0.0022
     11 C         -24.0867    1.7769   27.6450 C.ar    1  UNL1       -0.0000
     12 C         -24.7887    2.7790   26.7732 C.ar    1  UNL1        0.0031
     13 C         -26.1150    2.5516   26.5872 C.ar    1  UNL1        0.0369
     14 C         -26.6105    1.4595   27.0475 C.ar    1  UNL1        0.1389
     15 C         -25.8920    0.5635   27.7992 C.ar    1  UNL1        0.0338
     16 N         -22.3388   -1.3689   30.2153 N.2     1  UNL1       -0.2470
     17 C         -22.5074   -0.3965   29.1605 C.3     1  UNL1        0.2158
     18 N         -21.3637    0.0704   28.5372 N.3     1  UNL1       -0.1012
     19 C         -30.0466   -0.9497   30.0431 C.2     1  UNL1        0.3415
     20 O         -30.6594   -1.6197   30.5593 O.2     1  UNL1       -0.2449
     21 O         -30.6931   -0.0140   29.2185 O.3     1  UNL1       -0.4361
     22 C         -31.8537    0.2788   29.2517 C.3     1  UNL1        0.3111
     23 C         -32.2000    1.2546   28.2788 C.3     1  UNL1        0.4381
     24 F         -31.4576    2.1609   28.1894 F       1  UNL1       -0.1663
     25 F         -32.2508    0.6606   26.9803 F       1  UNL1       -0.1663
     26 F         -33.5265    1.7033   28.3985 F       1  UNL1       -0.1663
     27 O         -27.9672    1.1388   26.8979 O.3     1  UNL1       -0.4706
     28 C         -28.4774    1.3807   25.5934 C.3     1  UNL1        0.2320
     29 C         -29.4303    0.4669   25.1898 C.ar    1  UNL1        0.0212
     30 C         -29.4809    0.3014   23.9277 C.ar    1  UNL1       -0.0007
     31 C         -30.4427   -0.6892   23.6135 C.ar    1  UNL1       -0.0002
     32 C         -31.1217   -1.5152   24.5409 C.ar    1  UNL1       -0.0000
     33 C         -31.1993   -1.2374   25.5506 C.ar    1  UNL1       -0.0002
     34 C         -30.2051   -0.2270   26.1970 C.ar    1  UNL1       -0.0007
@<TRIPOS>BOND
     1     8    16    2
     2     9    17    1
     3    16    17    1
     4    17    18    1
     5     2    19    1
     6    19    20    2
     7    19    21    1
     8    21    22    1
     9    22    23    1
    10    23    24    1
    11    23    25    1
    12    23    26    1
    13    14    27    1
    14    27    28    1
    15    28    29    1
    16     8     7    1
    17    29    30   ar
    18    30    31   ar
    19    31    32   ar
    20    32    33   ar
    21    33    34   ar
    22    34    29   ar
    23     4     7   ar
    24     7     9   ar
    25     9    10   ar
    26    15     3   ar
    27     1     2   ar
    28     2     5   ar
    29     5     6   ar
    30     6     4   ar
    31     4     3   ar
    32     3     1   ar
    33    10    11   ar
    34    11    12   ar
    35    12    13   ar
    36    13    14   ar
    37    14    15   ar
    38    15    10   ar
