@<TRIPOS>MOLECULE
No_2886-gen_results/8p0m/2024-11-26-14-13-15/
 21 22 0 0 0
SMALL
GASTEIGER

@<TRIPOS>ATOM
      1 C         -28.0162   -0.8135   28.8779 C.ar    1  UNL1        0.0045
      2 C         -28.4690   -0.7850   29.8287 C.ar    1  UNL1        0.0001
      3 C         -28.1816    0.4277   28.1134 C.ar    1  UNL1        0.0536
      4 C         -28.9841    1.4155   28.5154 C.ar    1  UNL1        0.0045
      5 C         -29.3802    0.1384   30.4612 C.ar    1  UNL1        0.0000
      6 C         -29.5415    1.2736   29.7242 C.ar    1  UNL1        0.0001
      7 C         -27.4586    0.4934   26.7701 C.2     1  UNL1        0.2491
      8 O         -26.2372    0.1445   26.7269 O.2     1  UNL1       -0.2699
      9 N         -28.0435    0.9229   25.6635 N.am    1  UNL1       -0.2740
     10 C         -27.3844    0.8853   24.3970 C.3     1  UNL1        0.1152
     11 C         -29.4075    1.3767   25.6183 C.3     1  UNL1        0.0984
     12 C         -30.1713    0.6863   24.5729 C.3     1  UNL1        0.0472
     13 C         -30.9025   -0.3755   25.0294 C.2     1  UNL1       -0.0286
     14 C         -31.9898   -0.4432   25.1005 C.2     1  UNL1       -0.0245
     15 C         -32.7735   -1.7050   25.4354 C.ar    1  UNL1        0.0149
     16 C         -31.9983   -2.8589   25.6416 C.ar    1  UNL1        0.0985
     17 N         -32.7322   -3.9137   26.0104 N.ar    1  UNL1       -0.2423
     18 C         -33.2871   -3.9939   27.1080 C.ar    1  UNL1        0.0989
     19 C         -34.2593   -2.8538   27.3005 C.ar    1  UNL1        0.0207
     20 C         -33.7414   -1.5840   26.7428 C.ar    1  UNL1        0.0028
     21 C         -32.9904    0.6406   24.8034 C.3     1  UNL1        0.0307
@<TRIPOS>BOND
     1     3     7    1
     2     7     8    2
     3     7     9   am
     4     9    10    1
     5     9    11    1
     6    11    12    1
     7    12    13    1
     8    13    14    2
     9    14    15    1
    10    14    21    1
    11    15    16   ar
    12    16    17   ar
    13    17    18   ar
    14    18    19   ar
    15    19    20   ar
    16    20    15   ar
    17     1     2   ar
    18     2     5   ar
    19     5     6   ar
    20     6     4   ar
    21     4     3   ar
    22     3     1   ar
