@<TRIPOS>MOLECULE
No_2887-gen_results/8p0m/2024-11-26-14-13-15/
 17 18 0 0 0
SMALL
GASTEIGER

@<TRIPOS>ATOM
      1 C         -28.0162   -0.8135   28.8779 C.ar    1  UNL1        0.0020
      2 C         -28.4690   -0.7850   29.8287 C.ar    1  UNL1        0.0794
      3 C         -27.0871    0.2903   28.6377 C.ar    1  UNL1       -0.0246
      4 C         -26.8317    1.2487   29.5869 C.ar    1  UNL1       -0.0087
      5 C         -29.4442   -1.9481   30.1840 C.2     1  UNL1        0.3877
      6 C         -27.4956    1.1303   30.8222 C.ar    1  UNL1       -0.0034
      7 C         -28.3376    0.0364   31.0331 C.ar    1  UNL1        0.0063
      8 O         -30.3927   -1.8339   29.8638 O.co2   1  UNL1       -0.2406
      9 O         -28.9097   -3.0039   30.8383 O.co2   1  UNL1       -0.2406
     10 C         -26.3154    0.4398   27.3445 C.3     1  UNL1        0.0338
     11 C         -25.2525    1.1260   27.2337 C.3     1  UNL1        0.0701
     12 C         -24.9823    2.1175   28.2770 C.2     1  UNL1        0.1655
     13 C         -25.6432    2.1043   29.4589 C.3     1  UNL1        0.1824
     14 O         -23.8757    2.9284   28.0144 O.2     1  UNL1       -0.2951
     15 C         -25.2752    3.0914   30.5198 C.2     1  UNL1        0.3753
     16 O         -25.9903    3.9105   30.9553 O.co2   1  UNL1       -0.2448
     17 O         -24.1500    2.6392   31.2086 O.co2   1  UNL1       -0.2448
@<TRIPOS>BOND
     1     2     5    1
     2     5     8   ar
     3     5     9   ar
     4     3    10    1
     5    11    12    1
     6     4    13    1
     7    12    13    1
     8    12    14    2
     9    13    15    1
    10    15    16   ar
    11    15    17   ar
    12    11    10    1
    13     1     2   ar
    14     2     7   ar
    15     7     6   ar
    16     6     4   ar
    17     4     3   ar
    18     3     1   ar
