@<TRIPOS>MOLECULE
No_2888-gen_results/8p0m/2024-11-26-14-13-15/
 16 17 0 0 0
SMALL
GASTEIGER

@<TRIPOS>ATOM
      1 C         -28.0162   -0.8135   28.8779 C.ar    1  UNL1       -0.0042
      2 C         -28.4690   -0.7850   29.8287 C.ar    1  UNL1       -0.0003
      3 C         -27.1356    0.2359   28.5352 C.ar    1  UNL1       -0.0195
      4 C         -26.8745    1.2825   29.3982 C.ar    1  UNL1       -0.0042
      5 C         -27.5070    1.2380   30.6295 C.ar    1  UNL1       -0.0003
      6 C         -28.3293    0.1745   30.9350 C.ar    1  UNL1       -0.0000
      7 C         -26.4077    0.3070   27.2259 C.3     1  UNL1        0.0592
      8 C         -26.8748    0.8389   26.2127 C.3     1  UNL1        0.1871
      9 C         -25.0813   -0.2883   27.1835 C.3     1  UNL1        0.0079
     10 C         -28.1776    1.4121   26.1391 C.ar    1  UNL1        0.0102
     11 C         -28.7338    1.7402   24.9200 C.ar    1  UNL1       -0.0016
     12 C         -29.9754    2.3651   24.8589 C.ar    1  UNL1       -0.0002
     13 C         -30.5789    2.8832   25.9991 C.ar    1  UNL1       -0.0000
     14 C         -29.9462    2.6555   27.2240 C.ar    1  UNL1       -0.0002
     15 C         -28.7889    2.0183   27.3138 C.ar    1  UNL1       -0.0016
     16 F         -26.2801    0.8508   25.0631 F       1  UNL1       -0.2321
@<TRIPOS>BOND
     1     3     7    1
     2     7     8    1
     3     7     9    1
     4     8    10    1
     5     8    16    1
     6     1     2   ar
     7     2     6   ar
     8     6     5   ar
     9     5     4   ar
    10     4     3   ar
    11     3     1   ar
    12    10    11   ar
    13    11    12   ar
    14    12    13   ar
    15    13    14   ar
    16    14    15   ar
    17    15    10   ar
