@<TRIPOS>MOLECULE
No_289-gen_results/8p0m/2024-11-26-14-13-15/
 21 23 0 0 0
SMALL
GASTEIGER

@<TRIPOS>ATOM
      1 C         -28.0162   -0.8135   28.8779 C.ar    1  UNL1        0.0046
      2 C         -27.0636   -0.1190   28.6079 C.ar    1  UNL1        0.0001
      3 C         -25.7923   -0.4302   29.0761 C.ar    1  UNL1        0.0000
      4 C         -24.5456    0.3494   28.8225 C.ar    1  UNL1        0.0000
      5 C         -23.2409    0.0217   29.3323 C.ar    1  UNL1        0.0000
      6 C         -22.1362    0.7695   29.0059 C.ar    1  UNL1        0.0000
      7 C         -27.9050   -1.8984   29.8729 C.ar    1  UNL1        0.0554
      8 C         -26.6795   -2.3145   30.3184 C.ar    1  UNL1        0.0046
      9 C         -25.5203   -1.5564   29.9775 C.ar    1  UNL1        0.0001
     10 C         -22.1253    1.7361   28.0244 C.ar    1  UNL1        0.0000
     11 C         -24.5436    1.3861   27.7916 C.ar    1  UNL1        0.0000
     12 C         -23.3374    2.0469   27.4517 C.ar    1  UNL1        0.0000
     13 C         -29.0599   -2.7170   30.2888 C.2     1  UNL1        0.2690
     14 N         -28.9656   -4.0144   30.4464 N.am    1  UNL1       -0.1754
     15 C         -30.0272   -4.8678   30.2366 C.ar    1  UNL1        0.0737
     16 C         -30.7375   -4.8304   29.1080 C.ar    1  UNL1        0.0166
     17 C         -31.5651   -5.9582   28.7723 C.ar    1  UNL1        0.0013
     18 C         -31.7114   -7.0128   29.6635 C.ar    1  UNL1        0.0001
     19 C         -30.0598   -6.1030   31.0620 C.ar    1  UNL1        0.0166
     20 C         -30.9156   -7.0394   30.8493 C.ar    1  UNL1        0.0013
     21 O         -30.1741   -2.1599   30.4047 O.2     1  UNL1       -0.2680
@<TRIPOS>BOND
     1     3     4    1
     2     7    13    1
     3    13    14   am
     4    14    15    1
     5    13    21    2
     6    15    16   ar
     7    16    17   ar
     8    17    18   ar
     9    18    20   ar
    10    20    19   ar
    11    19    15   ar
    12     1     2   ar
    13     2     3   ar
    14     3     9   ar
    15     9     8   ar
    16     8     7   ar
    17     7     1   ar
    18     4     5   ar
    19     5     6   ar
    20     6    10   ar
    21    10    12   ar
    22    12    11   ar
    23    11     4   ar
