@<TRIPOS>MOLECULE
No_2890-gen_results/8p0m/2024-11-26-14-13-15/
 15 15 0 0 0
SMALL
GASTEIGER

@<TRIPOS>ATOM
      1 C         -28.0162   -0.8135   28.8779 C.ar    1  UNL1       -0.0042
      2 C         -28.4690   -0.7850   29.8287 C.ar    1  UNL1       -0.0003
      3 C         -28.1960    0.3478   28.0550 C.ar    1  UNL1       -0.0207
      4 C         -29.0191    1.3501   28.3782 C.ar    1  UNL1       -0.0042
      5 C         -29.4107    0.1803   30.3782 C.ar    1  UNL1       -0.0000
      6 C         -29.6059    1.2495   29.6193 C.ar    1  UNL1       -0.0003
      7 C         -27.4478    0.3799   26.7122 C.3     1  UNL1        0.0457
      8 C         -25.9806    0.2547   26.7837 C.3     1  UNL1        0.0319
      9 C         -25.2375    1.2324   27.4671 C.2     1  UNL1       -0.0258
     10 C         -23.8851    0.9844   27.7611 C.2     1  UNL1       -0.0049
     11 C         -23.2090    1.0704   28.7324 C.2     1  UNL1       -0.0049
     12 C         -22.4100    0.4357   29.0682 C.2     1  UNL1       -0.0258
     13 C         -21.6991   -0.5906   29.4391 C.3     1  UNL1        0.0307
     14 C         -28.0627    0.4957   25.5042 C.3     1  UNL1        0.1139
     15 N         -27.6874    0.0101   24.5135 N.3     1  UNL1       -0.1310
@<TRIPOS>BOND
     1     3     7    1
     2     7     8    1
     3     8     9    1
     4     9    10    2
     5    10    11    1
     6    11    12    2
     7    12    13    1
     8     7    14    1
     9    14    15    1
    10     1     2   ar
    11     2     5   ar
    12     5     6   ar
    13     6     4   ar
    14     4     3   ar
    15     3     1   ar
