@<TRIPOS>MOLECULE
No_2891-gen_results/8p0m/2024-11-26-14-13-15/
 10 11 0 0 0
SMALL
GASTEIGER

@<TRIPOS>ATOM
      1 C         -28.0162   -0.8135   28.8779 C.ar    1  UNL1        0.0000
      2 C         -27.0636   -0.1190   28.6079 C.ar    1  UNL1        0.0000
      3 C         -26.9716    0.7139   27.5060 C.ar    1  UNL1        0.0000
      4 C         -28.1053    0.7744   26.6421 C.ar    1  UNL1        0.0000
      5 C         -29.2008    0.1044   27.0527 C.ar    1  UNL1        0.0000
      6 C         -29.2096   -0.6029   28.1853 C.ar    1  UNL1        0.0000
      7 C         -30.3702    0.2264   26.1604 C.ar    1  UNL1        0.0000
      8 C         -30.2454    0.3015   24.8693 C.ar    1  UNL1        0.0000
      9 C         -28.9873    0.9826   24.3857 C.ar    1  UNL1        0.0000
     10 C         -27.8778    1.0820   25.2420 C.ar    1  UNL1        0.0000
@<TRIPOS>BOND
     1     5     7   ar
     2     7     8   ar
     3     8     9   ar
     4     9    10   ar
     5    10     4   ar
     6     1     2   ar
     7     2     3   ar
     8     3     4   ar
     9     4     5   ar
    10     5     6   ar
    11     6     1   ar
