@<TRIPOS>MOLECULE
No_2892-gen_results/8p0m/2024-11-26-14-13-15/
 21 23 0 0 0
SMALL
GASTEIGER

@<TRIPOS>ATOM
      1 C         -28.0162   -0.8135   28.8779 C.ar    1  UNL1        0.0795
      2 C         -27.0636   -0.1190   28.6079 C.ar    1  UNL1        0.0026
      3 C         -26.9716    0.7139   27.5060 C.ar    1  UNL1       -0.0182
      4 C         -28.1053    0.7744   26.6421 C.ar    1  UNL1       -0.0037
      5 C         -29.2008    0.1044   27.0527 C.ar    1  UNL1       -0.0001
      6 C         -29.2096   -0.6029   28.1853 C.ar    1  UNL1        0.0066
      7 C         -30.3749    0.2232   26.1670 C.ar    1  UNL1       -0.0000
      8 C         -30.2608    0.1335   24.8550 C.ar    1  UNL1       -0.0000
      9 C         -28.9609    0.6395   24.3111 C.ar    1  UNL1       -0.0000
     10 C         -27.8389    0.8320   25.1832 C.ar    1  UNL1       -0.0003
     11 C         -27.8394   -1.5698   30.2299 C.2     1  UNL1        0.3877
     12 O         -26.8104   -2.1027   30.5098 O.co2   1  UNL1       -0.2406
     13 O         -28.9195   -1.8008   30.8987 O.co2   1  UNL1       -0.2406
     14 C         -25.6040    1.2676   27.2012 C.3     1  UNL1        0.0446
     15 C         -24.5263    0.7493   27.5755 C.ar    1  UNL1       -0.0184
     16 C         -23.4180    1.3983   27.9766 C.ar    1  UNL1       -0.0040
     17 C         -22.3438    0.8632   28.7245 C.ar    1  UNL1       -0.0003
     18 C         -22.4544   -0.4385   29.0538 C.ar    1  UNL1       -0.0000
     19 C         -23.5810   -1.2054   28.8109 C.ar    1  UNL1       -0.0003
     20 C         -24.6384   -0.6190   28.1759 C.ar    1  UNL1       -0.0040
     21 C         -25.6154    2.5965   26.5202 C.3     1  UNL1        0.0094
@<TRIPOS>BOND
     1     1    11    1
     2    11    12   ar
     3    11    13   ar
     4     3    14    1
     5    14    21    1
     6    14    15    1
     7     5     7   ar
     8     7     8   ar
     9     8     9   ar
    10     9    10   ar
    11    10     4   ar
    12     1     2   ar
    13     2     3   ar
    14     3     4   ar
    15     4     5   ar
    16     5     6   ar
    17     6     1   ar
    18    15    16   ar
    19    16    17   ar
    20    17    18   ar
    21    18    19   ar
    22    19    20   ar
    23    20    15   ar
