@<TRIPOS>MOLECULE
No_2894-gen_results/8p0m/2024-11-26-14-13-15/
 13 13 0 0 0
SMALL
GASTEIGER

@<TRIPOS>ATOM
      1 C         -28.0162   -0.8135   28.8779 C.ar    1  UNL1        0.0421
      2 C         -27.0636   -0.1189   28.6079 C.ar    1  UNL1        0.0061
      3 C         -25.7923   -0.4302   29.0761 C.ar    1  UNL1        0.0349
      4 C         -25.5756   -1.5654   29.9363 C.ar    1  UNL1        0.0061
      5 C         -26.7354   -2.3004   30.2173 C.ar    1  UNL1        0.0421
      6 C         -27.9184   -1.9537   29.7629 C.ar    1  UNL1        0.1957
      7 O         -29.0001   -2.7012   30.1151 O.3     1  UNL1       -0.2866
      8 C         -24.4133    0.1621   28.8546 C.2     1  UNL1        0.1722
      9 C         -24.0445    1.2607   29.5470 C.3     1  UNL1        0.0555
     10 C         -24.7286    1.8717   30.4589 C.3     1  UNL1        0.0077
     11 C         -23.4186    2.2220   28.5525 C.3     1  UNL1        0.0077
     12 C         -22.7297    0.6895   30.4157 C.3     1  UNL1        0.0077
     13 O         -23.8483   -0.1876   27.7461 O.2     1  UNL1       -0.2914
@<TRIPOS>BOND
     1     6     7    1
     2     3     8    1
     3     8     9    1
     4     9    10    1
     5     9    11    1
     6     9    12    1
     7     8    13    2
     8     1     2   ar
     9     2     3   ar
    10     3     4   ar
    11     4     5   ar
    12     5     6   ar
    13     6     1   ar
