@<TRIPOS>MOLECULE
No_2895-gen_results/8p0m/2024-11-26-14-13-15/
 35 37 0 0 0
SMALL
GASTEIGER

@<TRIPOS>ATOM
      1 C         -28.0162   -0.8135   28.8779 C.ar    1  UNL1        0.0045
      2 C         -27.0636   -0.1189   28.6079 C.ar    1  UNL1        0.0001
      3 C         -25.7923   -0.4302   29.0761 C.ar    1  UNL1        0.0000
      4 C         -25.5756   -1.5654   29.9363 C.ar    1  UNL1        0.0001
      5 C         -26.7354   -2.3004   30.2173 C.ar    1  UNL1        0.0045
      6 C         -27.9184   -1.9537   29.7629 C.ar    1  UNL1        0.0536
      7 C         -27.1057    1.1023   27.7593 C.ar    1  UNL1       -0.0002
      8 C         -27.8576    1.5309   27.2156 C.ar    1  UNL1       -0.0000
      9 C         -28.0991    2.2992   26.4301 C.ar    1  UNL1       -0.0002
     10 C         -26.9543    3.1837   26.0254 C.ar    1  UNL1        0.0001
     11 C         -25.7574    2.8807   26.5755 C.ar    1  UNL1        0.0308
     12 C         -25.7339    1.7924   27.4542 C.ar    1  UNL1        0.0001
     13 C         -28.9872   -2.8377   30.2927 C.2     1  UNL1        0.2490
     14 N         -30.1355   -2.3728   30.5016 N.am    1  UNL1       -0.2756
     15 O         -28.7836   -4.0621   30.4231 O.2     1  UNL1       -0.2699
     16 C         -31.3090   -3.1751   30.9332 C.3     1  UNL1        0.0937
     17 C         -24.5153    3.5922   26.3043 C.3     1  UNL1        0.2782
     18 N         -24.4288    4.8725   26.6062 N.pl3   1  UNL1       -0.1757
     19 F         -23.5029    2.9978   25.9512 F       1  UNL1       -0.2080
     20 C         -32.3649   -2.9434   30.3743 C.3     1  UNL1        0.0221
     21 C         -32.6839   -1.6286   30.1653 C.3     1  UNL1        0.0126
     22 C         -31.6401   -0.6631   29.8728 C.3     1  UNL1        0.0984
     23 C         -30.4637   -1.0760   29.9971 C.3     1  UNL1        0.1028
     24 C         -32.0540    0.6849   29.3705 C.2     1  UNL1        0.2468
     25 N         -32.6893    1.4886   30.1423 N.am    1  UNL1       -0.1764
     26 C         -33.0844    2.6341   29.8725 C.2     1  UNL1        0.1065
     27 O         -32.0396    0.9437   28.1477 O.2     1  UNL1       -0.2729
     28 C         -25.0457    5.5395   27.5724 C.2     1  UNL1        0.2064
     29 C         -24.9509    6.9882   27.6098 C.2     1  UNL1        0.0252
     30 F         -25.1949    4.9392   28.6369 F       1  UNL1       -0.1866
     31 C         -25.9328    7.6524   27.8252 C.3     1  UNL1        0.0558
     32 C         -27.1291    7.2630   28.1751 C.2     1  UNL1       -0.0213
     33 C         -28.2712    8.1032   28.3511 C.2     1  UNL1       -0.0042
     34 C         -29.5348    7.5981   28.7145 C.2     1  UNL1       -0.0003
     35 C         -29.6370    6.2019   28.9162 C.2     1  UNL1       -0.0000
@<TRIPOS>BOND
     1     2     7    1
     2     6    13    1
     3    13    14   am
     4    13    15    2
     5    14    16    1
     6    11    17    1
     7    17    18    1
     8    17    19    1
     9    16    20    1
    10    21    22    1
    11    14    23    1
    12    22    24    1
    13    24    25    1
    14    25    26    2
    15    24    27    2
    16    18    28    1
    17    28    29    2
    18    28    30    1
    19    29    31    1
    20    31    32    1
    21    32    33    2
    22    33    34    1
    23    34    35    2
    24    20    21    1
    25    22    23    1
    26     1     2   ar
    27     2     3   ar
    28     3     4   ar
    29     4     5   ar
    30     5     6   ar
    31     6     1   ar
    32     7     8   ar
    33     8     9   ar
    34     9    10   ar
    35    10    11   ar
    36    11    12   ar
    37    12     7   ar
