@<TRIPOS>MOLECULE
No_2896-gen_results/8p0m/2024-11-26-14-13-15/
 5 4 0 0 0
SMALL
GASTEIGER

@<TRIPOS>ATOM
      1 F         -28.0727   -1.2542   28.5316 F       1  UNL1       -0.2018
      2 C         -27.3591   -0.3792   28.7224 C.2     1  UNL1        0.1674
      3 C         -26.3323   -0.6441   29.4520 C.2     1  UNL1        0.0320
      4 C         -26.0196   -2.0052   30.0335 C.2     1  UNL1        0.0024
      5 C         -27.0974   -2.8962   29.8925 C.2     1  UNL1        0.0001
@<TRIPOS>BOND
     1     1     2    1
     2     2     3    2
     3     3     4    1
     4     4     5    2
