@<TRIPOS>MOLECULE
No_2897-gen_results/8p0m/2024-11-26-14-13-15/
 21 23 0 0 0
SMALL
GASTEIGER

@<TRIPOS>ATOM
      1 C         -28.0162   -0.8135   28.8779 C.ar    1  UNL1        0.0029
      2 C         -28.4690   -0.7850   29.8287 C.ar    1  UNL1        0.0001
      3 C         -26.5042   -0.7777   28.8766 C.ar    1  UNL1        0.0350
      4 C         -25.6540   -0.6597   27.7191 C.2     1  UNL1        0.1759
      5 C         -27.9180   -0.9374   31.1824 C.ar    1  UNL1        0.0000
      6 C         -26.5423   -0.9399   31.2606 C.ar    1  UNL1        0.0001
      7 C         -25.7832   -0.8935   30.1201 C.ar    1  UNL1        0.0029
      8 C         -25.2134    0.6923   27.3830 C.3     1  UNL1        0.0742
      9 C         -25.3646    1.1004   26.0936 C.3     1  UNL1        0.0106
     10 C         -23.7701    0.9821   27.7608 C.ar    1  UNL1       -0.0159
     11 C         -23.3936    2.0615   28.2858 C.ar    1  UNL1       -0.0039
     12 C         -21.9321    2.1976   28.5778 C.ar    1  UNL1       -0.0003
     13 C         -21.0755    1.0476   28.2756 C.ar    1  UNL1       -0.0000
     14 C         -21.5892   -0.1126   28.0247 C.ar    1  UNL1       -0.0003
     15 C         -22.9208   -0.1803   27.7606 C.ar    1  UNL1       -0.0039
     16 C         -26.0597    1.8253   28.2360 C.3     1  UNL1        0.0113
     17 C         -26.4434    2.8782   27.6311 C.3     1  UNL1        0.0008
     18 C         -26.5257    3.0712   26.3045 C.3     1  UNL1        0.0000
     19 C         -24.8159    0.1410   25.1937 C.3     1  UNL1        0.0008
     20 C         -25.9423    2.1960   25.5184 C.3     1  UNL1        0.0007
     21 O         -25.3502   -1.5924   27.1366 O.2     1  UNL1       -0.2910
@<TRIPOS>BOND
     1     3     4    1
     2     4     8    1
     3     8     9    1
     4     8    10    1
     5     8    16    1
     6    17    18    1
     7     9    19    1
     8     9    20    1
     9     4    21    2
    10    20    18    1
    11    17    16    1
    12     1     2   ar
    13     2     5   ar
    14     5     6   ar
    15     6     7   ar
    16     7     3   ar
    17     3     1   ar
    18    10    11   ar
    19    11    12   ar
    20    12    13   ar
    21    13    14   ar
    22    14    15   ar
    23    15    10   ar
