@<TRIPOS>MOLECULE
No_2898-gen_results/8p0m/2024-11-26-14-13-15/
 14 15 0 0 0
SMALL
GASTEIGER

@<TRIPOS>ATOM
      1 C         -28.0162   -0.8135   28.8779 C.ar    1  UNL1       -0.0003
      2 C         -27.0636   -0.1189   28.6079 C.ar    1  UNL1       -0.0000
      3 C         -25.7923   -0.4302   29.0761 C.ar    1  UNL1       -0.0003
      4 C         -25.5756   -1.5654   29.9363 C.ar    1  UNL1       -0.0043
      5 C         -26.7354   -2.3004   30.2173 C.ar    1  UNL1       -0.0222
      6 C         -26.5841   -3.5078   30.9846 C.3     1  UNL1        0.0264
      7 C         -27.9637   -1.9827   29.6995 C.ar    1  UNL1       -0.0043
      8 C         -27.1032    1.1583   27.7858 C.ar    1  UNL1       -0.0000
      9 C         -27.8989    1.7020   27.4633 C.ar    1  UNL1       -0.0000
     10 C         -27.8964    2.9135   26.5272 C.ar    1  UNL1        0.0000
     11 C         -26.6928    3.3303   26.0145 C.ar    1  UNL1        0.0000
     12 C         -25.5282    2.6236   26.3897 C.ar    1  UNL1        0.0000
     13 C         -25.6293    1.5735   27.2555 C.ar    1  UNL1       -0.0000
     14 C         -26.7369   -4.5986   29.8796 C.3     1  UNL1        0.0050
@<TRIPOS>BOND
     1     5     6    1
     2     2     8    1
     3     6    14    1
     4     1     2   ar
     5     2     3   ar
     6     3     4   ar
     7     4     5   ar
     8     5     7   ar
     9     7     1   ar
    10     8     9   ar
    11     9    10   ar
    12    10    11   ar
    13    11    12   ar
    14    12    13   ar
    15    13     8   ar
