@<TRIPOS>MOLECULE
No_2899-gen_results/8p0m/2024-11-26-14-13-15/
 35 38 0 0 0
SMALL
GASTEIGER

@<TRIPOS>ATOM
      1 C         -28.0162   -0.8135   28.8779 C.ar    1  UNL1        0.0046
      2 C         -27.0636   -0.1190   28.6079 C.ar    1  UNL1       -0.0002
      3 C         -25.7647   -0.3897   29.0360 C.ar    1  UNL1       -0.0037
      4 C         -24.5516    0.4058   28.7646 C.ar    1  UNL1       -0.0190
      5 C         -23.2300    0.1178   29.2575 C.ar    1  UNL1       -0.0040
      6 C         -23.0942   -1.1309   29.8730 C.ar    1  UNL1       -0.0003
      7 C         -27.7981   -1.9341   29.8560 C.ar    1  UNL1        0.0550
      8 C         -26.5420   -2.3269   30.2580 C.ar    1  UNL1        0.0046
      9 C         -25.4514   -1.5516   29.9079 C.ar    1  UNL1       -0.0001
     10 C         -24.1562   -1.9097   30.2809 C.ar    1  UNL1       -0.0000
     11 C         -24.6450    1.6582   27.9464 C.3     1  UNL1        0.0377
     12 C         -25.0764    1.5784   26.6992 C.3     1  UNL1        0.0088
     13 C         -23.2842    2.4009   28.0085 C.3     1  UNL1        0.0088
     14 C         -25.5975    2.6286   28.7777 C.2     1  UNL1       -0.0190
     15 C         -26.3594    3.5222   28.0426 C.2     1  UNL1       -0.0043
     16 C         -25.6348    2.6787   30.2135 C.ar    1  UNL1       -0.0037
     17 C         -24.8533    3.0001   31.0678 C.ar    1  UNL1       -0.0003
     18 C         -25.0876    3.0639   32.4970 C.ar    1  UNL1       -0.0000
     19 C         -26.2399    2.4361   32.9807 C.ar    1  UNL1       -0.0000
     20 C         -27.1403    1.9345   32.0525 C.ar    1  UNL1       -0.0000
     21 C         -26.9296    2.0354   30.7010 C.ar    1  UNL1       -0.0003
     22 C         -28.3694    1.3016   32.6088 C.ar    1  UNL1       -0.0000
     23 C         -28.2562    0.0347   33.1342 C.ar    1  UNL1       -0.0000
     24 C         -29.6139    1.8933   32.4357 C.ar    1  UNL1       -0.0000
     25 C         -29.3785   -0.7343   33.4032 C.ar    1  UNL1        0.0000
     26 C         -30.7686    1.1360   32.7953 C.ar    1  UNL1        0.0000
     27 C         -30.6197   -0.1404   33.3260 C.ar    1  UNL1        0.0000
     28 C         -29.0279   -2.7413   30.2431 C.2     1  UNL1        0.2651
     29 O         -30.1404   -2.3208   30.0948 O.2     1  UNL1       -0.2684
     30 N         -28.7790   -4.0802   30.5071 N.am    1  UNL1       -0.1968
     31 C         -29.8755   -4.9548   30.8643 C.3     1  UNL1        0.1415
     32 C         -30.7629   -5.2060   29.8873 C.2     1  UNL1       -0.0028
     33 C         -30.6014   -5.0447   28.7001 C.2     1  UNL1       -0.0028
     34 C         -31.3986   -5.5017   27.5825 C.2     1  UNL1       -0.0003
     35 C         -32.5515   -6.1635   27.8625 C.2     1  UNL1       -0.0000
@<TRIPOS>BOND
     1     4    11    1
     2    11    12    1
     3    11    13    1
     4    11    14    1
     5    14    15    2
     6    14    16    1
     7    20    22    1
     8     7    28    1
     9    28    29    2
    10    28    30   am
    11    30    31    1
    12    31    32    1
    13    32    33    2
    14    33    34    1
    15    34    35    2
    16    16    17   ar
    17    17    18   ar
    18    18    19   ar
    19    19    20   ar
    20    20    21   ar
    21    21    16   ar
    22     1     2   ar
    23     2     3   ar
    24     9     8   ar
    25     8     7   ar
    26     7     1   ar
    27    22    23   ar
    28    23    25   ar
    29    25    27   ar
    30    27    26   ar
    31    26    24   ar
    32    24    22   ar
    33     3     4   ar
    34     4     5   ar
    35     5     6   ar
    36     6    10   ar
    37    10     9   ar
    38     9     3   ar
