@<TRIPOS>MOLECULE
No_29-gen_results/8p0m/2024-11-26-14-13-15/
 16 18 0 0 0
SMALL
GASTEIGER

@<TRIPOS>ATOM
      1 C         -28.0162   -0.8135   28.8779 C.ar    1  UNL1        0.0334
      2 C         -28.4690   -0.7850   29.8287 C.ar    1  UNL1        0.1465
      3 C         -27.1356    0.2359   28.5352 C.ar    1  UNL1       -0.0162
      4 C         -26.8745    1.2825   29.3982 C.ar    1  UNL1        0.0337
      5 C         -28.3613    0.1987   30.9244 C.ar    1  UNL1        0.0424
      6 C         -27.5277    1.2234   30.6356 C.ar    1  UNL1        0.0063
      7 C         -26.3503    0.5073   27.2580 C.3     1  UNL1        0.0298
      8 C         -25.2162    0.8642   27.1708 C.3     1  UNL1        0.0480
      9 C         -24.8005    1.8499   28.1982 C.3     1  UNL1        0.2222
     10 C         -25.5719    1.9548   29.3779 C.2     1  UNL1        0.2050
     11 F         -23.6876    2.5665   28.0111 F       1  UNL1       -0.2289
     12 O         -25.1774    2.8478   30.3257 O.2     1  UNL1       -0.2885
     13 O         -29.4829   -1.7942   30.1875 O.3     1  UNL1       -0.4422
     14 C         -29.7787   -2.1402   31.4510 C.2     1  UNL1        0.2215
     15 C         -29.0445    0.0129   32.1927 C.2     1  UNL1        0.0476
     16 C         -29.9352   -1.0810   32.3945 C.1     1  UNL1       -0.0606
@<TRIPOS>BOND
     1     3     7    1
     2     8     9    1
     3     4    10    1
     4     9    10    1
     5     9    11    1
     6    10    12    2
     7     2    13    1
     8    13    14    1
     9     5    15    1
    10    14    16    2
    11    15    16    2
    12     7     8    1
    13     1     2   ar
    14     2     5   ar
    15     5     6   ar
    16     6     4   ar
    17     4     3   ar
    18     3     1   ar
