@<TRIPOS>MOLECULE
No_290-gen_results/8p0m/2024-11-26-14-13-15/
 10 10 0 0 0
SMALL
GASTEIGER

@<TRIPOS>ATOM
      1 N         -28.0544   -1.0498   28.7246 N.ar    1  UNL1       -0.2274
      2 C         -26.9659   -0.4722   28.7709 C.ar    1  UNL1        0.1518
      3 C         -25.9289   -1.0196   29.5059 C.ar    1  UNL1        0.0361
      4 C         -26.0392   -2.3100   29.9652 C.ar    1  UNL1        0.0045
      5 C         -27.2341   -2.9104   29.9250 C.ar    1  UNL1        0.0208
      6 C         -28.2579   -2.1991   29.3918 C.ar    1  UNL1        0.1004
      7 N         -26.9689    0.7885   28.2478 N.pl3   1  UNL1       -0.1932
      8 C         -27.4645    1.7325   28.2651 C.2     1  UNL1        0.0828
      9 C         -28.0860    2.1417   29.2487 C.2     1  UNL1       -0.0079
     10 C         -28.8859    3.4260   29.2554 C.3     1  UNL1        0.0321
@<TRIPOS>BOND
     1     2     7    1
     2     7     8    1
     3     8     9    2
     4     9    10    1
     5     1     2   ar
     6     2     3   ar
     7     3     4   ar
     8     4     5   ar
     9     5     6   ar
    10     6     1   ar
