@<TRIPOS>MOLECULE
No_2900-gen_results/8p0m/2024-11-26-14-13-15/
 35 37 0 0 0
SMALL
GASTEIGER

@<TRIPOS>ATOM
      1 O         -28.1229   -1.3353   28.4874 O.2     1  UNL1       -0.2691
      2 C         -27.4806   -0.4044   28.7094 C.2     1  UNL1        0.2589
      3 C         -26.3804   -0.0867   27.9394 C.ar    1  UNL1        0.0584
      4 N         -27.6664    0.4468   29.8988 N.am    1  UNL1       -0.2002
      5 C         -26.4086    0.8567   26.8802 C.ar    1  UNL1        0.0598
      6 C         -25.0824   -0.6970   28.1699 C.ar    1  UNL1        0.0006
      7 C         -25.2842    1.0488   26.0470 C.ar    1  UNL1        0.0047
      8 C         -23.9159   -0.3440   27.4444 C.ar    1  UNL1       -0.0002
      9 C         -24.0618    0.5290   26.3707 C.ar    1  UNL1        0.0001
     10 C         -28.7784    0.1033   30.7872 C.2     1  UNL1        0.2585
     11 C         -26.8454    1.5246   30.2211 C.2     1  UNL1        0.0711
     12 C         -26.0878    1.4823   31.0460 C.2     1  UNL1       -0.0048
     13 C         -25.9041    0.8642   32.1683 C.3     1  UNL1        0.0538
     14 C         -26.7878    0.4063   32.8154 C.ar    1  UNL1       -0.0134
     15 C         -26.7528   -0.1241   34.1636 C.ar    1  UNL1       -0.0038
     16 C         -27.8883   -0.6753   34.8509 C.ar    1  UNL1       -0.0003
     17 C         -29.0588   -0.7763   34.1375 C.ar    1  UNL1        0.0001
     18 C         -29.1804   -0.3405   32.8666 C.ar    1  UNL1        0.0042
     19 C         -28.1979    0.1859   32.2566 C.ar    1  UNL1        0.0507
     20 O         -29.7304    0.5740   30.4594 O.2     1  UNL1       -0.2692
     21 C         -24.8934   -1.6214   29.3187 C.2     1  UNL1       -0.0205
     22 C         -23.8623   -2.3130   29.6269 C.2     1  UNL1       -0.0045
     23 C         -26.0516   -1.9556   30.1670 C.3     1  UNL1        0.0468
     24 C         -26.3365   -3.3360   30.3044 C.3     1  UNL1        0.1140
     25 N         -26.8304   -4.0050   29.4225 N.3     1  UNL1       -0.1310
     26 C         -27.7337    1.4018   26.4699 C.2     1  UNL1        0.2692
     27 N         -28.7174    1.1032   26.3061 N.am    1  UNL1       -0.1741
     28 C         -29.0613   -0.1297   25.8014 C.2     1  UNL1        0.0889
     29 O         -27.4169    2.7612   26.2766 O.2     1  UNL1       -0.2680
     30 C         -30.1786   -0.0332   24.8635 C.2     1  UNL1        0.0179
     31 C         -30.8470   -1.3290   24.6083 C.2     1  UNL1        0.0014
     32 C         -30.5969   -2.2862   25.5137 C.2     1  UNL1       -0.0003
     33 C         -31.5168   -3.4172   25.3998 C.2     1  UNL1       -0.0046
     34 C         -32.8357   -3.1565   24.7855 C.2     1  UNL1       -0.0258
     35 C         -33.0503   -2.0344   24.0590 C.3     1  UNL1        0.0307
@<TRIPOS>BOND
     1     1     2    2
     2     2     3    1
     3     2     4   am
     4     4    10   am
     5     4    11    1
     6    11    12    2
     7    12    13    1
     8    10    19    1
     9    10    20    2
    10     6    21    1
    11    21    22    2
    12    21    23    1
    13    23    24    1
    14    24    25    1
    15     5    26    1
    16    26    27   am
    17    27    28    1
    18    26    29    2
    19    28    30    2
    20    30    31    1
    21    31    32    2
    22    32    33    1
    23    33    34    2
    24    34    35    1
    25    13    14    1
    26    14    15   ar
    27    15    16   ar
    28    16    17   ar
    29    17    18   ar
    30    18    19   ar
    31    19    14   ar
    32     3     5   ar
    33     5     7   ar
    34     7     9   ar
    35     9     8   ar
    36     8     6   ar
    37     6     3   ar
