@<TRIPOS>MOLECULE
No_2902-gen_results/8p0m/2024-11-26-14-13-15/
 20 21 0 0 0
SMALL
GASTEIGER

@<TRIPOS>ATOM
      1 C         -28.0162   -0.8135   28.8779 C.3     1  UNL1        0.0091
      2 C         -28.4690   -0.7850   29.8287 C.3     1  UNL1        0.0770
      3 C         -27.0871    0.2903   28.6377 C.3     1  UNL1        0.0005
      4 C         -26.0238    0.3644   29.2526 C.3     1  UNL1        0.0000
      5 C         -26.2460    0.4334   30.7986 C.3     1  UNL1        0.0005
      6 C         -27.7081   -0.6876   31.1981 C.3     1  UNL1        0.0091
      7 C         -26.6631    0.4296   27.0711 C.3     1  UNL1        0.0000
      8 C         -26.2942    1.7391   26.6506 C.3     1  UNL1        0.0000
      9 C         -29.7942   -1.3324   30.2827 C.2     1  UNL1        0.2289
     10 O         -29.9852   -2.4147   30.7114 O.2     1  UNL1       -0.2745
     11 N         -30.8477   -0.5495   29.9524 N.am    1  UNL1       -0.2569
     12 C         -32.2190   -0.9946   30.1057 C.3     1  UNL1        0.1200
     13 C         -30.6739    0.8052   29.4235 C.ar    1  UNL1        0.0540
     14 C         -31.1108    1.0150   28.2247 C.ar    1  UNL1        0.0149
     15 C         -30.8867    2.3474   27.7413 C.ar    1  UNL1        0.0014
     16 C         -30.1464    3.2541   28.4848 C.ar    1  UNL1        0.0034
     17 C         -29.7570    2.9379   29.7793 C.ar    1  UNL1        0.0434
     18 C         -30.0020    1.7084   30.2360 C.ar    1  UNL1        0.0182
     19 C         -29.0240    3.9672   30.5858 C.2     1  UNL1        0.2342
     20 O         -28.9501    4.9908   30.3314 O.2     1  UNL1       -0.2831
@<TRIPOS>BOND
     1     1     2    1
     2     1     3    1
     3     3     4    1
     4     4     5    1
     5     2     6    1
     6     5     6    1
     7     3     7    1
     8     7     8    1
     9     2     9    1
    10     9    10    2
    11     9    11   am
    12    11    12    1
    13    11    13    1
    14    17    19    1
    15    19    20    2
    16    13    14   ar
    17    14    15   ar
    18    15    16   ar
    19    16    17   ar
    20    17    18   ar
    21    18    13   ar
