@<TRIPOS>MOLECULE
No_2905-gen_results/8p0m/2024-11-26-14-13-15/
 20 21 0 0 0
SMALL
GASTEIGER

@<TRIPOS>ATOM
      1 C         -28.0162   -0.8135   28.8779 C.ar    1  UNL1        0.0483
      2 C         -27.0636   -0.1189   28.6079 C.ar    1  UNL1        0.0607
      3 C         -25.7923   -0.4302   29.0761 C.ar    1  UNL1        0.0116
      4 C         -25.5756   -1.5654   29.9363 C.ar    1  UNL1        0.0040
      5 C         -26.7354   -2.3004   30.2173 C.ar    1  UNL1        0.0370
      6 C         -27.9184   -1.9537   29.7629 C.ar    1  UNL1        0.1399
      7 CL        -26.9765    1.2687   27.5310 Cl      1  UNL1       -0.0821
      8 O         -29.0098   -2.6945   30.1155 O.3     1  UNL1       -0.4706
      9 C         -28.8862   -3.9242   30.6746 C.3     1  UNL1        0.2317
     10 C         -30.0004   -4.7333   30.3182 C.ar    1  UNL1        0.0175
     11 C         -31.1699   -4.2814   30.7420 C.ar    1  UNL1       -0.0183
     12 C         -31.4346   -3.4124   31.3730 C.3     1  UNL1        0.0528
     13 C         -31.9830   -2.6697   31.7681 C.2     1  UNL1       -0.0126
     14 C         -32.6612   -1.6048   32.3953 C.2     1  UNL1        0.0460
     15 C         -32.8858   -0.4640   32.7969 C.1     1  UNL1       -0.0509
     16 C         -33.0512    0.6561   33.2335 C.1     1  UNL1       -0.0092
     17 C         -32.3276   -5.2434   30.2521 C.ar    1  UNL1       -0.0041
     18 C         -32.1048   -6.1169   29.4697 C.ar    1  UNL1       -0.0003
     19 C         -30.7814   -6.5123   28.9080 C.ar    1  UNL1       -0.0002
     20 C         -29.7566   -5.7723   29.3750 C.ar    1  UNL1       -0.0010
@<TRIPOS>BOND
     1     2     7    1
     2     6     8    1
     3     8     9    1
     4     9    10    1
     5    12    13    1
     6    13    14    2
     7    14    15    1
     8    15    16    3
     9    12    11    1
    10     1     2   ar
    11     2     3   ar
    12     3     4   ar
    13     4     5   ar
    14     5     6   ar
    15     6     1   ar
    16    10    11   ar
    17    11    17   ar
    18    17    18   ar
    19    18    19   ar
    20    19    20   ar
    21    20    10   ar
