@<TRIPOS>MOLECULE
No_2908-gen_results/8p0m/2024-11-26-14-13-15/
 10 10 0 0 0
SMALL
GASTEIGER

@<TRIPOS>ATOM
      1 C         -28.0162   -0.8135   28.8779 C.ar    1  UNL1        0.0129
      2 C         -28.4690   -0.7850   29.8287 C.ar    1  UNL1        0.0578
      3 C         -26.5042   -0.7777   28.8766 C.ar    1  UNL1        0.0200
      4 C         -25.8103   -0.8531   30.1028 C.ar    1  UNL1        0.0830
      5 C         -27.9906   -0.8916   31.2257 C.ar    1  UNL1        0.0129
      6 C         -26.6042   -0.8676   31.2652 C.ar    1  UNL1        0.0200
      7 CL        -30.2937   -0.8377   29.8355 Cl      1  UNL1       -0.0822
      8 N         -24.4554   -0.8153   30.1264 N.2     1  UNL1       -0.2250
      9 C         -23.6553   -1.2801   30.5512 C.2     1  UNL1        0.2047
     10 N         -22.2729   -0.9697   30.4432 N.pl3   1  UNL1       -0.1041
@<TRIPOS>BOND
     1     2     7    1
     2     4     8    1
     3     8     9    2
     4     9    10    1
     5     1     2   ar
     6     2     5   ar
     7     5     6   ar
     8     6     4   ar
     9     4     3   ar
    10     3     1   ar
