@<TRIPOS>MOLECULE
No_2909-gen_results/8p0m/2024-11-26-14-13-15/
 12 12 0 0 0
SMALL
GASTEIGER

@<TRIPOS>ATOM
      1 C         -28.0162   -0.8135   28.8779 C.ar    1  UNL1        0.0420
      2 C         -27.0636   -0.1190   28.6079 C.ar    1  UNL1        0.0030
      3 C         -26.8756    1.1325   28.9134 C.ar    1  UNL1       -0.0027
      4 C         -27.9014    1.8066   29.6436 C.ar    1  UNL1        0.0030
      5 C         -29.0458   -0.2316   29.7181 C.ar    1  UNL1        0.1957
      6 C         -28.9402    1.0517   30.0597 C.ar    1  UNL1        0.0420
      7 O         -30.0593   -1.0632   30.0946 O.3     1  UNL1       -0.2866
      8 C         -25.6684    1.9362   28.4484 C.2     1  UNL1       -0.0074
      9 C         -24.9348    1.7160   27.6796 C.2     1  UNL1       -0.0286
     10 C         -23.7118    2.4802   27.3226 C.3     1  UNL1        0.0304
     11 C         -25.4691    3.2433   29.2044 C.3     1  UNL1        0.1353
     12 N         -26.2608    3.6523   30.2338 N.3     1  UNL1       -0.1262
@<TRIPOS>BOND
     1     5     7    1
     2     3     8    1
     3     8     9    2
     4     9    10    1
     5     8    11    1
     6    11    12    1
     7     1     2   ar
     8     2     3   ar
     9     3     4   ar
    10     4     6   ar
    11     6     5   ar
    12     5     1   ar
