@<TRIPOS>MOLECULE
No_2910-gen_results/8p0m/2024-11-26-14-13-15/
 20 23 0 0 0
SMALL
GASTEIGER

@<TRIPOS>ATOM
      1 C         -28.0162   -0.8135   28.8779 C.ar    1  UNL1        0.0063
      2 C         -27.0636   -0.1189   28.6079 C.ar    1  UNL1       -0.0034
      3 C         -26.9716    0.7139   27.5060 C.ar    1  UNL1       -0.0005
      4 C         -25.8205    1.4909   27.1160 C.ar    1  UNL1       -0.0007
      5 C         -25.7505    2.3193   26.0233 C.ar    1  UNL1        0.0189
      6 C         -26.8263    2.2181   25.1373 C.ar    1  UNL1        0.0015
      7 C         -27.9219    1.4707   25.3693 C.ar    1  UNL1        0.0000
      8 C         -27.9201    0.7049   26.5395 C.ar    1  UNL1       -0.0000
      9 C         -28.0691   -1.5855   30.1465 C.ar    1  UNL1        0.0798
     10 C         -26.8934   -1.7725   30.8693 C.ar    1  UNL1        0.0063
     11 C         -25.7089   -1.1804   30.4661 C.ar    1  UNL1       -0.0037
     12 C         -25.7600   -0.3315   29.3682 C.ar    1  UNL1       -0.0177
     13 C         -29.2818   -2.3225   30.5501 C.2     1  UNL1        0.3878
     14 O         -29.2620   -3.4911   30.8831 O.co2   1  UNL1       -0.2406
     15 O         -30.4365   -1.8354   30.1212 O.co2   1  UNL1       -0.2406
     16 C         -24.5571    3.1434   25.8189 C.ar    1  UNL1        0.0988
     17 N         -23.3839    2.7049   26.3048 N.ar    1  UNL1       -0.2426
     18 C         -23.3253    2.1108   27.5538 C.ar    1  UNL1        0.0949
     19 C         -24.5354    1.3494   27.9348 C.ar    1  UNL1        0.0014
     20 C         -24.6306    0.4768   28.9156 C.3     1  UNL1        0.0542
@<TRIPOS>BOND
     1     2     3    1
     2     9    13    1
     3    13    14   ar
     4    13    15   ar
     5    12    20    1
     6    19    20    1
     7     1     2   ar
     8     2    12   ar
     9    12    11   ar
    10    11    10   ar
    11    10     9   ar
    12     9     1   ar
    13     5    16   ar
    14    16    17   ar
    15    17    18   ar
    16    18    19   ar
    17    19     4   ar
    18     3     4   ar
    19     4     5   ar
    20     5     6   ar
    21     6     7   ar
    22     7     8   ar
    23     8     3   ar
