@<TRIPOS>MOLECULE
No_2911-gen_results/8p0m/2024-11-26-14-13-15/
 35 38 0 0 0
SMALL
GASTEIGER

@<TRIPOS>ATOM
      1 C         -28.0162   -0.8135   28.8779 C.ar    1  UNL1        0.0522
      2 C         -28.4690   -0.7850   29.8287 C.2     1  UNL1        0.2710
      3 C         -28.1816    0.4277   28.1134 C.ar    1  UNL1       -0.0056
      4 C         -27.4498    0.6435   26.8500 C.ar    1  UNL1       -0.0076
      5 C         -26.1815    0.0357   26.7145 C.ar    1  UNL1       -0.0228
      6 C         -25.7800   -0.9326   27.6938 C.ar    1  UNL1       -0.0041
      7 C         -26.5568   -1.2134   28.7413 C.ar    1  UNL1        0.0040
      8 N         -29.6101   -0.2783   30.1938 N.am    1  UNL1       -0.1404
      9 O         -28.0389   -1.6599   30.8481 O.2     1  UNL1       -0.2679
     10 C         -30.2554    0.6637   29.4565 C.2     1  UNL1        0.2559
     11 C         -29.5243    1.0320   28.2809 C.3     1  UNL1        0.1231
     12 O         -31.3130    1.2283   29.7366 O.2     1  UNL1       -0.2722
     13 C         -29.9604    2.0087   27.3127 C.ar    1  UNL1       -0.0097
     14 C         -25.3174    0.3555   25.6031 C.3     1  UNL1        0.0228
     15 C         -24.3081    1.3206   25.8566 C.3     1  UNL1        0.0134
     16 C         -23.5996    1.6589   26.8263 C.3     1  UNL1        0.0774
     17 C         -24.1877    1.9828   28.1025 C.2     1  UNL1        0.2309
     18 N         -24.9705    2.9685   28.2799 N.am    1  UNL1       -0.2297
     19 C         -25.3318    3.8887   27.3852 C.3     1  UNL1        0.1009
     20 C         -26.3598    4.8742   27.8634 C.3     1  UNL1        0.0228
     21 C         -25.7823    3.0117   29.5259 C.2     1  UNL1        0.2349
     22 O         -25.5526    2.1122   30.4270 O.2     1  UNL1       -0.2741
     23 C         -26.7996    3.9913   29.6690 C.3     1  UNL1        0.0987
     24 C         -27.0467    4.9427   28.8713 C.3     1  UNL1        0.0153
     25 O         -23.6517    1.3109   29.0964 O.2     1  UNL1       -0.2745
     26 C         -22.1663    1.9834   26.7128 C.3     1  UNL1        0.0096
     27 C         -25.7261   -0.0253   24.3490 C.3     1  UNL1        0.0047
     28 C         -31.1402    2.1285   26.8350 C.ar    1  UNL1       -0.0035
     29 C         -31.4880    3.0969   25.8881 C.ar    1  UNL1       -0.0003
     30 C         -30.4518    4.0423   25.4635 C.ar    1  UNL1       -0.0000
     31 C         -29.1745    3.9465   25.9917 C.ar    1  UNL1       -0.0003
     32 C         -28.8971    3.0208   26.9101 C.ar    1  UNL1       -0.0035
     33 C         -27.5789    3.8784   31.0173 C.2     1  UNL1       -0.0219
     34 C         -28.9504    3.9969   30.9853 C.2     1  UNL1       -0.0299
     35 C         -29.6297    4.5536   29.9305 C.3     1  UNL1        0.0304
@<TRIPOS>BOND
     1     1     2    1
     2     2     8   am
     3     2     9    2
     4     8    10   am
     5     3    11    1
     6    10    11    1
     7    10    12    2
     8    11    13    1
     9     5    14    1
    10    14    15    1
    11    15    16    1
    12    16    17    1
    13    17    18   am
    14    18    19    1
    15    18    21   am
    16    21    22    2
    17    21    23    1
    18    20    24    1
    19    17    25    2
    20    16    26    1
    21    14    27    1
    22    23    33    1
    23    33    34    2
    24    34    35    1
    25    19    20    1
    26    24    23    1
    27    13    28   ar
    28    28    29   ar
    29    29    30   ar
    30    30    31   ar
    31    31    32   ar
    32    32    13   ar
    33     1     7   ar
    34     7     6   ar
    35     6     5   ar
    36     5     4   ar
    37     4     3   ar
    38     3     1   ar
