@<TRIPOS>MOLECULE
No_2912-gen_results/8p0m/2024-11-26-14-13-15/
 21 22 0 0 0
SMALL
GASTEIGER

@<TRIPOS>ATOM
      1 C         -28.0162   -0.8135   28.8779 C.ar    1  UNL1        0.1401
      2 C         -28.4690   -0.7850   29.8287 C.ar    1  UNL1        0.0296
      3 C         -28.1960    0.3478   28.0550 C.ar    1  UNL1        0.0275
      4 C         -29.0191    1.3501   28.3782 C.ar    1  UNL1        0.0022
      5 C         -29.6249    1.2683   29.6012 C.ar    1  UNL1        0.0001
      6 C         -29.3821    0.1816   30.4004 C.ar    1  UNL1        0.0023
      7 C         -27.4591    0.3787   26.7048 C.2     1  UNL1        0.0021
      8 C         -26.1352    0.3564   26.8180 C.2     1  UNL1        0.0012
      9 C         -25.3310    0.2623   28.0078 C.2     1  UNL1        0.0435
     10 C         -24.2300    0.6510   28.2224 C.2     1  UNL1        0.0033
     11 C         -23.4630    0.4506   29.4477 C.2     1  UNL1        0.0304
     12 C         -23.9862   -0.3239   30.4483 C.2     1  UNL1        0.1802
     13 C         -25.2511   -0.7635   30.2797 C.3     1  UNL1        0.3457
     14 C         -25.9254   -0.5620   29.1590 C.3     1  UNL1        0.3401
     15 F         -25.6858   -2.0260   28.6508 F       1  UNL1       -0.1934
     16 F         -27.3685   -1.7136   28.3135 F       1  UNL1       -0.2042
     17 F         -26.5952    0.2872   29.7709 F       1  UNL1       -0.1934
     18 O         -25.7592   -1.5187   31.2501 O.3     1  UNL1       -0.2246
     19 CL        -24.7947   -1.3362   31.0269 Cl      1  UNL1        0.0651
     20 F         -25.5552    0.6006   30.7435 F       1  UNL1       -0.1946
     21 F         -23.2375   -0.0079   31.4730 F       1  UNL1       -0.2033
@<TRIPOS>BOND
     1     3     7    1
     2     7     8    2
     3     8     9    1
     4     9    10    2
     5    10    11    1
     6    11    12    2
     7    12    13    1
     8     9    14    1
     9    13    14    1
    10    14    15    1
    11     1    16    1
    12    14    17    1
    13    13    18    1
    14    18    19    1
    15    13    20    1
    16    12    21    1
    17     1     2   ar
    18     2     6   ar
    19     6     5   ar
    20     5     4   ar
    21     4     3   ar
    22     3     1   ar
