@<TRIPOS>MOLECULE
No_2914-gen_results/8p0m/2024-11-26-14-13-15/
 13 14 0 0 0
SMALL
GASTEIGER

@<TRIPOS>ATOM
      1 C         -28.0162   -0.8135   28.8779 C.ar    1  UNL1        0.0114
      2 C         -27.0636   -0.1189   28.6079 C.ar    1  UNL1        0.0009
      3 C         -25.7647   -0.3897   29.0360 C.ar    1  UNL1        0.0001
      4 C         -24.5517    0.4058   28.7646 C.ar    1  UNL1        0.0000
      5 C         -23.2300    0.1178   29.2575 C.ar    1  UNL1        0.0000
      6 C         -22.1394    0.9427   28.9224 C.ar    1  UNL1        0.0000
      7 C         -27.8294   -1.9287   29.8545 C.ar    1  UNL1        0.0577
      8 C         -26.5882   -2.3272   30.2682 C.ar    1  UNL1        0.0114
      9 C         -25.4565   -1.5432   29.9146 C.ar    1  UNL1        0.0009
     10 C         -22.2302    1.9089   27.8723 C.ar    1  UNL1        0.0000
     11 C         -24.5538    1.4700   27.7617 C.ar    1  UNL1        0.0000
     12 C         -23.4471    2.1666   27.3764 C.ar    1  UNL1        0.0000
     13 CL        -29.1200   -3.0118   30.3316 Cl      1  UNL1       -0.0822
@<TRIPOS>BOND
     1     3     4    1
     2     7    13    1
     3     1     2   ar
     4     2     3   ar
     5     3     9   ar
     6     9     8   ar
     7     8     7   ar
     8     7     1   ar
     9     4     5   ar
    10     5     6   ar
    11     6    10   ar
    12    10    12   ar
    13    12    11   ar
    14    11     4   ar
