@<TRIPOS>MOLECULE
No_2915-gen_results/8p0m/2024-11-26-14-13-15/
 6 5 0 0 0
SMALL
GASTEIGER

@<TRIPOS>ATOM
      1 C         -28.0162   -0.8135   28.8779 C.3     1  UNL1        0.0466
      2 C         -27.0636   -0.1190   28.6079 C.2     1  UNL1        0.0668
      3 N         -26.9849    0.5972   27.5218 N.2     1  UNL1       -0.2714
      4 C         -29.2908   -0.4367   28.3661 C.3     1  UNL1        0.0063
      5 C         -29.2798    0.6108   27.6917 C.3     1  UNL1        0.0004
      6 C         -25.7478    1.2454   27.0986 C.3     1  UNL1        0.1513
@<TRIPOS>BOND
     1     1     2    1
     2     2     3    2
     3     1     4    1
     4     4     5    1
     5     3     6    1
