@<TRIPOS>MOLECULE
No_2918-gen_results/8p0m/2024-11-26-14-13-15/
 24 26 0 0 0
SMALL
GASTEIGER

@<TRIPOS>ATOM
      1 C         -28.0162   -0.8135   28.8779 C.3     1  UNL1        0.0589
      2 C         -27.0636   -0.1189   28.6079 C.ar    1  UNL1        0.0209
      3 C         -27.0010    0.6913   27.4910 C.ar    1  UNL1       -0.0006
      4 C         -25.8548    1.4825   27.0830 C.ar    1  UNL1        0.0041
      5 C         -24.6901    1.4526   27.8807 C.ar    1  UNL1        0.0542
      6 C         -23.4878    2.1452   27.6011 C.2     1  UNL1        0.2646
      7 C         -25.8122   -0.1656   29.4298 C.ar    1  UNL1        0.1882
      8 C         -24.6457    0.5887   29.0806 C.ar    1  UNL1        0.0226
      9 C         -29.2382   -0.1001   29.3740 C.ar    1  UNL1        0.0169
     10 C         -30.3892   -0.8509   29.7934 C.ar    1  UNL1        0.1427
     11 N         -22.3416    1.8240   28.1900 N.am    1  UNL1       -0.2013
     12 O         -23.5389    3.1676   26.8391 O.2     1  UNL1       -0.2684
     13 C         -31.5960   -0.3439   29.6913 C.ar    1  UNL1        0.0486
     14 C         -31.7299    1.0779   29.4828 C.ar    1  UNL1        0.0607
     15 C         -30.6490    1.8097   29.1175 C.ar    1  UNL1        0.0113
     16 C         -29.4048    1.2272   28.9454 C.ar    1  UNL1       -0.0001
     17 CL        -33.2980    1.7514   29.6830 Cl      1  UNL1       -0.0821
     18 C         -22.0672    0.6699   28.8682 C.3     1  UNL1        0.1202
     19 C         -23.2562    0.0143   29.4486 C.3     1  UNL1        0.0532
     20 O         -25.7289   -0.9829   30.4208 O.3     1  UNL1       -0.2872
     21 O         -30.2491   -2.1662   29.9777 O.3     1  UNL1       -0.4472
     22 C         -29.5859   -2.5942   31.1104 C.2     1  UNL1        0.2248
     23 C         -28.8825   -3.8575   30.8912 C.2     1  UNL1        0.2747
     24 O         -29.3526   -4.5030   29.8876 O.2     1  UNL1       -0.2796
@<TRIPOS>BOND
     1     1     2    1
     2     5     6    1
     3     6    11   am
     4     6    12    2
     5    14    17    1
     6    11    18    1
     7     8    19    1
     8     7    20    1
     9    10    21    1
    10    21    22    1
    11    22    23    2
    12    23    24    1
    13     1     9    1
    14    19    18    1
    15     2     3   ar
    16     3     4   ar
    17     4     5   ar
    18     5     8   ar
    19     8     7   ar
    20     7     2   ar
    21     9    10   ar
    22    10    13   ar
    23    13    14   ar
    24    14    15   ar
    25    15    16   ar
    26    16     9   ar
