@<TRIPOS>MOLECULE
No_2919-gen_results/8p0m/2024-11-26-14-13-15/
 35 38 0 0 0
SMALL
GASTEIGER

@<TRIPOS>ATOM
      1 N         -28.0544   -1.0498   28.7246 N.pl3   1  UNL1       -0.2179
      2 C         -28.6544   -0.5669   29.5076 C.3     1  UNL1        0.1866
      3 C         -26.6945   -1.3221   29.0236 C.ar    1  UNL1        0.0632
      4 C         -26.4530   -1.6393   30.3247 C.ar    1  UNL1       -0.0072
      5 C         -25.0163   -1.8124   30.7024 C.ar    1  UNL1       -0.0030
      6 N         -30.0806   -0.3120   29.1932 N.am    1  UNL1       -0.1847
      7 C         -28.3447   -0.1235   30.8572 C.3     1  UNL1        0.0487
      8 C         -27.3649   -1.2000   31.3755 C.3     1  UNL1        0.0313
      9 C         -30.3902    0.2212   28.0531 C.2     1  UNL1        0.2516
     10 O         -29.5772    0.6361   27.3117 O.2     1  UNL1       -0.2728
     11 C         -31.8546    0.2308   27.7020 C.3     1  UNL1        0.1617
     12 C         -32.6592    0.8380   28.4937 C.2     1  UNL1        0.2345
     13 O         -32.3681    1.9257   28.8719 O.2     1  UNL1       -0.2743
     14 N         -33.5291    0.0797   29.2186 N.am    1  UNL1       -0.2788
     15 C         -33.9123   -1.2500   28.9922 C.3     1  UNL1        0.0977
     16 C         -34.3687    0.7370   30.3255 C.3     1  UNL1        0.0934
     17 C         -24.1541   -2.1838   29.6923 C.ar    1  UNL1       -0.0002
     18 C         -25.6508   -1.7351   28.1641 C.ar    1  UNL1        0.0158
     19 C         -24.4160   -2.0225   28.4180 C.ar    1  UNL1        0.0013
     20 C         -35.2286    0.1923   30.7151 C.3     1  UNL1        0.0219
     21 C         -35.0399   -1.8250   29.5969 C.3     1  UNL1        0.0422
     22 C         -35.6716   -1.1407   30.5753 C.3     1  UNL1        0.0078
     23 C         -35.3481   -3.2252   29.2910 C.ar    1  UNL1       -0.0209
     24 C         -34.3873   -3.9994   28.7919 C.ar    1  UNL1       -0.0045
     25 C         -34.6529   -5.3192   28.4651 C.ar    1  UNL1       -0.0034
     26 C         -35.9352   -5.7849   28.6159 C.ar    1  UNL1       -0.0059
     27 C         -36.8996   -4.9749   29.1150 C.ar    1  UNL1       -0.0034
     28 C         -36.6124   -3.6913   29.4722 C.ar    1  UNL1       -0.0045
     29 C         -32.2388   -0.3299   26.4535 C.3     1  UNL1        0.0773
     30 P         -31.7232   -1.8260   26.0977 P.3     1  UNL1        0.1182
     31 O         -30.7748   -1.6359   25.3885 O.3     1  UNL1       -0.3571
     32 O         -32.9614   -2.4339   25.3417 O.2     1  UNL1       -0.4601
     33 O         -31.5360   -2.6264   27.4043 O.3     1  UNL1       -0.3571
     34 C         -36.2363   -7.1846   28.2497 C.3     1  UNL1        0.1211
     35 CL        -36.6109   -7.7407   27.2473 Cl      1  UNL1       -0.1085
@<TRIPOS>BOND
     1     1     2    1
     2     1     3    1
     3     2     6    1
     4     2     7    1
     5     4     8    1
     6     7     8    1
     7     6     9   am
     8     9    10    2
     9     9    11    1
    10    11    12    1
    11    12    13    2
    12    12    14   am
    13    14    15    1
    14    14    16    1
    15    20    22    1
    16    21    22    1
    17    21    23    1
    18    11    29    1
    19    29    30    1
    20    30    31    1
    21    30    32    2
    22    30    33    1
    23    26    34    1
    24    34    35    1
    25    15    21    1
    26    20    16    1
    27     3     4   ar
    28     4     5   ar
    29     5    17   ar
    30    17    19   ar
    31    19    18   ar
    32    18     3   ar
    33    23    24   ar
    34    24    25   ar
    35    25    26   ar
    36    26    27   ar
    37    27    28   ar
    38    28    23   ar
