@<TRIPOS>MOLECULE
No_292-gen_results/8p0m/2024-11-26-14-13-15/
 20 21 0 0 0
SMALL
GASTEIGER

@<TRIPOS>ATOM
      1 C         -28.0162   -0.8135   28.8779 C.ar    1  UNL1        0.0165
      2 C         -28.4690   -0.7850   29.8287 C.ar    1  UNL1        0.0605
      3 C         -27.1356    0.2359   28.5352 C.ar    1  UNL1        0.0448
      4 C         -26.8745    1.2825   29.3982 C.ar    1  UNL1        0.0012
      5 C         -28.3613    0.1987   30.9244 C.ar    1  UNL1        0.0153
      6 C         -27.5277    1.2234   30.6356 C.ar    1  UNL1        0.0011
      7 C         -26.3987    0.2949   27.2279 C.3     1  UNL1        0.3410
      8 F         -26.9306   -0.1351   26.3032 F       1  UNL1       -0.1933
      9 F         -25.1330    0.6631   27.2119 F       1  UNL1       -0.1933
     10 N         -29.3438   -1.9134   30.3017 N.am    1  UNL1       -0.2077
     11 C         -30.5847   -1.8547   30.3964 C.2     1  UNL1        0.2456
     12 O         -31.1831   -0.8973   30.1391 O.2     1  UNL1       -0.2735
     13 C         -31.2087   -3.1468   30.8332 C.3     1  UNL1        0.1807
     14 C         -28.5630   -3.1840   30.5929 C.2     1  UNL1        0.2351
     15 O         -27.2859   -3.2042   30.4697 O.2     1  UNL1       -0.2741
     16 C         -29.2640   -4.3101   30.9579 C.3     1  UNL1        0.0871
     17 C         -30.4020   -4.2804   31.0391 C.3     1  UNL1        0.0301
     18 C         -32.6977   -3.1069   30.9118 C.2     1  UNL1        0.3730
     19 O         -33.3405   -3.8728   30.8743 O.co2   1  UNL1       -0.2451
     20 O         -33.1019   -1.9315   31.4950 O.co2   1  UNL1       -0.2451
@<TRIPOS>BOND
     1     3     7    1
     2     7     8    1
     3     7     9    1
     4     2    10    1
     5    10    11   am
     6    11    12    2
     7    11    13    1
     8    10    14   am
     9    14    15    2
    10    14    16    1
    11    13    18    1
    12    18    19   ar
    13    18    20   ar
    14    13    17    1
    15    17    16    1
    16     1     2   ar
    17     2     5   ar
    18     5     6   ar
    19     6     4   ar
    20     4     3   ar
    21     3     1   ar
