@<TRIPOS>MOLECULE
No_2920-gen_results/8p0m/2024-11-26-14-13-15/
 23 25 0 0 0
SMALL
GASTEIGER

@<TRIPOS>ATOM
      1 N         -28.0544   -1.0498   28.7246 N.ar    1  UNL1       -0.2438
      2 C         -27.7460   -0.0733   29.0098 C.ar    1  UNL1        0.0810
      3 C         -27.5562    0.3369   30.3393 C.ar    1  UNL1        0.0140
      4 C         -27.0710    1.6709   30.7899 C.ar    1  UNL1       -0.0140
      5 C         -26.6539    2.5222   29.7363 C.ar    1  UNL1        0.0759
      6 C         -26.7304    2.0603   28.4078 C.ar    1  UNL1        0.0075
      7 C         -27.1892    0.8153   28.0522 C.ar    1  UNL1        0.0178
      8 C         -29.0838   -1.5480   29.4797 C.ar    1  UNL1        0.0988
      9 C         -29.0094   -1.4582   30.9189 C.ar    1  UNL1        0.0207
     10 C         -28.3551   -0.2510   31.3503 C.ar    1  UNL1        0.0028
     11 C         -27.1193    0.5019   26.6280 C.ar    1  UNL1        0.0015
     12 C         -26.3366    1.2108   25.7422 C.ar    1  UNL1        0.0000
     13 C         -25.8691    2.4870   26.1460 C.ar    1  UNL1        0.0000
     14 C         -25.9882    2.9382   27.4541 C.ar    1  UNL1        0.0002
     15 C         -26.0001    3.7978   30.0772 C.2     1  UNL1        0.3874
     16 O         -25.1342    3.8944   30.8367 O.co2   1  UNL1       -0.2406
     17 O         -26.4563    4.8768   29.4532 O.co2   1  UNL1       -0.2406
     18 C         -27.0603    2.0886   32.1715 C.3     1  UNL1        0.0313
     19 C         -26.7875    3.3517   32.5517 C.3     1  UNL1        0.0307
     20 C         -27.3454    3.8883   33.7547 C.2     1  UNL1       -0.0258
     21 C         -26.7915    4.9588   34.4157 C.2     1  UNL1       -0.0046
     22 C         -25.7098    5.7033   33.8056 C.2     1  UNL1       -0.0003
     23 C         -25.0544    5.1191   32.7017 C.2     1  UNL1       -0.0000
@<TRIPOS>BOND
     1     5    15    1
     2    15    16   ar
     3    15    17   ar
     4     4    18    1
     5    18    19    1
     6    19    20    1
     7    20    21    2
     8    21    22    1
     9    22    23    2
    10     3     4   ar
    11     4     5   ar
    12     5     6   ar
    13     7     2   ar
    14     1     2   ar
    15     2     3   ar
    16     3    10   ar
    17    10     9   ar
    18     9     8   ar
    19     8     1   ar
    20     6     7   ar
    21     7    11   ar
    22    11    12   ar
    23    12    13   ar
    24    13    14   ar
    25    14     6   ar
