@<TRIPOS>MOLECULE
No_2921-gen_results/8p0m/2024-11-26-14-13-15/
 35 38 0 0 0
SMALL
GASTEIGER

@<TRIPOS>ATOM
      1 C         -28.0162   -0.8135   28.8779 C.ar    1  UNL1        0.0111
      2 C         -28.4690   -0.7850   29.8287 C.ar    1  UNL1        0.0799
      3 C         -28.1816    0.4277   28.1134 C.ar    1  UNL1        0.0538
      4 C         -28.9841    1.4155   28.5154 C.ar    1  UNL1        0.0045
      5 C         -29.3802    0.1384   30.4612 C.ar    1  UNL1        0.0066
      6 C         -29.5415    1.2736   29.7242 C.ar    1  UNL1        0.0004
      7 C         -27.4586    0.4934   26.7701 C.2     1  UNL1        0.2490
      8 N         -26.1290    0.3456   26.7317 N.am    1  UNL1       -0.2759
      9 C         -25.4038   -0.0103   27.7776 C.3     1  UNL1        0.0965
     10 C         -24.0267    0.4819   27.8585 C.3     1  UNL1        0.0568
     11 C         -23.5890    1.2842   26.7965 C.3     1  UNL1        0.1644
     12 C         -24.4130    1.6104   25.7392 C.3     1  UNL1        0.0568
     13 C         -25.5270    0.9656   25.5771 C.3     1  UNL1        0.0965
     14 O         -28.1923    0.4200   25.7779 O.2     1  UNL1       -0.2699
     15 F         -22.3570    1.8455   26.9807 F       1  UNL1       -0.2372
     16 C         -28.2766   -2.1036   30.7787 C.2     1  UNL1        0.3878
     17 O         -27.2333   -2.2915   31.2039 O.co2   1  UNL1       -0.2406
     18 O         -29.3003   -2.8655   30.9187 O.co2   1  UNL1       -0.2406
     19 C         -30.4890    2.3579   30.2571 C.ar    1  UNL1        0.0000
     20 C         -31.2289    2.9592   29.6552 C.ar    1  UNL1        0.0001
     21 C         -32.0852    4.0370   30.1757 C.ar    1  UNL1        0.0046
     22 C         -32.0263    4.2647   31.5483 C.ar    1  UNL1        0.0554
     23 C         -31.1673    3.5220   32.3162 C.ar    1  UNL1        0.0046
     24 C         -30.3567    2.5724   31.7629 C.ar    1  UNL1        0.0001
     25 C         -32.8848    5.3207   32.1359 C.2     1  UNL1        0.2690
     26 O         -32.5005    5.8903   33.0768 O.2     1  UNL1       -0.2680
     27 N         -33.9244    5.7379   31.3366 N.am    1  UNL1       -0.1755
     28 C         -34.7980    6.7557   31.8556 C.ar    1  UNL1        0.0734
     29 C         -35.7734    7.0603   31.1522 C.ar    1  UNL1        0.0175
     30 C         -36.7265    8.0596   31.5918 C.ar    1  UNL1        0.0124
     31 C         -36.4992    8.6868   32.8683 C.ar    1  UNL1        0.0538
     32 C         -35.3784    8.2679   33.5810 C.ar    1  UNL1       -0.0100
     33 C         -34.5276    7.3432   33.1397 C.ar    1  UNL1        0.0132
     34 CL        -37.6030    9.8458   33.3880 Cl      1  UNL1       -0.0826
     35 C         -35.1405    8.9128   34.9267 C.3     1  UNL1        0.0320
@<TRIPOS>BOND
     1     3     7    1
     2     7     8   am
     3     8     9    1
     4    10    11    1
     5     8    13    1
     6    12    13    1
     7     7    14    2
     8    11    15    1
     9     2    16    1
    10    16    17   ar
    11    16    18   ar
    12     6    19    1
    13    22    25    1
    14    25    26    2
    15    25    27   am
    16    27    28    1
    17    31    34    1
    18    32    35    1
    19     9    10    1
    20    11    12    1
    21    28    29   ar
    22    29    30   ar
    23    30    31   ar
    24    31    32   ar
    25    32    33   ar
    26    33    28   ar
    27     1     2   ar
    28     2     5   ar
    29     5     6   ar
    30     6     4   ar
    31     4     3   ar
    32     3     1   ar
    33    19    20   ar
    34    20    21   ar
    35    21    22   ar
    36    22    23   ar
    37    23    24   ar
    38    24    19   ar
