@<TRIPOS>MOLECULE
No_2922-gen_results/8p0m/2024-11-26-14-13-15/
 13 13 0 0 0
SMALL
GASTEIGER

@<TRIPOS>ATOM
      1 C         -28.0162   -0.8135   28.8779 C.3     1  UNL1        0.3410
      2 C         -27.0636   -0.1189   28.6079 C.ar    1  UNL1        0.0435
      3 C         -27.0010    0.6913   27.4910 C.ar    1  UNL1        0.0011
      4 C         -25.7770    1.0214   26.9135 C.ar    1  UNL1       -0.0002
      5 C         -24.5088    0.7364   27.5686 C.ar    1  UNL1        0.0038
      6 C         -24.5930   -0.0361   28.7390 C.ar    1  UNL1        0.0713
      7 C         -23.3872   -0.3587   29.4272 C.3     1  UNL1        0.4186
      8 C         -25.8093   -0.4895   29.1830 C.ar    1  UNL1        0.0050
      9 F         -29.0559   -0.4445   28.3700 F       1  UNL1       -0.1933
     10 F         -28.2386   -0.6445   30.3246 F       1  UNL1       -0.1933
     11 F         -23.4843   -1.2166   30.0981 F       1  UNL1       -0.1659
     12 F         -22.3482   -0.5773   28.4970 F       1  UNL1       -0.1659
     13 F         -22.9493    0.8004   30.0725 F       1  UNL1       -0.1659
@<TRIPOS>BOND
     1     1     2    1
     2     6     7    1
     3     1     9    1
     4     1    10    1
     5     7    11    1
     6     7    12    1
     7     7    13    1
     8     2     3   ar
     9     3     4   ar
    10     4     5   ar
    11     5     6   ar
    12     6     8   ar
    13     8     2   ar
