@<TRIPOS>MOLECULE
No_2923-gen_results/8p0m/2024-11-26-14-13-15/
 12 12 0 0 0
SMALL
GASTEIGER

@<TRIPOS>ATOM
      1 C         -28.0162   -0.8135   28.8779 C.3     1  UNL1        0.0498
      2 C         -27.0636   -0.1189   28.6079 C.ar    1  UNL1       -0.0204
      3 C         -27.0010    0.6913   27.4910 C.ar    1  UNL1       -0.0042
      4 C         -25.7770    1.0214   26.9135 C.ar    1  UNL1       -0.0003
      5 C         -24.5088    0.7364   27.5686 C.ar    1  UNL1       -0.0000
      6 C         -24.5930   -0.0361   28.7390 C.ar    1  UNL1       -0.0003
      7 C         -25.8114   -0.4771   29.1584 C.ar    1  UNL1       -0.0042
      8 C         -28.6413   -0.4024   30.1937 C.3     1  UNL1        0.1210
      9 N         -28.5035    0.6288   30.6408 N.am    1  UNL1       -0.1913
     10 C         -28.8854    1.7452   30.2367 C.2     1  UNL1        0.3259
     11 CL        -28.4781    2.8470   30.4273 Cl      1  UNL1       -0.0208
     12 O         -29.8443    1.5252   29.2544 O.2     1  UNL1       -0.2551
@<TRIPOS>BOND
     1     1     2    1
     2     1     8    1
     3     8     9    1
     4     9    10   am
     5    10    11    1
     6    10    12    2
     7     2     3   ar
     8     3     4   ar
     9     4     5   ar
    10     5     6   ar
    11     6     7   ar
    12     7     2   ar
