@<TRIPOS>MOLECULE
No_2925-gen_results/8p0m/2024-11-26-14-13-15/
 14 15 0 0 0
SMALL
GASTEIGER

@<TRIPOS>ATOM
      1 F         -28.0727   -1.2542   28.5316 F       1  UNL1       -0.2044
      2 C         -27.3591   -0.3792   28.7224 C.ar    1  UNL1        0.1378
      3 C         -26.3323   -0.6441   29.4520 C.ar    1  UNL1        0.0294
      4 C         -25.2562    0.3203   29.7818 C.ar    1  UNL1        0.0023
      5 C         -25.4242    1.6275   29.2026 C.ar    1  UNL1       -0.0001
      6 C         -26.5263    1.8254   28.4032 C.ar    1  UNL1       -0.0003
      7 C         -27.4513    0.8601   28.1355 C.ar    1  UNL1        0.0280
      8 C         -28.5399    1.2022   27.2448 C.3     1  UNL1        0.1542
      9 N         -28.4879    1.9424   26.2706 N.3     1  UNL1       -0.2075
     10 C         -29.3133    0.0268   26.8113 C.2     1  UNL1        0.1706
     11 C         -30.2523    0.2114   25.7692 C.3     1  UNL1        0.0678
     12 C         -29.3555    2.2922   25.3004 C.3     1  UNL1        0.0900
     13 C         -30.2774    1.3472   25.0254 C.3     1  UNL1        0.0266
     14 O         -28.7585   -0.9965   26.9198 O.2     1  UNL1       -0.2942
@<TRIPOS>BOND
     1     1     2    1
     2     7     8    1
     3     8    10    1
     4    10    11    1
     5     9    12    1
     6    11    13    1
     7    12    13    1
     8    10    14    2
     9     8     9    1
    10     2     3   ar
    11     3     4   ar
    12     4     5   ar
    13     5     6   ar
    14     6     7   ar
    15     7     2   ar
