@<TRIPOS>MOLECULE
No_2926-gen_results/8p0m/2024-11-26-14-13-15/
 29 31 0 0 0
SMALL
GASTEIGER

@<TRIPOS>ATOM
      1 C         -28.0162   -0.8135   28.8779 C.ar    1  UNL1        0.0226
      2 C         -27.0636   -0.1189   28.6079 C.ar    1  UNL1        0.0750
      3 N         -26.9515    1.1286   28.9566 N.ar    1  UNL1       -0.2338
      4 C         -29.1088   -0.2102   29.6318 C.ar    1  UNL1        0.0838
      5 C         -29.0365    0.8335   29.8907 C.ar    1  UNL1        0.0409
      6 C         -27.9758    1.6953   29.6193 C.ar    1  UNL1        0.1315
      7 C         -25.8348   -0.8018   28.0389 C.3     1  UNL1        0.1186
      8 BR        -24.6142    0.0762   27.0454 Br      1  UNL1       -0.0704
      9 C         -24.9250   -1.5427   29.0754 C.2     1  UNL1       -0.0134
     10 C         -24.0064   -0.9047   29.6568 C.2     1  UNL1       -0.0248
     11 C         -23.8522   -0.1748   30.4180 C.3     1  UNL1        0.0520
     12 C         -24.8890    0.3691   31.2827 C.ar    1  UNL1       -0.0178
     13 C         -24.6991    1.5265   32.1353 C.ar    1  UNL1       -0.0039
     14 C         -25.7405    1.9682   32.9807 C.ar    1  UNL1        0.0012
     15 C         -26.8234    1.0856   33.1512 C.ar    1  UNL1        0.0187
     16 C         -26.9328   -0.0825   32.4390 C.ar    1  UNL1        0.0012
     17 C         -25.9409   -0.4891   31.6026 C.ar    1  UNL1       -0.0039
     18 N         -27.8494    3.0561   29.9391 N.pl3   1  UNL1       -0.2933
     19 C         -26.8812    3.8738   29.5450 C.3     1  UNL1        0.0922
     20 C         -26.8367    5.1276   30.1289 C.3     1  UNL1        0.0215
     21 C         -28.8049    3.7343   30.7683 C.3     1  UNL1        0.0922
     22 C         -28.7459    4.9743   31.2930 C.3     1  UNL1        0.0215
     23 C         -27.6711    5.7557   30.8996 C.3     1  UNL1        0.0035
     24 C         -30.2591   -1.1990   29.9274 C.2     1  UNL1        0.3879
     25 O         -30.1805   -2.0325   30.6866 O.co2   1  UNL1       -0.2406
     26 O         -31.3527   -0.8930   29.2937 O.co2   1  UNL1       -0.2406
     27 C         -27.9742    1.5713   34.0382 C.2     1  UNL1        0.0932
     28 N         -29.1101    1.1601   33.9025 N.2     1  UNL1       -0.2668
     29 C         -30.1306    1.6623   34.6330 C.3     1  UNL1        0.1517
@<TRIPOS>BOND
     1     2     7    1
     2     7     8    1
     3     7     9    1
     4     9    10    2
     5    10    11    1
     6     6    18    1
     7    18    19    1
     8    18    21    1
     9    20    23    1
    10    22    23    1
    11     4    24    1
    12    24    25   ar
    13    24    26   ar
    14    15    27    1
    15    27    28    2
    16    28    29    1
    17    11    12    1
    18    19    20    1
    19    22    21    1
    20    12    13   ar
    21    13    14   ar
    22    14    15   ar
    23    15    16   ar
    24    16    17   ar
    25    17    12   ar
    26     1     2   ar
    27     2     3   ar
    28     3     6   ar
    29     6     5   ar
    30     5     4   ar
    31     4     1   ar
