@<TRIPOS>MOLECULE
No_2927-gen_results/8p0m/2024-11-26-14-13-15/
 27 31 0 0 0
SMALL
GASTEIGER

@<TRIPOS>ATOM
      1 C         -28.0162   -0.8135   28.8779 C.ar    1  UNL1        0.0108
      2 C         -27.0636   -0.1189   28.6079 C.ar    1  UNL1       -0.0123
      3 C         -26.9716    0.7139   27.5060 C.3     1  UNL1        0.1048
      4 C         -25.8206    1.4910   27.1160 C.3     1  UNL1        0.0399
      5 C         -24.6562    1.4242   27.9180 C.ar    1  UNL1       -0.0214
      6 C         -23.4598    2.1165   27.6160 C.ar    1  UNL1       -0.0042
      7 C         -22.3449    1.9937   28.4413 C.ar    1  UNL1       -0.0003
      8 C         -22.3657    0.9905   29.4427 C.ar    1  UNL1       -0.0000
      9 C         -23.4794    0.3053   29.7917 C.ar    1  UNL1       -0.0003
     10 C         -24.6337    0.4667   29.0059 C.ar    1  UNL1       -0.0042
     11 C         -25.7698   -0.2579   29.3337 C.ar    1  UNL1       -0.0037
     12 C         -28.0405   -1.5774   30.1786 C.ar    1  UNL1        0.0494
     13 N         -29.1345   -2.2710   30.5807 N.pl3   1  UNL1       -0.2819
     14 C         -26.8261   -1.8190   30.9777 C.ar    1  UNL1        0.0146
     15 C         -25.7547   -1.0974   30.4874 C.ar    1  UNL1        0.0009
     16 C         -29.2246   -3.5858   30.7474 C.3     1  UNL1        0.0932
     17 C         -30.4653   -4.2520   31.0577 C.3     1  UNL1        0.0216
     18 C         -30.3402   -1.5744   30.8625 C.3     1  UNL1        0.2374
     19 F         -30.1666   -0.3156   30.7407 F       1  UNL1       -0.2148
     20 C         -31.4455   -2.1877   31.2445 C.3     1  UNL1        0.0567
     21 C         -31.4985   -3.5267   31.4677 C.3     1  UNL1        0.0064
     22 C         -28.1781    0.9326   26.6499 C.2     1  UNL1        0.2454
     23 O         -28.2915    0.7108   25.5673 O.2     1  UNL1       -0.2730
     24 N         -29.1786    1.6771   27.2770 N.am    1  UNL1       -0.2033
     25 C         -30.4516    1.8745   26.6473 C.3     1  UNL1        0.1385
     26 C         -24.5129   -1.1830   31.3186 C.ar    1  UNL1        0.0000
     27 C         -23.4418   -0.5334   30.9372 C.ar    1  UNL1       -0.0000
@<TRIPOS>BOND
     1     2     3    1
     2     3     4    1
     3     4     5    1
     4    12    13    1
     5    13    16    1
     6    13    18    1
     7    18    19    1
     8    18    20    1
     9    17    21    1
    10    20    21    1
    11     3    22    1
    12    22    23    2
    13    22    24   am
    14    24    25    1
    15    16    17    1
    16     5     6   ar
    17     6     7   ar
    18     7     8   ar
    19     8     9   ar
    20    10     5   ar
    21     1     2   ar
    22     2    11   ar
    23    15    14   ar
    24    14    12   ar
    25    12     1   ar
    26     9    10   ar
    27    10    11   ar
    28    11    15   ar
    29    15    26   ar
    30    26    27   ar
    31    27     9   ar
