@<TRIPOS>MOLECULE
No_2929-gen_results/8p0m/2024-11-26-14-13-15/
 35 38 0 0 0
SMALL
GASTEIGER

@<TRIPOS>ATOM
      1 C         -28.0162   -0.8135   28.8779 C.ar    1  UNL1        0.0181
      2 C         -27.0636   -0.1190   28.6079 C.ar    1  UNL1        0.0078
      3 C         -27.0010    0.6913   27.4910 C.ar    1  UNL1        0.0006
      4 C         -28.1373    0.7363   26.6350 C.ar    1  UNL1        0.0062
      5 C         -29.2360    0.0765   27.0690 C.ar    1  UNL1        0.0726
      6 C         -29.2177   -0.6429   28.1747 C.ar    1  UNL1        0.0757
      7 C         -30.4152    0.1590   26.1820 C.ar    1  UNL1        0.2657
      8 N         -31.3727   -0.5052   26.4854 N.ar    1  UNL1       -0.2464
      9 O         -30.3871    0.8406   25.1078 O.2     1  UNL1       -0.2668
     10 C         -31.5632   -1.3179   27.6250 C.ar    1  UNL1        0.3400
     11 N         -30.4034   -1.3808   28.4672 N.ar    1  UNL1       -0.2270
     12 O         -32.5492   -1.9267   27.9022 O.2     1  UNL1       -0.2457
     13 C         -25.7254    1.4264   27.1006 C.ar    1  UNL1        0.0046
     14 C         -24.6205    1.0047   27.7919 C.ar    1  UNL1        0.0569
     15 C         -24.5897    0.1989   28.8670 C.ar    1  UNL1        0.0112
     16 C         -25.7226   -0.4101   29.2923 C.ar    1  UNL1        0.0800
     17 C         -23.2947    1.7507   27.4274 C.2     1  UNL1        0.2842
     18 N         -23.3148    2.8125   26.6690 N.am    1  UNL1       -0.0837
     19 O         -22.2058    1.5892   28.1416 O.2     1  UNL1       -0.2667
     20 C         -30.6848   -2.0082   29.7598 C.2     1  UNL1        0.2680
     21 C         -25.6597   -1.3027   30.4574 C.2     1  UNL1        0.3878
     22 O         -24.9139   -2.1917   30.4197 O.co2   1  UNL1       -0.2406
     23 O         -26.5765   -1.1047   31.3318 O.co2   1  UNL1       -0.2406
     24 C         -32.6120   -0.5697   25.6342 C.3     1  UNL1        0.1382
     25 C         -31.3802   -1.4839   30.6410 C.ar    1  UNL1        0.0566
     26 C         -31.4671   -0.3313   31.0457 C.ar    1  UNL1        0.0047
     27 C         -32.2931    0.2498   32.0785 C.ar    1  UNL1        0.0001
     28 C         -33.1396   -0.6542   32.6811 C.ar    1  UNL1        0.0039
     29 C         -33.1634   -1.9555   32.3095 C.ar    1  UNL1        0.0716
     30 C         -32.2828   -2.4225   31.3495 C.ar    1  UNL1        0.0086
     31 C         -34.0575   -2.9040   33.0004 C.3     1  UNL1        0.4186
     32 F         -33.8861   -3.1153   34.1252 F       1  UNL1       -0.1659
     33 F         -35.3577   -2.4028   32.7077 F       1  UNL1       -0.1659
     34 F         -34.0328   -4.0828   32.2692 F       1  UNL1       -0.1659
     35 O         -29.8936   -3.0317   29.8756 O.2     1  UNL1       -0.2665
@<TRIPOS>BOND
     1     5     7   ar
     2     7     8   ar
     3     7     9    2
     4     8    10   ar
     5     6    11   ar
     6    10    11   ar
     7    10    12    2
     8    14    17    1
     9    17    18   am
    10    17    19    2
    11    11    20   am
    12    16    21    1
    13    21    22   ar
    14    21    23   ar
    15     8    24    1
    16    20    25    1
    17    29    31    1
    18    31    32    1
    19    31    33    1
    20    31    34    1
    21    20    35    2
    22     1     2   ar
    23     3     4   ar
    24     4     5   ar
    25     5     6   ar
    26     6     1   ar
    27    25    26   ar
    28    26    27   ar
    29    27    28   ar
    30    28    29   ar
    31    29    30   ar
    32    30    25   ar
    33     2     3   ar
    34     3    13   ar
    35    13    14   ar
    36    14    15   ar
    37    15    16   ar
    38    16     2   ar
