@<TRIPOS>MOLECULE
No_293-gen_results/8p0m/2024-11-26-14-13-15/
 15 16 0 0 0
SMALL
GASTEIGER

@<TRIPOS>ATOM
      1 O         -28.1229   -1.3353   28.4874 O.2     1  UNL1       -0.2730
      2 C         -27.0637   -0.8242   28.8687 C.2     1  UNL1        0.2449
      3 C         -26.4017   -0.0623   28.6224 C.3     1  UNL1        0.1001
      4 N         -26.3805   -1.7991   29.9619 N.am    1  UNL1       -0.2069
      5 C         -26.7771    1.0571   27.7896 C.ar    1  UNL1       -0.0178
      6 C         -27.7401    1.4787   27.6544 C.ar    1  UNL1       -0.0041
      7 C         -28.0869    2.5845   26.6424 C.ar    1  UNL1       -0.0003
      8 C         -27.0174    3.1086   25.9247 C.ar    1  UNL1       -0.0003
      9 C         -25.7358    2.6082   26.0838 C.ar    1  UNL1       -0.0046
     10 C         -25.5045    1.6396   27.0051 C.ar    1  UNL1       -0.0254
     11 C         -25.1637   -1.6592   30.3805 C.3     1  UNL1        0.0954
     12 C         -24.6431   -2.3686   31.2205 C.3     1  UNL1        0.0234
     13 C         -24.4261   -0.5647   29.7106 C.3     1  UNL1        0.0225
     14 C         -24.8964    0.2056   29.0292 C.3     1  UNL1        0.0153
     15 C         -24.2632    1.1078   27.3335 C.3     1  UNL1        0.0307
@<TRIPOS>BOND
     1     1     2    2
     2     2     3    1
     3     2     4   am
     4     3     5    1
     5    11    12    1
     6    11    13    1
     7     3    14    1
     8    10    15    1
     9    14    13    1
    10    11     4    1
    11     5     6   ar
    12     6     7   ar
    13     7     8   ar
    14     8     9   ar
    15     9    10   ar
    16    10     5   ar
