@<TRIPOS>MOLECULE
No_2930-gen_results/8p0m/2024-11-26-14-13-15/
 18 21 0 0 0
SMALL
GASTEIGER

@<TRIPOS>ATOM
      1 C         -28.0162   -0.8135   28.8779 C.ar    1  UNL1        0.0000
      2 C         -28.4690   -0.7850   29.8287 C.ar    1  UNL1        0.0000
      3 C         -27.0871    0.2903   28.6377 C.ar    1  UNL1        0.0000
      4 C         -26.2516    0.4114   27.4223 C.ar    1  UNL1        0.0000
      5 C         -29.4309   -1.9307   30.2714 C.ar    1  UNL1        0.0000
      6 C         -25.1465    1.2405   27.3564 C.ar    1  UNL1        0.0000
      7 C         -24.7814    1.9840   28.5026 C.ar    1  UNL1        0.0000
      8 C         -25.4736    1.8471   29.6355 C.ar    1  UNL1        0.0000
      9 C         -26.5034    1.0016   29.7688 C.ar    1  UNL1        0.0000
     10 C         -30.1781   -1.9604   31.4357 C.ar    1  UNL1        0.0000
     11 C         -29.9434   -0.8977   32.3521 C.ar    1  UNL1        0.0000
     12 C         -29.1066    0.1064   32.0942 C.ar    1  UNL1        0.0000
     13 C         -28.4328    0.1892   30.9703 C.ar    1  UNL1        0.0000
     14 C         -27.3397    1.0751   30.7386 C.ar    1  UNL1        0.0000
     15 C         -24.3625    1.3795   26.1094 C.ar    1  UNL1        0.0000
     16 C         -23.6816    2.0894   25.8231 C.ar    1  UNL1        0.0000
     17 C         -23.0603    2.9338   27.0008 C.ar    1  UNL1        0.0000
     18 C         -23.6589    2.8785   28.2142 C.ar    1  UNL1        0.0000
@<TRIPOS>BOND
     1     3     4   ar
     2     4     6   ar
     3     7     8   ar
     4     8     9   ar
     5     1     2   ar
     6    13    14   ar
     7    14     9   ar
     8     9     3   ar
     9     3     1   ar
    10     2     5   ar
    11     5    10   ar
    12    10    11   ar
    13    11    12   ar
    14    12    13   ar
    15    13     2   ar
    16     6     7   ar
    17     7    18   ar
    18    18    17   ar
    19    17    16   ar
    20    16    15   ar
    21    15     6   ar
