@<TRIPOS>MOLECULE
No_2931-gen_results/8p0m/2024-11-26-14-13-15/
 30 32 0 0 0
SMALL
GASTEIGER

@<TRIPOS>ATOM
      1 C         -28.0162   -0.8135   28.8779 C.ar    1  UNL1       -0.0001
      2 C         -28.4690   -0.7850   29.8287 C.ar    1  UNL1        0.0711
      3 C         -26.5455   -0.8762   28.8500 C.ar    1  UNL1       -0.0178
      4 C         -25.8041   -1.0324   30.0571 C.ar    1  UNL1       -0.0039
      5 C         -27.9437   -0.9869   31.2075 C.ar    1  UNL1        0.0038
      6 C         -26.5825   -1.0386   31.2231 C.ar    1  UNL1       -0.0004
      7 C         -30.0606   -0.7371   29.9024 C.3     1  UNL1        0.4186
      8 F         -30.4503   -0.4333   28.9129 F       1  UNL1       -0.1659
      9 F         -30.5760   -1.9496   30.3154 F       1  UNL1       -0.1659
     10 F         -30.4585    0.1649   30.8374 F       1  UNL1       -0.1659
     11 C         -25.6623   -0.7799   27.6308 C.3     1  UNL1        0.0523
     12 C         -24.4302   -0.0983   27.7879 C.ar    1  UNL1       -0.0214
     13 C         -23.9893    0.9647   26.9342 C.ar    1  UNL1       -0.0220
     14 C         -22.7050    1.5620   27.1863 C.ar    1  UNL1       -0.0043
     15 C         -21.9048    1.0634   28.2209 C.ar    1  UNL1       -0.0003
     16 C         -23.4495   -0.4415   28.8174 C.ar    1  UNL1       -0.0042
     17 C         -22.2253    0.0957   28.9559 C.ar    1  UNL1       -0.0003
     18 C         -24.8361    1.5439   25.9710 C.3     1  UNL1        0.0473
     19 C         -25.5515    2.7216   26.2391 C.ar    1  UNL1        0.0169
     20 C         -26.9235    2.8808   26.0643 C.ar    1  UNL1        0.1417
     21 C         -27.5157    4.0899   26.4276 C.ar    1  UNL1        0.0380
     22 C         -26.8087    5.0566   27.1437 C.ar    1  UNL1        0.0145
     23 C         -25.4250    4.9135   27.3760 C.ar    1  UNL1        0.0576
     24 C         -24.7971    3.7624   26.9858 C.ar    1  UNL1        0.0105
     25 C         -25.0708    0.7838   24.8223 C.3     1  UNL1        0.0095
     26 CL        -24.5765    6.1630   28.1900 Cl      1  UNL1       -0.0823
     27 O         -27.5613    1.9801   25.5078 O.3     1  UNL1       -0.4511
     28 C         -28.6827    1.4325   26.1125 C.2     1  UNL1        0.1749
     29 C         -29.8393    1.3294   25.3358 C.2     1  UNL1        0.0148
     30 C         -30.9399    0.8805   25.9637 C.3     1  UNL1        0.0341
@<TRIPOS>BOND
     1     2     7    1
     2     7     8    1
     3     7     9    1
     4     7    10    1
     5     3    11    1
     6    11    12    1
     7    13    18    1
     8    18    19    1
     9    18    25    1
    10    23    26    1
    11    20    27    1
    12    27    28    1
    13    28    29    2
    14    29    30    1
    15    12    13   ar
    16    13    14   ar
    17    14    15   ar
    18    15    17   ar
    19    17    16   ar
    20    16    12   ar
    21     1     2   ar
    22     2     5   ar
    23     5     6   ar
    24     6     4   ar
    25     4     3   ar
    26     3     1   ar
    27    19    20   ar
    28    20    21   ar
    29    21    22   ar
    30    22    23   ar
    31    23    24   ar
    32    24    19   ar
