@<TRIPOS>MOLECULE
No_2933-gen_results/8p0m/2024-11-26-14-13-15/
 12 13 0 0 0
SMALL
GASTEIGER

@<TRIPOS>ATOM
      1 C         -28.0162   -0.8135   28.8779 C.ar    1  UNL1       -0.0003
      2 C         -28.4690   -0.7850   29.8287 C.ar    1  UNL1       -0.0000
      3 C         -26.5455   -0.8762   28.8500 C.ar    1  UNL1       -0.0039
      4 C         -25.8041   -1.0324   30.0571 C.ar    1  UNL1       -0.0171
      5 C         -27.9437   -0.9869   31.2075 C.ar    1  UNL1       -0.0003
      6 C         -26.5825   -1.0386   31.2231 C.ar    1  UNL1       -0.0039
      7 C         -24.3810   -1.1082   30.0855 C.3     1  UNL1        0.0620
      8 C         -23.7055    0.0955   29.8440 C.2     1  UNL1        0.0367
      9 C         -23.9085    1.2220   30.4760 C.1     1  UNL1       -0.0065
     10 N         -23.2980    2.3339   29.9480 N.2     1  UNL1       -0.2020
     11 C         -22.6685    0.3380   28.8253 C.2     1  UNL1        0.0266
     12 C         -22.4314    1.6857   28.8498 C.2     1  UNL1        0.1090
@<TRIPOS>BOND
     1     4     7    1
     2     7     8    1
     3     8     9    2
     4     9    10    2
     5     8    11    1
     6    10    12    1
     7    11    12    2
     8     1     2   ar
     9     2     5   ar
    10     5     6   ar
    11     6     4   ar
    12     4     3   ar
    13     3     1   ar
