@<TRIPOS>MOLECULE
No_2934-gen_results/8p0m/2024-11-26-14-13-15/
 22 25 0 0 0
SMALL
GASTEIGER

@<TRIPOS>ATOM
      1 C         -28.0162   -0.8135   28.8779 C.ar    1  UNL1        0.0574
      2 CL        -28.6208   -1.1855   29.7353 Cl      1  UNL1       -0.0823
      3 C         -26.5231   -0.7877   28.9754 C.ar    1  UNL1        0.0115
      4 C         -25.6303   -0.0854   28.1406 C.ar    1  UNL1        0.0037
      5 C         -26.1635    0.5836   26.9835 C.ar    1  UNL1        0.0302
      6 C         -27.5170    0.5354   26.8440 C.ar    1  UNL1       -0.0155
      7 C         -28.3193   -0.0336   27.6731 C.ar    1  UNL1        0.0073
      8 C         -25.1561    1.1923   26.1017 C.ar    1  UNL1        0.1384
      9 C         -24.1057    1.9323   26.6893 C.ar    1  UNL1        0.0435
     10 C         -23.4994    1.2763   27.8354 C.ar    1  UNL1        0.0828
     11 C         -22.3039    1.7548   28.4290 C.2     1  UNL1        0.3879
     12 C         -24.3688    0.3188   28.5634 C.ar    1  UNL1        0.0068
     13 O         -21.7446    2.6704   27.8829 O.co2   1  UNL1       -0.2406
     14 O         -21.8761    1.1717   29.4891 O.co2   1  UNL1       -0.2406
     15 C         -28.0462    1.1622   25.5597 C.3     1  UNL1        0.0594
     16 C         -28.8197    2.1666   25.6645 C.3     1  UNL1        0.0077
     17 C         -28.4415    0.0637   24.5829 C.3     1  UNL1        0.0077
     18 C         -26.8809    1.9357   24.7263 C.3     1  UNL1        0.2092
     19 O         -25.8957    2.2248   25.2812 O.3     1  UNL1       -0.4751
     20 C         -30.2090    2.1621   25.4290 C.3     1  UNL1        0.0004
     21 C         -29.7888   -0.0481   24.2711 C.3     1  UNL1        0.0004
     22 C         -30.6071    1.0983   24.6043 C.3     1  UNL1        0.0000
@<TRIPOS>BOND
     1     1     2    1
     2    10    11    1
     3    11    13   ar
     4    11    14   ar
     5     6    15    1
     6    15    16    1
     7    15    17    1
     8    15    18    1
     9     8    19    1
    10    18    19    1
    11    20    22    1
    12    21    22    1
    13    16    20    1
    14    21    17    1
    15     5     8   ar
    16     8     9   ar
    17     9    10   ar
    18    10    12   ar
    19    12     4   ar
    20     1     3   ar
    21     3     4   ar
    22     4     5   ar
    23     5     6   ar
    24     6     7   ar
    25     7     1   ar
