@<TRIPOS>MOLECULE
No_2935-gen_results/8p0m/2024-11-26-14-13-15/
 17 18 0 0 0
SMALL
GASTEIGER

@<TRIPOS>ATOM
      1 C         -28.0162   -0.8135   28.8779 C.ar    1  UNL1       -0.0001
      2 C         -27.0636   -0.1190   28.6079 C.ar    1  UNL1       -0.0040
      3 C         -26.9716    0.7139   27.5060 C.ar    1  UNL1       -0.0182
      4 C         -28.1053    0.7744   26.6421 C.ar    1  UNL1        0.0026
      5 C         -29.2041    0.1179   27.0477 C.ar    1  UNL1        0.0795
      6 C         -29.2127   -0.6088   28.1281 C.ar    1  UNL1        0.0066
      7 C         -30.3709    0.2326   26.1381 C.2     1  UNL1        0.3877
      8 O         -30.9633    1.2270   26.0808 O.co2   1  UNL1       -0.2406
      9 O         -30.9182   -0.8958   25.8344 O.co2   1  UNL1       -0.2406
     10 C         -25.6688    1.4165   27.1356 C.3     1  UNL1        0.0446
     11 C         -24.5294    1.0726   27.7311 C.ar    1  UNL1       -0.0184
     12 C         -23.3139    1.8229   27.3639 C.ar    1  UNL1       -0.0040
     13 C         -22.0794    1.6035   28.0334 C.ar    1  UNL1       -0.0003
     14 C         -21.9945    0.5785   28.9870 C.ar    1  UNL1       -0.0000
     15 C         -23.1054   -0.2267   29.3276 C.ar    1  UNL1       -0.0003
     16 C         -24.3006    0.0360   28.6714 C.ar    1  UNL1       -0.0040
     17 C         -25.7045    2.2871   25.9909 C.3     1  UNL1        0.0094
@<TRIPOS>BOND
     1     5     7    1
     2     7     8   ar
     3     7     9   ar
     4     3    10    1
     5    10    17    1
     6    10    11    1
     7    11    12   ar
     8    12    13   ar
     9    13    14   ar
    10    14    15   ar
    11    15    16   ar
    12    16    11   ar
    13     1     2   ar
    14     2     3   ar
    15     3     4   ar
    16     4     5   ar
    17     5     6   ar
    18     6     1   ar
