@<TRIPOS>MOLECULE
No_2936-gen_results/8p0m/2024-11-26-14-13-15/
 18 19 0 0 0
SMALL
GASTEIGER

@<TRIPOS>ATOM
      1 C         -28.0162   -0.8135   28.8779 C.ar    1  UNL1       -0.0039
      2 C         -28.4690   -0.7850   29.8287 C.ar    1  UNL1       -0.0003
      3 C         -28.1960    0.3478   28.0550 C.ar    1  UNL1       -0.0181
      4 C         -29.0191    1.3501   28.3782 C.ar    1  UNL1       -0.0039
      5 C         -29.4107    0.1803   30.3782 C.ar    1  UNL1       -0.0000
      6 C         -29.6059    1.2495   29.6193 C.ar    1  UNL1       -0.0003
      7 C         -27.4597    0.3802   26.7091 C.3     1  UNL1        0.0479
      8 C         -26.0094    0.3317   26.7236 C.3     1  UNL1        0.0304
      9 C         -25.3055    0.0239   27.8527 C.ar    1  UNL1       -0.0219
     10 C         -25.4404   -0.1985   28.8241 C.ar    1  UNL1       -0.0043
     11 C         -24.3927   -0.5706   29.7926 C.ar    1  UNL1       -0.0003
     12 C         -23.1391   -0.3352   29.3011 C.ar    1  UNL1       -0.0000
     13 C         -23.7857    0.2924   27.3965 C.ar    1  UNL1       -0.0043
     14 C         -22.8093    0.1553   28.1893 C.ar    1  UNL1       -0.0003
     15 C         -25.4812    0.6809   25.4020 C.3     1  UNL1        0.0054
     16 C         -28.2939    0.4634   25.6288 C.2     1  UNL1       -0.0263
     17 C         -29.0912    1.3542   25.3915 C.2     1  UNL1       -0.0300
     18 C         -29.9020    1.3769   24.2053 C.3     1  UNL1        0.0304
@<TRIPOS>BOND
     1     3     7    1
     2     7     8    1
     3     8     9    1
     4     8    15    1
     5     7    16    1
     6    16    17    2
     7    17    18    1
     8     1     2   ar
     9     2     5   ar
    10     5     6   ar
    11     6     4   ar
    12     4     3   ar
    13     3     1   ar
    14     9    10   ar
    15    10    11   ar
    16    11    12   ar
    17    12    14   ar
    18    14    13   ar
    19    13     9   ar
