@<TRIPOS>MOLECULE
No_2937-gen_results/8p0m/2024-11-26-14-13-15/
 19 20 0 0 0
SMALL
GASTEIGER

@<TRIPOS>ATOM
      1 C         -28.0162   -0.8135   28.8779 C.ar    1  UNL1       -0.0000
      2 C         -27.0636   -0.1190   28.6079 C.ar    1  UNL1       -0.0003
      3 C         -25.7647   -0.3897   29.0360 C.ar    1  UNL1       -0.0040
      4 C         -24.5516    0.4058   28.7646 C.ar    1  UNL1       -0.0222
      5 C         -23.2300    0.1178   29.2575 C.ar    1  UNL1       -0.0043
      6 C         -23.0942   -1.1309   29.8730 C.ar    1  UNL1       -0.0003
      7 C         -27.7981   -1.9341   29.8560 C.ar    1  UNL1       -0.0000
      8 C         -26.5420   -2.3269   30.2580 C.ar    1  UNL1       -0.0000
      9 C         -25.4514   -1.5516   29.9079 C.ar    1  UNL1       -0.0003
     10 C         -24.1562   -1.9097   30.2809 C.ar    1  UNL1       -0.0000
     11 C         -24.6450    1.6582   27.9464 C.3     1  UNL1        0.0267
     12 C         -23.7169    1.8151   26.9240 C.3     1  UNL1        0.0050
     13 C         -24.5764    2.9312   28.7738 C.3     1  UNL1        0.0304
     14 C         -25.8392    3.7285   28.8664 C.2     1  UNL1       -0.0258
     15 C         -25.7934    4.8397   28.3620 C.2     1  UNL1       -0.0046
     16 C         -26.2759    5.9264   28.5938 C.2     1  UNL1       -0.0003
     17 C         -26.1526    7.2209   27.8360 C.2     1  UNL1       -0.0000
     18 C         -25.2290    7.1835   26.7592 C.2     1  UNL1       -0.0000
     19 C         -24.5688    6.0185   26.4806 C.2     1  UNL1       -0.0000
@<TRIPOS>BOND
     1     4    11    1
     2    11    12    1
     3    11    13    1
     4    13    14    1
     5    14    15    2
     6    15    16    1
     7    16    17    2
     8    17    18    1
     9    18    19    2
    10     1     2   ar
    11     2     3   ar
    12     9     8   ar
    13     8     7   ar
    14     7     1   ar
    15     3     4   ar
    16     4     5   ar
    17     5     6   ar
    18     6    10   ar
    19    10     9   ar
    20     9     3   ar
