@<TRIPOS>MOLECULE
No_2938-gen_results/8p0m/2024-11-26-14-13-15/
 20 22 0 0 0
SMALL
GASTEIGER

@<TRIPOS>ATOM
      1 C         -28.0162   -0.8135   28.8779 C.3     1  UNL1        0.1205
      2 C         -27.0636   -0.1189   28.6079 C.ar    1  UNL1       -0.0047
      3 C         -26.9287    1.1713   29.0083 C.ar    1  UNL1       -0.0049
      4 C         -25.7702    2.0341   28.6884 C.ar    1  UNL1       -0.0057
      5 C         -24.7141    1.4431   27.9188 C.ar    1  UNL1       -0.0052
      6 C         -24.8590    0.0783   27.5836 C.ar    1  UNL1       -0.0032
      7 C         -25.9647   -0.6606   27.9164 C.ar    1  UNL1       -0.0031
      8 N         -28.6995   -0.6441   30.0766 N.am    1  UNL1       -0.2679
      9 C         -29.4717   -1.1161   30.6970 C.2     1  UNL1        0.2495
     10 C         -30.0467   -2.3430   30.2355 C.ar    1  UNL1        0.0536
     11 C         -31.3337   -2.3833   29.8210 C.ar    1  UNL1        0.0045
     12 C         -31.8480   -3.5889   29.2330 C.ar    1  UNL1        0.0001
     13 C         -31.1236   -4.7880   29.3478 C.ar    1  UNL1        0.0000
     14 C         -29.8278   -4.7756   29.9615 C.ar    1  UNL1        0.0001
     15 C         -29.3089   -3.5790   30.4348 C.ar    1  UNL1        0.0045
     16 C         -28.5075    0.9868   30.1574 C.3     1  UNL1        0.1205
     17 O         -29.7531   -0.8213   31.9228 O.2     1  UNL1       -0.2699
     18 C         -23.5318    2.1504   27.5076 C.3     1  UNL1        0.1140
     19 N         -22.3580    2.2849   27.9010 N.3     1  UNL1       -0.1281
     20 C         -23.7858    2.8677   26.1703 C.3     1  UNL1        0.0253
@<TRIPOS>BOND
     1     1     2    1
     2     1     8    1
     3     8     9   am
     4     9    10    1
     5     3    16    1
     6     8    16    1
     7     9    17    2
     8     5    18    1
     9    18    19    1
    10    18    20    1
    11     2     3   ar
    12     3     4   ar
    13     4     5   ar
    14     5     6   ar
    15     6     7   ar
    16     7     2   ar
    17    10    11   ar
    18    11    12   ar
    19    12    13   ar
    20    13    14   ar
    21    14    15   ar
    22    15    10   ar
