@<TRIPOS>MOLECULE
No_294-gen_results/8p0m/2024-11-26-14-13-15/
 17 17 0 0 0
SMALL
GASTEIGER

@<TRIPOS>ATOM
      1 C         -28.0162   -0.8135   28.8779 C.3     1  UNL1        0.1160
      2 C         -27.0636   -0.1189   28.6079 C.ar    1  UNL1       -0.0048
      3 C         -25.7923   -0.4302   29.0761 C.ar    1  UNL1       -0.0027
      4 C         -24.5456    0.3494   28.8225 C.ar    1  UNL1        0.0043
      5 C         -24.6586    1.4196   27.8878 C.ar    1  UNL1        0.0566
      6 C         -25.9471    1.6811   27.3792 C.ar    1  UNL1        0.0043
      7 C         -27.0439    0.9739   27.6871 C.ar    1  UNL1       -0.0027
      8 N         -28.6643   -0.5274   30.1017 N.3     1  UNL1       -0.1965
      9 CA        -29.6153   -1.2473   30.6541 C.3     1  UNL1        0.2409
     10 C         -30.1339   -2.2836   30.0191 C.2     1  UNL1        0.3879
     11 O         -30.9750   -2.2961   29.3592 O.co2   1  UNL1       -0.2436
     12 O         -29.2657   -3.4076   30.0530 O.co2   1  UNL1       -0.2436
     13 C         -30.2241   -0.8055   31.9580 C.2     1  UNL1        0.2361
     14 C         -23.4401    2.1436   27.5932 C.2     1  UNL1        0.2842
     15 N         -22.2450    1.7101   28.0801 N.am    1  UNL1       -0.0837
     16 O         -23.4739    3.0066   26.6764 O.2     1  UNL1       -0.2667
     17 O         -29.8735   -0.0044   32.5316 O.2     1  UNL1       -0.2861
@<TRIPOS>BOND
     1     1     2    1
     2     1     8    1
     3     8     9    1
     4     9    10    1
     5    10    11   ar
     6    10    12   ar
     7     9    13    1
     8     5    14    1
     9    14    15   am
    10    14    16    2
    11    13    17    2
    12     2     3   ar
    13     3     4   ar
    14     4     5   ar
    15     5     6   ar
    16     6     7   ar
    17     7     2   ar
