@<TRIPOS>MOLECULE
No_2940-gen_results/8p0m/2024-11-26-14-13-15/
 11 11 0 0 0
SMALL
GASTEIGER

@<TRIPOS>ATOM
      1 C         -28.0162   -0.8135   28.8779 C.ar    1  UNL1        0.0188
      2 C         -28.4690   -0.7850   29.8287 C.ar    1  UNL1        0.0807
      3 C         -26.5042   -0.7777   28.8766 C.ar    1  UNL1        0.0684
      4 C         -25.8103   -0.8531   30.1028 C.ar    1  UNL1        0.0682
      5 C         -27.9906   -0.8916   31.2257 C.ar    1  UNL1        0.0075
      6 C         -26.6042   -0.8676   31.2652 C.ar    1  UNL1        0.0125
      7 C         -30.0739   -0.8360   29.8615 C.2     1  UNL1        0.3878
      8 O         -30.6825   -0.0696   30.6918 O.co2   1  UNL1       -0.2406
      9 O         -30.6262   -1.5652   29.0172 O.co2   1  UNL1       -0.2406
     10 CL        -25.5363   -0.7204   27.4838 Cl      1  UNL1       -0.0814
     11 CL        -24.1252   -0.7949   30.2108 Cl      1  UNL1       -0.0814
@<TRIPOS>BOND
     1     2     7    1
     2     7     8   ar
     3     7     9   ar
     4     3    10    1
     5     4    11    1
     6     1     2   ar
     7     2     5   ar
     8     5     6   ar
     9     6     4   ar
    10     4     3   ar
    11     3     1   ar
