@<TRIPOS>MOLECULE
No_2941-gen_results/8p0m/2024-11-26-14-13-15/
 17 19 0 0 0
SMALL
GASTEIGER

@<TRIPOS>ATOM
      1 O         -28.1229   -1.3353   28.4874 O.2     1  UNL1       -0.2726
      2 C         -27.0637   -0.8242   28.8687 C.2     1  UNL1        0.2494
      3 C         -26.4017   -0.0623   28.6224 C.3     1  UNL1        0.1223
      4 N         -26.2652   -1.8674   29.7609 N.am    1  UNL1       -0.2000
      5 C         -25.0436    0.3924   29.0662 C.ar    1  UNL1       -0.0120
      6 C         -24.2290    1.5269   28.7527 C.ar    1  UNL1       -0.0037
      7 C         -25.0293   -1.6876   30.2298 C.3     1  UNL1        0.1412
      8 C         -24.3904   -0.5549   29.8640 C.ar    1  UNL1       -0.0038
      9 C         -22.8815    1.4199   28.5594 C.ar    1  UNL1       -0.0003
     10 C         -22.2254    0.4271   29.3710 C.ar    1  UNL1       -0.0003
     11 C         -22.9218   -0.5721   30.0314 C.ar    1  UNL1       -0.0028
     12 C         -26.9601    1.0446   27.6137 C.ar    1  UNL1       -0.0097
     13 C         -28.0410    1.6447   28.0044 C.ar    1  UNL1       -0.0035
     14 C         -28.6310    2.5268   27.1543 C.ar    1  UNL1       -0.0003
     15 C         -26.4397    1.1498   26.3701 C.ar    1  UNL1       -0.0035
     16 C         -27.0068    1.9678   25.4609 C.ar    1  UNL1       -0.0003
     17 C         -28.1489    2.7336   25.8590 C.ar    1  UNL1       -0.0000
@<TRIPOS>BOND
     1     1     2    2
     2     2     3    1
     3     2     4   am
     4     7     8    1
     5     3    12    1
     6     3     5    1
     7     7     4    1
     8    12    13   ar
     9    13    14   ar
    10    14    17   ar
    11    17    16   ar
    12    16    15   ar
    13    15    12   ar
    14     5     6   ar
    15     6     9   ar
    16     9    10   ar
    17    10    11   ar
    18    11     8   ar
    19     8     5   ar
