@<TRIPOS>MOLECULE
No_2942-gen_results/8p0m/2024-11-26-14-13-15/
 15 17 0 0 0
SMALL
GASTEIGER

@<TRIPOS>ATOM
      1 C         -28.0162   -0.8135   28.8779 C.ar    1  UNL1        0.0812
      2 C         -27.0636   -0.1189   28.6079 C.ar    1  UNL1        0.0177
      3 C         -25.7923   -0.4302   29.0761 C.ar    1  UNL1        0.0015
      4 C         -25.5756   -1.5654   29.9363 C.ar    1  UNL1        0.0001
      5 C         -26.7354   -2.3004   30.2173 C.ar    1  UNL1        0.0015
      6 C         -27.9184   -1.9537   29.7629 C.ar    1  UNL1        0.0191
      7 C         -27.1057    1.1023   27.7593 C.ar    1  UNL1        0.0030
      8 C         -27.8576    1.5309   27.2156 C.ar    1  UNL1        0.0174
      9 C         -27.8433    2.7213   26.2861 C.ar    1  UNL1       -0.0028
     10 C         -28.9357    3.2862   25.6170 C.ar    1  UNL1       -0.0218
     11 C         -28.8399    4.3904   24.8512 C.3     1  UNL1        0.0310
     12 C         -30.1965    2.5903   25.6818 C.ar    1  UNL1       -0.0027
     13 C         -30.2798    1.4486   26.4748 C.ar    1  UNL1        0.0188
     14 C         -29.2813    0.9659   27.1889 C.ar    1  UNL1        0.0812
     15 N         -29.2598   -0.4873   28.4109 N.ar    1  UNL1       -0.2454
@<TRIPOS>BOND
     1    10    11    1
     2     2     3   ar
     3     3     4   ar
     4     4     5   ar
     5     5     6   ar
     6     6     1   ar
     7     8     9   ar
     8     9    10   ar
     9    10    12   ar
    10    12    13   ar
    11    13    14   ar
    12     1     2   ar
    13     2     7   ar
    14     7     8   ar
    15     8    14   ar
    16    14    15   ar
    17    15     1   ar
