@<TRIPOS>MOLECULE
No_2945-gen_results/8p0m/2024-11-26-14-13-15/
 19 21 0 0 0
SMALL
GASTEIGER

@<TRIPOS>ATOM
      1 C         -28.0162   -0.8135   28.8779 C.ar    1  UNL1        0.0502
      2 C         -27.0636   -0.1189   28.6079 C.2     1  UNL1        0.2487
      3 N         -25.8176   -0.3427   29.0487 N.am    1  UNL1       -0.2769
      4 C         -24.6757    0.3814   28.7496 C.3     1  UNL1        0.1028
      5 C         -23.4276    0.0095   29.2601 C.3     1  UNL1        0.0997
      6 C         -23.3998   -1.3166   29.7293 C.3     1  UNL1        0.0126
      7 C         -24.4611   -2.1027   29.9302 C.3     1  UNL1        0.0207
      8 C         -25.6815   -1.6129   29.4685 C.3     1  UNL1        0.0800
      9 C         -29.3178   -0.1600   29.0133 C.ar    1  UNL1        0.0109
     10 C         -30.4120   -0.8628   29.5919 C.ar    1  UNL1        0.0347
     11 C         -30.1482   -2.0876   30.1816 C.ar    1  UNL1        0.0064
     12 C         -28.9211   -2.6577   30.2748 C.ar    1  UNL1       -0.0036
     13 C         -27.8401   -1.9659   29.7634 C.ar    1  UNL1       -0.0161
     14 C         -26.7614   -2.3277   29.9253 C.3     1  UNL1        0.0463
     15 O         -27.1169    0.8878   27.6997 O.2     1  UNL1       -0.2699
     16 BR        -32.1330   -0.2013   29.4099 Br      1  UNL1       -0.0490
     17 C         -22.2260    0.7381   28.9354 C.2     1  UNL1        0.2619
     18 N         -21.0916    0.0170   28.8251 N.am    1  UNL1       -0.0878
     19 O         -22.2641    1.9124   28.6281 O.2     1  UNL1       -0.2716
@<TRIPOS>BOND
     1     1     2    1
     2     2     3   am
     3     3     4    1
     4     5     6    1
     5     3     8    1
     6     7     8    1
     7     8    14    1
     8    13    14    1
     9     2    15    2
    10    10    16    1
    11     5    17    1
    12    17    18   am
    13    17    19    2
    14     4     5    1
    15     6     7    1
    16     1     9   ar
    17     9    10   ar
    18    10    11   ar
    19    11    12   ar
    20    12    13   ar
    21    13     1   ar
