@<TRIPOS>MOLECULE
No_2946-gen_results/8p0m/2024-11-26-14-13-15/
 15 16 0 0 0
SMALL
GASTEIGER

@<TRIPOS>ATOM
      1 C         -28.0162   -0.8135   28.8779 C.ar    1  UNL1        0.0046
      2 C         -28.4690   -0.7850   29.8287 C.ar    1  UNL1        0.0554
      3 C         -26.5042   -0.7777   28.8766 C.ar    1  UNL1        0.0001
      4 C         -25.8103   -0.8531   30.1028 C.ar    1  UNL1        0.0000
      5 C         -30.0136   -0.8410   29.8508 C.2     1  UNL1        0.2690
      6 C         -26.5670   -0.8850   31.2517 C.ar    1  UNL1        0.0001
      7 C         -27.9411   -0.9069   31.1850 C.ar    1  UNL1        0.0046
      8 N         -30.6476   -0.1344   28.9948 N.am    1  UNL1       -0.1754
      9 C         -31.7166   -0.4734   28.3269 C.ar    1  UNL1        0.0737
     10 C         -32.3848   -1.5662   28.6241 C.ar    1  UNL1        0.0166
     11 O         -30.5816   -1.7120   30.5682 O.2     1  UNL1       -0.2680
     12 C         -32.0816    0.3821   27.2251 C.ar    1  UNL1        0.0166
     13 C         -33.5172   -2.0002   27.7957 C.ar    1  UNL1        0.0013
     14 C         -33.2214   -0.0214   26.4569 C.ar    1  UNL1        0.0013
     15 C         -33.9087   -1.1851   26.7656 C.ar    1  UNL1        0.0001
@<TRIPOS>BOND
     1     2     5    1
     2     5     8   am
     3     8     9    1
     4     5    11    2
     5     9    10   ar
     6    10    13   ar
     7    13    15   ar
     8    15    14   ar
     9    14    12   ar
    10    12     9   ar
    11     1     2   ar
    12     2     7   ar
    13     7     6   ar
    14     6     4   ar
    15     4     3   ar
    16     3     1   ar
