@<TRIPOS>MOLECULE
No_2948-gen_results/8p0m/2024-11-26-14-13-15/
 11 11 0 0 0
SMALL
GASTEIGER

@<TRIPOS>ATOM
      1 C         -28.0162   -0.8135   28.8779 C.ar    1  UNL1        0.0342
      2 C         -27.0636   -0.1189   28.6079 C.ar    1  UNL1        0.1403
      3 C         -25.7923   -0.4302   29.0761 C.ar    1  UNL1        0.0296
      4 C         -25.5756   -1.5654   29.9363 C.ar    1  UNL1        0.0025
      5 C         -26.7354   -2.3004   30.2173 C.ar    1  UNL1        0.0047
      6 C         -27.9184   -1.9537   29.7629 C.ar    1  UNL1        0.0573
      7 F         -27.1354    0.9934   27.8754 F       1  UNL1       -0.2042
      8 C         -29.0659   -2.8011   30.1862 C.2     1  UNL1        0.2649
      9 O         -29.0056   -4.0181   30.3052 O.2     1  UNL1       -0.2684
     10 N         -30.0707   -2.1513   30.8374 N.am    1  UNL1       -0.1998
     11 C         -31.2372   -2.8992   31.3413 C.3     1  UNL1        0.1388
@<TRIPOS>BOND
     1     2     7    1
     2     6     8    1
     3     8     9    2
     4     8    10   am
     5    10    11    1
     6     1     2   ar
     7     2     3   ar
     8     3     4   ar
     9     4     5   ar
    10     5     6   ar
    11     6     1   ar
