@<TRIPOS>MOLECULE
No_2949-gen_results/8p0m/2024-11-26-14-13-15/
 17 18 0 0 0
SMALL
GASTEIGER

@<TRIPOS>ATOM
      1 C         -28.0162   -0.8135   28.8779 C.ar    1  UNL1        0.0024
      2 C         -28.4690   -0.7850   29.8287 C.ar    1  UNL1        0.0795
      3 C         -27.1356    0.2359   28.5352 C.ar    1  UNL1       -0.0192
      4 C         -26.3351    0.2900   27.2835 C.3     1  UNL1        0.0275
      5 C         -29.3807   -1.9134   30.3549 C.2     1  UNL1        0.3877
      6 C         -28.2295    0.3010   30.9036 C.ar    1  UNL1        0.0066
      7 C         -25.3800    1.2740   27.0672 C.3     1  UNL1        0.0238
      8 C         -27.4150    1.3108   30.6139 C.ar    1  UNL1        0.0027
      9 C         -26.7451    1.3177   29.4039 C.ar    1  UNL1        0.0313
     10 C         -25.1639    2.3202   27.9821 C.3     1  UNL1        0.1651
     11 C         -25.8103    2.3449   29.1044 C.2     1  UNL1        0.1831
     12 O         -29.7988   -1.8810   31.5376 O.co2   1  UNL1       -0.2406
     13 O         -29.7958   -2.7182   29.5306 O.co2   1  UNL1       -0.2406
     14 C         -24.1210    3.3277   27.5355 C.2     1  UNL1        0.3716
     15 O         -24.1080    4.3513   28.0422 O.co2   1  UNL1       -0.2452
     16 O         -23.3818    3.0487   26.4704 O.co2   1  UNL1       -0.2452
     17 O         -25.5756    3.2906   30.0674 O.2     1  UNL1       -0.2908
@<TRIPOS>BOND
     1     3     4    1
     2     2     5    1
     3     7    10    1
     4     9    11    1
     5    10    11    1
     6     5    12   ar
     7     5    13   ar
     8    10    14    1
     9    14    15   ar
    10    14    16   ar
    11    11    17    2
    12     4     7    1
    13     1     2   ar
    14     2     6   ar
    15     6     8   ar
    16     8     9   ar
    17     9     3   ar
    18     3     1   ar
