@<TRIPOS>MOLECULE
No_295-gen_results/8p0m/2024-11-26-14-13-15/
 21 22 0 0 0
SMALL
GASTEIGER

@<TRIPOS>ATOM
      1 C         -28.0162   -0.8135   28.8779 C.ar    1  UNL1       -0.0039
      2 C         -28.4690   -0.7850   29.8287 C.ar    1  UNL1       -0.0003
      3 C         -26.5455   -0.8762   28.8500 C.ar    1  UNL1       -0.0179
      4 C         -25.6825   -0.7773   27.6829 C.3     1  UNL1        0.0526
      5 C         -27.9181   -1.0034   31.1877 C.ar    1  UNL1       -0.0000
      6 C         -26.5308   -1.0794   31.2463 C.ar    1  UNL1       -0.0005
      7 C         -25.7798   -1.0462   30.0905 C.ar    1  UNL1       -0.0027
      8 C         -25.8976    0.2387   26.7449 C.ar    1  UNL1       -0.0178
      9 C         -25.6318    1.4984   27.0379 C.ar    1  UNL1       -0.0039
     10 C         -25.9064    2.5028   26.1402 C.ar    1  UNL1       -0.0003
     11 C         -26.5787    2.1721   24.9744 C.ar    1  UNL1       -0.0000
     12 C         -26.6336    0.0222   25.5558 C.ar    1  UNL1       -0.0039
     13 C         -26.9368    0.9400   24.7148 C.ar    1  UNL1       -0.0003
     14 C         -24.3787   -1.1965   30.1022 C.2     1  UNL1        0.0391
     15 C         -23.6194   -0.7492   30.6980 C.2     1  UNL1       -0.0235
     16 C         -22.1176   -0.8278   30.5863 C.3     1  UNL1        0.0464
     17 C         -23.9290   -2.5152   29.4410 C.3     1  UNL1        0.3407
     18 F         -24.7535   -3.2817   28.9485 F       1  UNL1       -0.1933
     19 C         -21.7702   -0.7117   29.2860 C.3     1  UNL1        0.1140
     20 N         -20.5763   -0.0463   29.1189 N.3     1  UNL1       -0.1310
     21 F         -22.9503   -2.2507   28.5951 F       1  UNL1       -0.1933
@<TRIPOS>BOND
     1     3     4    1
     2     4     8    1
     3     7    14    1
     4    14    15    2
     5    15    16    1
     6    14    17    1
     7    17    18    1
     8    16    19    1
     9    19    20    1
    10    17    21    1
    11     1     2   ar
    12     2     5   ar
    13     5     6   ar
    14     6     7   ar
    15     7     3   ar
    16     3     1   ar
    17     8     9   ar
    18     9    10   ar
    19    10    11   ar
    20    11    13   ar
    21    13    12   ar
    22    12     8   ar
