@<TRIPOS>MOLECULE
No_2950-gen_results/8p0m/2024-11-26-14-13-15/
 29 31 0 0 0
SMALL
GASTEIGER

@<TRIPOS>ATOM
      1 C         -28.0162   -0.8135   28.8779 C.ar    1  UNL1        0.0091
      2 C         -28.4690   -0.7850   29.8287 C.ar    1  UNL1        0.0568
      3 C         -28.1816    0.4277   28.1134 C.ar    1  UNL1        0.0540
      4 C         -28.9841    1.4155   28.5154 C.ar    1  UNL1        0.0045
      5 C         -29.3802    0.1384   30.4612 C.ar    1  UNL1        0.0046
      6 C         -29.5415    1.2736   29.7242 C.ar    1  UNL1        0.0003
      7 C         -27.4452    0.4872   26.7726 C.2     1  UNL1        0.2528
      8 N         -26.6428    1.5153   26.5778 N.am    1  UNL1       -0.2534
      9 C         -25.4250    1.6639   27.3102 C.ar    1  UNL1        0.0539
     10 C         -24.6351    2.7948   27.0511 C.ar    1  UNL1        0.0149
     11 C         -24.9308    0.6991   28.1629 C.ar    1  UNL1        0.0106
     12 C         -23.6901    0.8977   28.7864 C.ar    1  UNL1       -0.0210
     13 C         -22.8902    1.8966   28.4740 C.ar    1  UNL1       -0.0042
     14 C         -23.3404    2.8945   27.6125 C.ar    1  UNL1        0.0010
     15 C         -27.1035    2.5742   25.7594 C.3     1  UNL1        0.1203
     16 O         -27.8851   -0.0213   25.7368 O.2     1  UNL1       -0.2696
     17 C         -23.1705   -0.2870   29.6103 C.3     1  UNL1        0.0264
     18 C         -23.9214   -0.5452   30.7356 C.3     1  UNL1        0.0050
     19 C         -25.2224   -0.3833   30.7654 C.3     1  UNL1        0.0050
     20 C         -25.6981    0.2723   32.0738 C.3     1  UNL1        0.0264
     21 C         -25.9077    1.7034   32.1109 C.ar    1  UNL1       -0.0222
     22 C         -26.7683    2.2087   32.2874 C.ar    1  UNL1       -0.0043
     23 C         -26.9130    3.7181   32.3432 C.ar    1  UNL1       -0.0003
     24 C         -25.7882    4.4566   32.0830 C.ar    1  UNL1       -0.0000
     25 C         -24.5517    3.7688   31.8740 C.ar    1  UNL1       -0.0003
     26 C         -24.5646    2.3483   31.8767 C.ar    1  UNL1       -0.0043
     27 C         -28.3379   -2.1064   30.8149 C.2     1  UNL1        0.2842
     28 N         -27.6068   -2.9771   30.4193 N.am    1  UNL1       -0.0837
     29 O         -28.9214   -2.1203   31.9332 O.2     1  UNL1       -0.2667
@<TRIPOS>BOND
     1     3     7    1
     2     7     8   am
     3     8     9    1
     4     8    15    1
     5     7    16    2
     6    12    17    1
     7    17    18    1
     8    18    19    1
     9    19    20    1
    10    20    21    1
    11     2    27    1
    12    27    28   am
    13    27    29    2
    14     9    10   ar
    15    10    14   ar
    16    14    13   ar
    17    13    12   ar
    18    12    11   ar
    19    11     9   ar
    20     1     2   ar
    21     2     5   ar
    22     5     6   ar
    23     6     4   ar
    24     4     3   ar
    25     3     1   ar
    26    21    22   ar
    27    22    23   ar
    28    23    24   ar
    29    24    25   ar
    30    25    26   ar
    31    26    21   ar
