@<TRIPOS>MOLECULE
No_2951-gen_results/8p0m/2024-11-26-14-13-15/
 12 12 0 0 0
SMALL
GASTEIGER

@<TRIPOS>ATOM
      1 C         -28.0162   -0.8135   28.8779 C.3     1  UNL1        0.0179
      2 C         -27.0636   -0.1190   28.6079 C.3     1  UNL1        0.0949
      3 CL        -26.9528    1.3495   28.8384 Cl      1  UNL1       -0.1137
      4 C         -28.3373   -0.6768   30.3443 C.3     1  UNL1        0.0060
      5 C         -28.5503    0.6365   30.7411 C.3     1  UNL1        0.0261
      6 C         -27.3418    1.4988   30.4368 C.ar    1  UNL1       -0.0261
      7 C         -26.1301    1.1851   31.2819 C.ar    1  UNL1       -0.0046
      8 C         -27.6671    2.9999   30.7610 C.ar    1  UNL1       -0.0258
      9 C         -28.3815    3.6854   30.0635 C.3     1  UNL1        0.0307
     10 C         -26.9644    3.4977   31.9659 C.ar    1  UNL1       -0.0046
     11 C         -25.9383    3.0115   32.6905 C.ar    1  UNL1       -0.0003
     12 C         -25.5565    1.7383   32.3971 C.ar    1  UNL1       -0.0003
@<TRIPOS>BOND
     1     1     2    1
     2     2     3    1
     3     1     4    1
     4     4     5    1
     5     5     6    1
     6     8     9    1
     7     6     7   ar
     8     7    12   ar
     9    12    11   ar
    10    11    10   ar
    11    10     8   ar
    12     8     6   ar
