@<TRIPOS>MOLECULE
No_2952-gen_results/8p0m/2024-11-26-14-13-15/
 14 15 0 0 0
SMALL
GASTEIGER

@<TRIPOS>ATOM
      1 C         -28.0162   -0.8135   28.8779 C.ar    1  UNL1        0.0009
      2 C         -27.0636   -0.1189   28.6079 C.ar    1  UNL1        0.0001
      3 C         -26.9716    0.7139   27.5060 C.ar    1  UNL1        0.0009
      4 C         -28.1053    0.7744   26.6421 C.ar    1  UNL1        0.0114
      5 C         -29.2008    0.1044   27.0527 C.ar    1  UNL1        0.0577
      6 C         -29.2096   -0.6029   28.1853 C.ar    1  UNL1        0.0114
      7 CL        -30.5720    0.2423   26.0548 Cl      1  UNL1       -0.0822
      8 C         -25.7026   -0.2359   29.4139 C.ar    1  UNL1        0.0022
      9 C         -25.5965   -0.4792   30.4557 C.ar    1  UNL1        0.0001
     10 C         -24.2932   -0.5731   31.1857 C.ar    1  UNL1        0.0023
     11 C         -23.1212   -0.3537   30.4700 C.ar    1  UNL1        0.0296
     12 C         -23.2328   -0.1110   29.1248 C.ar    1  UNL1        0.1401
     13 C         -24.5058   -0.0499   28.4841 C.ar    1  UNL1        0.0296
     14 F         -22.1334    0.0925   28.4656 F       1  UNL1       -0.2042
@<TRIPOS>BOND
     1     5     7    1
     2     2     8    1
     3    12    14    1
     4     1     2   ar
     5     2     3   ar
     6     3     4   ar
     7     4     5   ar
     8     5     6   ar
     9     6     1   ar
    10     8     9   ar
    11     9    10   ar
    12    10    11   ar
    13    11    12   ar
    14    12    13   ar
    15    13     8   ar
