@<TRIPOS>MOLECULE
No_2953-gen_results/8p0m/2024-11-26-14-13-15/
 17 19 0 0 0
SMALL
GASTEIGER

@<TRIPOS>ATOM
      1 C         -28.0162   -0.8135   28.8779 C.ar    1  UNL1        0.0476
      2 C         -28.4690   -0.7850   29.8287 C.ar    1  UNL1        0.0145
      3 C         -28.1816    0.4277   28.1134 C.ar    1  UNL1       -0.0082
      4 C         -27.4498    0.6435   26.8500 C.3     1  UNL1        0.0323
      5 C         -26.1815    0.0357   26.7145 C.3     1  UNL1        0.0323
      6 C         -25.2987    0.1871   27.5499 C.ar    1  UNL1       -0.0085
      7 C         -23.9032    0.2113   27.2890 C.ar    1  UNL1       -0.0073
      8 C         -23.0352    0.1096   28.5071 C.ar    1  UNL1       -0.0221
      9 C         -21.6495    0.2856   28.4394 C.3     1  UNL1        0.0310
     10 C         -29.5419    0.0480   30.3364 C.ar    1  UNL1        0.0013
     11 C         -29.8127    1.1396   29.6045 C.ar    1  UNL1       -0.0002
     12 C         -29.1339    1.3788   28.4661 C.ar    1  UNL1       -0.0030
     13 C         -23.5953   -0.3155   29.7953 C.ar    1  UNL1       -0.0030
     14 C         -24.9502   -0.4867   29.9248 C.ar    1  UNL1        0.0142
     15 C         -25.7050   -0.3114   28.9662 C.ar    1  UNL1        0.0475
     16 N         -27.0218   -0.6024   29.0458 N.pl3   1  UNL1       -0.2856
     17 C         -26.5975   -1.7392   30.0069 C.3     1  UNL1        0.1172
@<TRIPOS>BOND
     1     3     4    1
     2     4     5    1
     3     8     9    1
     4     1    16    1
     5    15    16    1
     6    16    17    1
     7     5     6    1
     8     6     7   ar
     9     7     8   ar
    10     8    13   ar
    11    13    14   ar
    12    14    15   ar
    13    15     6   ar
    14     1     2   ar
    15     2    10   ar
    16    10    11   ar
    17    11    12   ar
    18    12     3   ar
    19     3     1   ar
