@<TRIPOS>MOLECULE
No_2954-gen_results/8p0m/2024-11-26-14-13-15/
 9 9 0 0 0
SMALL
GASTEIGER

@<TRIPOS>ATOM
      1 O         -28.1229   -1.3353   28.4874 O.2     1  UNL1       -0.2733
      2 C         -27.4806   -0.4044   28.7094 C.2     1  UNL1        0.2424
      3 C         -26.3804   -0.0867   27.9394 C.3     1  UNL1        0.1010
      4 N         -27.4232    0.1749   30.0549 N.am    1  UNL1       -0.2024
      5 C         -25.8482    1.0048   27.9942 C.3     1  UNL1        0.1005
      6 C         -25.8487    1.7377   29.2952 C.3     1  UNL1        0.1934
      7 C         -26.7619    1.3299   30.2362 C.3     1  UNL1        0.1511
      8 F         -25.1542    2.8321   29.4412 F       1  UNL1       -0.2344
      9 BR        -24.5661    1.4658   26.7414 Br      1  UNL1       -0.0782
@<TRIPOS>BOND
     1     1     2    2
     2     2     3    1
     3     2     4   am
     4     5     6    1
     5     6     7    1
     6     6     8    1
     7     5     9    1
     8     3     5    1
     9     7     4    1
