@<TRIPOS>MOLECULE
No_2955-gen_results/8p0m/2024-11-26-14-13-15/
 15 16 0 0 0
SMALL
GASTEIGER

@<TRIPOS>ATOM
      1 C         -28.0162   -0.8135   28.8779 C.ar    1  UNL1        0.0166
      2 C         -28.4690   -0.7850   29.8287 C.ar    1  UNL1        0.0013
      3 C         -28.1960    0.3478   28.0550 C.ar    1  UNL1        0.0737
      4 C         -29.0191    1.3501   28.3782 C.ar    1  UNL1        0.0166
      5 C         -29.4107    0.1803   30.3782 C.ar    1  UNL1        0.0001
      6 C         -29.6059    1.2495   29.6193 C.ar    1  UNL1        0.0013
      7 N         -27.4964    0.3635   26.7983 N.am    1  UNL1       -0.1754
      8 C         -26.4285    1.2397   26.5261 C.2     1  UNL1        0.2690
      9 C         -25.1317    0.9908   27.0363 C.ar    1  UNL1        0.0554
     10 C         -24.1287    1.9176   26.8444 C.ar    1  UNL1        0.0046
     11 C         -22.8262    1.7141   27.4015 C.ar    1  UNL1        0.0001
     12 C         -22.5723    0.6145   28.2767 C.ar    1  UNL1        0.0000
     13 C         -23.6356   -0.3025   28.4663 C.ar    1  UNL1        0.0001
     14 C         -24.8701   -0.1164   27.9147 C.ar    1  UNL1        0.0046
     15 O         -26.7477    2.2655   25.9230 O.2     1  UNL1       -0.2680
@<TRIPOS>BOND
     1     3     7    1
     2     7     8   am
     3     8     9    1
     4     8    15    2
     5     9    10   ar
     6    10    11   ar
     7    11    12   ar
     8    12    13   ar
     9    13    14   ar
    10    14     9   ar
    11     1     2   ar
    12     2     5   ar
    13     5     6   ar
    14     6     4   ar
    15     4     3   ar
    16     3     1   ar
