@<TRIPOS>MOLECULE
No_2956-gen_results/8p0m/2024-11-26-14-13-15/
 23 25 0 0 0
SMALL
GASTEIGER

@<TRIPOS>ATOM
      1 C         -28.0162   -0.8135   28.8779 C.3     1  UNL1        0.0993
      2 C         -27.0636   -0.1190   28.6079 C.ar    1  UNL1       -0.0007
      3 C         -26.9716    0.7139   27.5060 C.ar    1  UNL1        0.0652
      4 C         -25.8205    1.4909   27.1160 C.ar    1  UNL1        0.0082
      5 C         -24.6562    1.4242   27.9180 C.ar    1  UNL1        0.0372
      6 C         -24.7114    0.5419   29.0507 C.ar    1  UNL1        0.0316
      7 C         -25.8042   -0.2058   29.3881 C.ar    1  UNL1       -0.0004
      8 N         -28.7233   -0.6113   29.9885 N.3     1  UNL1       -0.2689
      9 C         -29.8128   -1.4112   30.4034 C.3     1  UNL1        0.0736
     10 C         -23.3473    1.9248   27.7246 C.ar    1  UNL1        0.1698
     11 N         -22.2818    1.6360   28.3955 N.ar    1  UNL1       -0.2236
     12 N         -23.2761    2.9689   26.7900 N.pl3   1  UNL1       -0.1072
     13 C         -30.4168   -1.2090   31.6072 C.3     1  UNL1        0.0336
     14 C         -28.4674    0.4577   30.9211 C.3     1  UNL1        0.0736
     15 C         -29.0874    0.6767   32.0890 C.3     1  UNL1        0.0336
     16 C         -30.0995   -0.1507   32.4534 C.3     1  UNL1        0.0827
     17 C         -28.0829    0.8940   26.5931 C.2     1  UNL1        0.3332
     18 O         -28.0969    0.8021   25.4562 O.2     1  UNL1       -0.2541
     19 F         -29.2801    0.9016   27.1990 F       1  UNL1       -0.1586
     20 C         -22.1294    0.5053   29.0333 C.ar    1  UNL1        0.1299
     21 C         -23.1152   -0.2963   29.2793 C.ar    1  UNL1        0.1592
     22 F         -23.2170   -1.2462   30.1072 F       1  UNL1       -0.2025
     23 CL        -30.9388    0.0336   33.9433 Cl      1  UNL1       -0.1149
@<TRIPOS>BOND
     1     1     8    1
     2     8     9    1
     3    10    12    1
     4     8    14    1
     5    13    16    1
     6    15    16    1
     7     3    17    1
     8    17    18    2
     9    17    19    1
    10    21    22    1
    11    16    23    1
    12     1     2    1
    13     9    13    1
    14    15    14    1
    15     2     3   ar
    16     3     4   ar
    17     4     5   ar
    18     6     7   ar
    19     7     2   ar
    20     5     6   ar
    21     6    21   ar
    22    21    20   ar
    23    20    11   ar
    24    11    10   ar
    25    10     5   ar
