@<TRIPOS>MOLECULE
No_2957-gen_results/8p0m/2024-11-26-14-13-15/
 15 16 0 0 0
SMALL
GASTEIGER

@<TRIPOS>ATOM
      1 BR        -28.1146   -0.6256   29.0813 Br      1  UNL1       -0.0458
      2 C         -26.9268    0.4545   28.6846 C.ar    1  UNL1        0.0690
      3 C         -25.8457    0.7043   29.3312 C.ar    1  UNL1        0.0094
      4 C         -24.8514    1.6413   28.9474 C.ar    1  UNL1       -0.0036
      5 C         -25.0097    2.3205   27.7273 C.ar    1  UNL1       -0.0188
      6 C         -24.0776    3.2874   27.2558 C.3     1  UNL1        0.0311
      7 C         -26.0951    2.0148   26.9561 C.ar    1  UNL1        0.0338
      8 C         -27.0086    1.0875   27.4226 C.ar    1  UNL1        0.1511
      9 O         -28.0880    0.8226   26.6239 O.3     1  UNL1       -0.4530
     10 C         -29.1994    0.6904   26.8510 C.ar    1  UNL1        0.1453
     11 C         -30.0393    1.6901   26.4134 C.ar    1  UNL1        0.0375
     12 C         -31.4140    1.7143   26.7246 C.ar    1  UNL1        0.0031
     13 C         -31.9234    0.5754   27.2936 C.ar    1  UNL1        0.0002
     14 C         -31.1451   -0.5001   27.6312 C.ar    1  UNL1        0.0031
     15 C         -29.8046   -0.4333   27.4213 C.ar    1  UNL1        0.0375
@<TRIPOS>BOND
     1     1     2    1
     2     5     6    1
     3     8     9    1
     4     9    10    1
     5    10    11   ar
     6    11    12   ar
     7    12    13   ar
     8    13    14   ar
     9    14    15   ar
    10    15    10   ar
    11     2     3   ar
    12     3     4   ar
    13     4     5   ar
    14     5     7   ar
    15     7     8   ar
    16     8     2   ar
