@<TRIPOS>MOLECULE
No_2958-gen_results/8p0m/2024-11-26-14-13-15/
 17 18 0 0 0
SMALL
GASTEIGER

@<TRIPOS>ATOM
      1 C         -28.0162   -0.8135   28.8779 C.ar    1  UNL1        0.0340
      2 C         -27.0636   -0.1189   28.6079 C.ar    1  UNL1        0.0029
      3 C         -26.9716    0.7139   27.5060 C.ar    1  UNL1        0.0002
      4 C         -25.8205    1.4910   27.1160 C.ar    1  UNL1        0.0046
      5 C         -24.6562    1.4242   27.9180 C.ar    1  UNL1        0.0567
      6 C         -24.6847    0.5901   29.0659 C.ar    1  UNL1        0.0046
      7 C         -25.8099   -0.1265   29.3338 C.ar    1  UNL1        0.0002
      8 C         -29.2444   -0.0768   29.2011 C.ar    1  UNL1        0.0030
      9 C         -30.3707   -0.8034   29.6891 C.ar    1  UNL1        0.0002
     10 C         -30.1606   -2.0940   30.1407 C.ar    1  UNL1        0.0031
     11 C         -28.9300   -2.7201   30.1719 C.ar    1  UNL1        0.0369
     12 C         -27.8389   -2.0428   29.6726 C.ar    1  UNL1        0.1386
     13 C         -23.4603    2.1958   27.6017 C.2     1  UNL1        0.2842
     14 O         -23.4545    3.0833   26.7919 O.2     1  UNL1       -0.2667
     15 N         -22.2122    1.7546   28.0943 N.am    1  UNL1       -0.0837
     16 O         -26.6457   -2.6317   29.7311 O.3     1  UNL1       -0.4714
     17 C         -26.3737   -3.7682   30.0548 C.3     1  UNL1        0.2525
@<TRIPOS>BOND
     1     5    13    1
     2    13    14    2
     3    13    15   am
     4    12    16    1
     5    16    17    1
     6     1     2    1
     7     2     3   ar
     8     3     4   ar
     9     4     5   ar
    10     5     6   ar
    11     6     7   ar
    12     7     2   ar
    13     1     8   ar
    14     8     9   ar
    15     9    10   ar
    16    10    11   ar
    17    11    12   ar
    18    12     1   ar
