@<TRIPOS>MOLECULE
No_2959-gen_results/8p0m/2024-11-26-14-13-15/
 16 16 0 0 0
SMALL
GASTEIGER

@<TRIPOS>ATOM
      1 O         -28.1229   -1.3353   28.4874 O.2     1  UNL1       -0.2637
      2 C         -28.5208   -0.4363   29.0779 C.2     1  UNL1        0.3435
      3 C         -29.6977    0.0507   28.9764 C.3     1  UNL1        0.4716
      4 N         -27.5405    0.1756   30.0054 N.am    1  UNL1       -0.1338
      5 C         -26.2376   -0.0526   30.0396 C.2     1  UNL1        0.2716
      6 C         -25.3557    0.2853   29.1255 C.ar    1  UNL1        0.0568
      7 C         -24.0909   -0.2772   29.0359 C.ar    1  UNL1        0.0047
      8 C         -23.0519    0.1177   28.0800 C.ar    1  UNL1        0.0015
      9 C         -23.3867    1.1601   27.2065 C.ar    1  UNL1        0.0181
     10 C         -24.6885    1.7008   27.2019 C.ar    1  UNL1        0.0892
     11 C         -25.6028    1.3178   28.1053 C.ar    1  UNL1        0.0226
     12 F         -29.9302   -0.0518   27.9938 F       1  UNL1       -0.1620
     13 F         -29.8023    1.3406   29.4044 F       1  UNL1       -0.1620
     14 F         -30.5102   -0.6824   29.7946 F       1  UNL1       -0.1620
     15 N         -24.9216    2.6776   26.2581 N.pl3   1  UNL1       -0.1281
     16 O         -25.9107   -0.4556   31.2332 O.2     1  UNL1       -0.2679
@<TRIPOS>BOND
     1     1     2    2
     2     2     3    1
     3     2     4   am
     4     4     5   am
     5     5     6    1
     6     3    12    1
     7     3    13    1
     8     3    14    1
     9    10    15    1
    10     5    16    2
    11     6     7   ar
    12     7     8   ar
    13     8     9   ar
    14     9    10   ar
    15    10    11   ar
    16    11     6   ar
