@<TRIPOS>MOLECULE
No_296-gen_results/8p0m/2024-11-26-14-13-15/
 35 39 0 0 0
SMALL
GASTEIGER

@<TRIPOS>ATOM
      1 C         -28.0162   -0.8135   28.8779 C.ar    1  UNL1        0.0073
      2 C         -27.0636   -0.1189   28.6079 C.ar    1  UNL1        0.0108
      3 C         -27.0010    0.6913   27.4910 C.ar    1  UNL1        0.0008
      4 C         -27.1778    1.9037   27.5632 C.ar    1  UNL1        0.0000
      5 C         -28.0594   -1.3960   30.2136 C.ar    1  UNL1        0.0757
      6 C         -27.2549   -1.6159   30.7794 C.ar    1  UNL1        0.0073
      7 C         -25.8156   -0.2424   29.3891 C.ar    1  UNL1        0.0577
      8 C         -25.8899   -1.0470   30.5411 C.ar    1  UNL1        0.0116
      9 C         -26.5652    0.1187   26.2101 C.ar    1  UNL1        0.0000
     10 C         -27.1532    2.8101   26.4016 C.ar    1  UNL1        0.0000
     11 C         -26.5545    0.8370   25.0092 C.ar    1  UNL1        0.0000
     12 C         -26.8013    2.2334   25.0833 C.ar    1  UNL1        0.0000
     13 CL        -24.2654    0.2321   28.9354 Cl      1  UNL1       -0.0822
     14 C         -29.5031   -2.0752   30.4550 C.2     1  UNL1        0.3416
     15 O         -29.6207   -3.2353   30.6796 O.2     1  UNL1       -0.2449
     16 O         -30.5135   -1.3305   30.4439 O.3     1  UNL1       -0.4384
     17 C         -31.7555   -1.7299   30.0698 C.3     1  UNL1        0.2608
     18 C         -32.1709   -1.4406   28.8602 C.2     1  UNL1        0.4032
     19 O         -31.7303   -0.4888   28.2648 O.co2   1  UNL1       -0.2417
     20 O         -32.9620   -2.1833   28.2103 O.co2   1  UNL1       -0.2417
     21 C         -32.6564   -1.0423   31.1304 C.3     1  UNL1        0.0828
     22 C         -33.1781   -1.7799   32.0158 C.ar    1  UNL1        0.0092
     23 C         -32.8686   -3.1150   32.2050 C.ar    1  UNL1       -0.0033
     24 C         -33.0199   -3.7543   33.4103 C.ar    1  UNL1       -0.0004
     25 C         -33.8431   -3.0849   34.3995 C.ar    1  UNL1        0.0023
     26 C         -34.2340   -1.7955   34.2527 C.ar    1  UNL1        0.0293
     27 C         -33.8099   -1.0992   33.1627 C.ar    1  UNL1        0.1363
     28 F         -34.1756    0.1438   33.0507 F       1  UNL1       -0.2045
     29 C         -32.7028   -5.1926   33.5253 C.ar    1  UNL1       -0.0000
     30 C         -32.0233   -5.7521   32.6856 C.ar    1  UNL1       -0.0002
     31 C         -31.5162   -5.1082   31.5118 C.ar    1  UNL1       -0.0018
     32 C         -32.0214   -3.8235   31.3033 C.ar    1  UNL1        0.0087
     33 C         -31.3092   -2.8174   30.3944 C.3     1  UNL1        0.1888
     34 O         -31.1623   -3.6434   29.1663 O.3     1  UNL1       -0.2170
     35 C         -32.0977   -3.1049   29.8008 C.3     1  UNL1        0.0418
@<TRIPOS>BOND
     1     2     3    1
     2     7    13    1
     3     5    14    1
     4    14    15    2
     5    14    16    1
     6    16    17    1
     7    17    18    1
     8    18    19   ar
     9    18    20   ar
    10    17    21    1
    11    27    28    1
    12    17    33    1
    13    32    33    1
    14    33    34    1
    15    33    35    1
    16    21    22    1
    17    24    29   ar
    18    29    30   ar
    19    30    31   ar
    20    31    32   ar
    21    32    23   ar
    22    22    23   ar
    23    23    24   ar
    24    24    25   ar
    25    25    26   ar
    26    26    27   ar
    27    27    22   ar
    28     3     4   ar
    29     4    10   ar
    30    10    12   ar
    31    12    11   ar
    32    11     9   ar
    33     9     3   ar
    34     1     2   ar
    35     2     7   ar
    36     7     8   ar
    37     8     6   ar
    38     6     5   ar
    39     5     1   ar
