@<TRIPOS>MOLECULE
No_2960-gen_results/8p0m/2024-11-26-14-13-15/
 24 27 0 0 0
SMALL
GASTEIGER

@<TRIPOS>ATOM
      1 C         -28.0162   -0.8135   28.8779 C.ar    1  UNL1        0.0058
      2 C         -27.0636   -0.1189   28.6079 C.ar    1  UNL1        0.0002
      3 C         -26.9287    1.1713   29.0083 C.ar    1  UNL1        0.0013
      4 C         -27.9560    1.7411   29.7840 C.ar    1  UNL1        0.0153
      5 C         -29.0569   -0.3271   29.7466 C.ar    1  UNL1        0.0678
      6 C         -30.1704   -1.1582   30.1327 C.2     1  UNL1        0.2540
      7 C         -28.9772    0.9577   30.1786 C.ar    1  UNL1        0.0600
      8 N         -31.1745   -1.1215   29.5870 N.am    1  UNL1       -0.2540
      9 O         -29.9249   -2.0982   31.0467 O.2     1  UNL1       -0.2695
     10 C         -31.5372   -0.1601   28.5719 C.ar    1  UNL1        0.0680
     11 C         -32.2037   -0.3471   27.6266 C.ar    1  UNL1        0.0162
     12 C         -32.4978    0.5940   26.5594 C.ar    1  UNL1        0.0014
     13 C         -31.9270    1.8822   26.7110 C.ar    1  UNL1        0.0014
     14 C         -31.1257    2.1398   27.7806 C.ar    1  UNL1        0.0164
     15 C         -30.8924    1.1695   28.6839 C.ar    1  UNL1        0.0693
     16 N         -29.9724    1.5081   29.6410 N.pl3   1  UNL1       -0.2643
     17 C         -30.5399    2.6956   30.4899 C.ar    1  UNL1        0.0556
     18 C         -31.4225    2.5086   31.4886 C.ar    1  UNL1        0.0151
     19 C         -32.0979    3.4270   31.8948 C.ar    1  UNL1        0.0013
     20 C         -30.0551    3.9651   30.2072 C.ar    1  UNL1        0.0151
     21 C         -30.6468    5.0490   30.7856 C.ar    1  UNL1        0.0013
     22 C         -31.6962    4.8101   31.7153 C.ar    1  UNL1        0.0001
     23 C         -32.2973   -2.0953   29.7971 C.3     1  UNL1        0.0986
     24 C         -32.3576   -2.6953   30.9547 C.3     1  UNL1        0.0237
@<TRIPOS>BOND
     1     5     6    1
     2     6     8   am
     3     6     9    2
     4     8    10    1
     5     7    16    1
     6    15    16    1
     7    16    17    1
     8     8    23    1
     9    23    24    1
    10    17    18   ar
    11    18    19   ar
    12    19    22   ar
    13    22    21   ar
    14    21    20   ar
    15    20    17   ar
    16     1     2   ar
    17     2     3   ar
    18     3     4   ar
    19     4     7   ar
    20     7     5   ar
    21     5     1   ar
    22    10    11   ar
    23    11    12   ar
    24    12    13   ar
    25    13    14   ar
    26    14    15   ar
    27    15    10   ar
