@<TRIPOS>MOLECULE
No_2961-gen_results/8p0m/2024-11-26-14-13-15/
 20 22 0 0 0
SMALL
GASTEIGER

@<TRIPOS>ATOM
      1 O         -28.1229   -1.3353   28.4874 O.2     1  UNL1       -0.2730
      2 C         -27.0637   -0.8242   28.8687 C.2     1  UNL1        0.2450
      3 C         -26.9592    0.0926   29.7582 C.3     1  UNL1        0.1004
      4 N         -25.8011   -1.3566   28.3971 N.am    1  UNL1       -0.2052
      5 C         -25.7368    0.7239   30.2099 C.3     1  UNL1        0.0154
      6 C         -24.5490   -0.8600   28.7870 C.3     1  UNL1        0.1152
      7 C         -24.4828    0.1831   29.6937 C.3     1  UNL1        0.0243
      8 C         -28.1693    0.6967   30.3635 C.ar    1  UNL1       -0.0141
      9 C         -28.7123    0.1955   31.3396 C.ar    1  UNL1       -0.0038
     10 C         -29.9526    0.6935   31.8942 C.ar    1  UNL1       -0.0006
     11 C         -28.7419    1.7369   29.6483 C.ar    1  UNL1       -0.0077
     12 C         -29.9426    2.3164   30.0926 C.ar    1  UNL1       -0.0181
     13 C         -30.5312    1.7988   31.2264 C.ar    1  UNL1       -0.0040
     14 C         -30.4920    3.4669   29.3894 C.3     1  UNL1        0.0526
     15 C         -30.7446    4.5270   30.1183 C.ar    1  UNL1       -0.0178
     16 C         -30.2359    4.6768   31.4255 C.ar    1  UNL1       -0.0039
     17 C         -30.8626    5.7013   32.2509 C.ar    1  UNL1       -0.0003
     18 C         -31.6782    6.6126   31.5964 C.ar    1  UNL1       -0.0000
     19 C         -32.0842    6.5237   30.3547 C.ar    1  UNL1       -0.0003
     20 C         -31.6519    5.4502   29.5810 C.ar    1  UNL1       -0.0039
@<TRIPOS>BOND
     1     1     2    2
     2     2     3    1
     3     2     4   am
     4     3     5    1
     5     4     6    1
     6     3     8    1
     7    12    14    1
     8    14    15    1
     9     5     7    1
    10     7     6    1
    11    15    16   ar
    12    16    17   ar
    13    17    18   ar
    14    18    19   ar
    15    19    20   ar
    16    20    15   ar
    17     8     9   ar
    18     9    10   ar
    19    10    13   ar
    20    13    12   ar
    21    12    11   ar
    22    11     8   ar
