@<TRIPOS>MOLECULE
No_2962-gen_results/8p0m/2024-11-26-14-13-15/
 6 6 0 0 0
SMALL
GASTEIGER

@<TRIPOS>ATOM
      1 C         -28.0162   -0.8135   28.8779 C.ar    1  UNL1        0.0000
      2 C         -28.4690   -0.7850   29.8287 C.ar    1  UNL1        0.0000
      3 C         -27.0871    0.2903   28.6377 C.ar    1  UNL1        0.0000
      4 C         -26.7676    1.0274   29.4716 C.ar    1  UNL1        0.0000
      5 C         -28.2764    0.0268   31.0145 C.ar    1  UNL1        0.0000
      6 C         -27.3287    1.0538   30.7535 C.ar    1  UNL1        0.0000
@<TRIPOS>BOND
     1     1     2   ar
     2     2     5   ar
     3     5     6   ar
     4     6     4   ar
     5     4     3   ar
     6     3     1   ar
