@<TRIPOS>MOLECULE
No_2965-gen_results/8p0m/2024-11-26-14-13-15/
 16 17 0 0 0
SMALL
GASTEIGER

@<TRIPOS>ATOM
      1 C         -28.0162   -0.8135   28.8779 C.ar    1  UNL1        0.0443
      2 C         -27.0636   -0.1189   28.6079 C.ar    1  UNL1        0.0376
      3 C         -25.7923   -0.4302   29.0761 C.ar    1  UNL1        0.0069
      4 C         -25.5756   -1.5654   29.9363 C.ar    1  UNL1        0.0036
      5 C         -26.7354   -2.3004   30.2173 C.ar    1  UNL1        0.0376
      6 C         -27.9184   -1.9537   29.7629 C.ar    1  UNL1        0.1493
      7 BR        -27.1569    1.4255   27.5348 Br      1  UNL1       -0.0489
      8 O         -28.9983   -2.7164   30.1155 O.3     1  UNL1       -0.4210
      9 C         -30.1051   -2.1274   30.6110 C.2     1  UNL1        0.3457
     10 C         -30.2145   -1.2782   31.2002 C.ar    1  UNL1        0.0760
     11 C         -31.5047   -0.6467   31.6537 C.ar    1  UNL1        0.0065
     12 C         -31.6194    0.5125   32.4165 C.ar    1  UNL1        0.0002
     13 C         -30.4358    1.1403   32.8437 C.ar    1  UNL1        0.0000
     14 C         -29.1732    0.6439   32.4956 C.ar    1  UNL1        0.0002
     15 C         -29.0733   -0.4705   31.7266 C.ar    1  UNL1        0.0065
     16 O         -31.0316   -3.1154   30.5140 O.2     1  UNL1       -0.2445
@<TRIPOS>BOND
     1     2     7    1
     2     6     8    1
     3     8     9    1
     4     9    10    1
     5     9    16    2
     6     1     2   ar
     7     2     3   ar
     8     3     4   ar
     9     4     5   ar
    10     5     6   ar
    11     6     1   ar
    12    10    11   ar
    13    11    12   ar
    14    12    13   ar
    15    13    14   ar
    16    14    15   ar
    17    15    10   ar
