@<TRIPOS>MOLECULE
No_2966-gen_results/8p0m/2024-11-26-14-13-15/
 21 22 0 0 0
SMALL
GASTEIGER

@<TRIPOS>ATOM
      1 C         -28.0162   -0.8135   28.8779 C.ar    1  UNL1       -0.0036
      2 C         -27.0636   -0.1190   28.6079 C.ar    1  UNL1       -0.0143
      3 C         -25.7923   -0.4302   29.0761 C.ar    1  UNL1       -0.0036
      4 C         -25.5756   -1.5654   29.9363 C.ar    1  UNL1       -0.0003
      5 C         -26.7354   -2.3004   30.2173 C.ar    1  UNL1       -0.0000
      6 C         -27.9184   -1.9537   29.7629 C.ar    1  UNL1       -0.0003
      7 C         -27.1057    1.1023   27.7593 C.3     1  UNL1        0.0677
      8 C         -27.8576    1.5309   27.2156 C.ar    1  UNL1       -0.0143
      9 C         -27.8433    2.7213   26.2861 C.ar    1  UNL1       -0.0036
     10 C         -28.9357    3.2862   25.6170 C.ar    1  UNL1       -0.0003
     11 C         -30.1399    2.6209   25.6952 C.ar    1  UNL1       -0.0000
     12 C         -30.2383    1.4941   26.4532 C.ar    1  UNL1       -0.0003
     13 C         -29.2829    0.9986   27.1618 C.ar    1  UNL1       -0.0036
     14 C         -25.6092    1.6739   27.6038 C.2     1  UNL1        0.0002
     15 C         -25.1363    2.4604   28.5871 C.2     1  UNL1        0.0843
     16 N         -25.7162    2.7973   29.7405 N.pl3   1  UNL1       -0.1807
     17 C         -26.2192    4.0415   29.7925 C.2     1  UNL1        0.2683
     18 C         -27.0303    4.3462   30.9784 C.2     1  UNL1        0.3217
     19 F         -26.1379    4.7971   28.8788 F       1  UNL1       -0.1810
     20 F         -26.7639    5.3176   31.6390 F       1  UNL1       -0.1680
     21 F         -27.1248    3.2462   31.7469 F       1  UNL1       -0.1680
@<TRIPOS>BOND
     1     2     7    1
     2     7    14    1
     3    14    15    2
     4    15    16    1
     5    16    17    1
     6    17    18    2
     7    17    19    1
     8    18    20    1
     9    18    21    1
    10     7     8    1
    11     1     2   ar
    12     2     3   ar
    13     3     4   ar
    14     4     5   ar
    15     5     6   ar
    16     6     1   ar
    17     8     9   ar
    18     9    10   ar
    19    10    11   ar
    20    11    12   ar
    21    12    13   ar
    22    13     8   ar
