@<TRIPOS>MOLECULE
No_2967-gen_results/8p0m/2024-11-26-14-13-15/
 15 16 0 0 0
SMALL
GASTEIGER

@<TRIPOS>ATOM
      1 C         -28.0162   -0.8135   28.8779 C.ar    1  UNL1        0.0108
      2 C         -28.4690   -0.7850   29.8287 C.ar    1  UNL1        0.0799
      3 C         -26.5042   -0.7777   28.8766 C.ar    1  UNL1        0.0514
      4 C         -25.6540   -0.6597   27.7191 C.2     1  UNL1        0.2656
      5 C         -27.9180   -0.9374   31.1824 C.ar    1  UNL1        0.0063
      6 C         -26.5423   -0.9399   31.2606 C.ar    1  UNL1       -0.0038
      7 C         -25.7832   -0.8935   30.1201 C.ar    1  UNL1       -0.0147
      8 N         -24.3632   -0.5034   27.8686 N.am    1  UNL1       -0.1864
      9 C         -23.6484   -0.7379   29.0114 C.3     1  UNL1        0.1784
     10 C         -24.3919   -0.8177   30.2070 C.3     1  UNL1        0.0649
     11 CL        -21.9653   -0.5785   29.0188 Cl      1  UNL1       -0.0907
     12 O         -26.1131   -0.4945   26.5865 O.2     1  UNL1       -0.2683
     13 C         -30.0621   -0.8493   29.8761 C.2     1  UNL1        0.3878
     14 O         -30.6390   -0.1799   29.1344 O.co2   1  UNL1       -0.2406
     15 O         -30.6725   -1.3580   30.9251 O.co2   1  UNL1       -0.2406
@<TRIPOS>BOND
     1     3     4    1
     2     4     8   am
     3     7    10    1
     4     9    10    1
     5     9    11    1
     6     4    12    2
     7     2    13    1
     8    13    14   ar
     9    13    15   ar
    10     9     8    1
    11     1     2   ar
    12     2     5   ar
    13     5     6   ar
    14     6     7   ar
    15     7     3   ar
    16     3     1   ar
