@<TRIPOS>MOLECULE
No_2969-gen_results/8p0m/2024-11-26-14-13-15/
 13 14 0 0 0
SMALL
GASTEIGER

@<TRIPOS>ATOM
      1 O         -28.1229   -1.3353   28.4874 O.2     1  UNL1       -0.2960
      2 C         -27.0637   -0.8242   28.8687 C.2     1  UNL1        0.1510
      3 C         -25.9464   -1.0396   28.8492 C.3     1  UNL1        0.0688
      4 C         -24.7602   -0.1562   29.1644 C.3     1  UNL1        0.0297
      5 C         -25.0917    1.0791   29.6491 C.3     1  UNL1        0.0052
      6 C         -26.4090    1.4383   29.7067 C.3     1  UNL1        0.0081
      7 C         -27.3694    0.6586   29.4148 C.3     1  UNL1        0.0645
      8 C         -23.3561   -0.5639   29.1206 C.ar    1  UNL1       -0.0221
      9 C         -22.5086   -0.2218   29.7994 C.ar    1  UNL1       -0.0043
     10 C         -21.1396   -0.6089   29.5161 C.ar    1  UNL1       -0.0003
     11 C         -20.5310   -0.5536   28.2167 C.ar    1  UNL1       -0.0000
     12 C         -21.3996    0.1533   27.3066 C.ar    1  UNL1       -0.0003
     13 C         -22.9099    0.1061   27.6778 C.ar    1  UNL1       -0.0043
@<TRIPOS>BOND
     1     1     2    2
     2     2     3    1
     3     3     4    1
     4     4     5    1
     5     5     6    1
     6     2     7    1
     7     6     7    1
     8     4     8    1
     9     8     9   ar
    10     9    10   ar
    11    10    11   ar
    12    11    12   ar
    13    12    13   ar
    14    13     8   ar
