@<TRIPOS>MOLECULE
No_297-gen_results/8p0m/2024-11-26-14-13-15/
 31 36 0 0 0
SMALL
GASTEIGER

@<TRIPOS>ATOM
      1 C         -28.0162   -0.8135   28.8779 C.ar    1  UNL1        0.0192
      2 C         -27.0636   -0.1190   28.6079 C.ar    1  UNL1        0.0366
      3 C         -25.7647   -0.3897   29.0360 C.2     1  UNL1        0.1950
      4 C         -24.5516    0.4058   28.7646 C.ar    1  UNL1        0.0353
      5 C         -23.2300    0.1178   29.2575 C.ar    1  UNL1        0.0029
      6 C         -22.1393    0.9427   28.9224 C.ar    1  UNL1        0.0001
      7 C         -29.3532   -0.3722   28.7487 C.ar    1  UNL1        0.0715
      8 C         -29.5437    0.7689   27.9641 C.ar    1  UNL1        0.0682
      9 C         -28.4686    1.4912   27.5169 C.ar    1  UNL1        0.0020
     10 C         -27.1339    1.1511   27.8983 C.ar    1  UNL1       -0.0151
     11 C         -22.2718    1.9547   27.9273 C.ar    1  UNL1       -0.0003
     12 C         -23.5534    2.2227   27.4174 C.ar    1  UNL1       -0.0039
     13 C         -24.6398    1.4389   27.7611 C.ar    1  UNL1       -0.0153
     14 C         -26.0097    1.8696   27.4526 C.3     1  UNL1        0.0448
     15 O         -25.4558   -1.5055   29.7017 O.2     1  UNL1       -0.2866
     16 C         -26.1367    3.0989   26.6476 C.3     1  UNL1        0.0094
     17 C         -30.9139    1.1927   27.6394 C.2     1  UNL1        0.2514
     18 N         -31.7995    1.2763   28.3643 N.am    1  UNL1       -0.2598
     19 C         -33.0359    1.6027   28.2027 C.3     1  UNL1        0.0995
     20 O         -31.0869    1.5056   26.4286 O.2     1  UNL1       -0.2698
     21 C         -33.9554    1.1103   28.9811 C.3     1  UNL1        0.0423
     22 C         -33.6122    0.5389   30.1691 C.3     1  UNL1        0.0096
     23 C         -32.3213    0.1837   30.4945 C.3     1  UNL1        0.0428
     24 C         -31.4629    0.4751   29.6411 C.3     1  UNL1        0.1693
     25 N         -30.4213   -0.6086   29.6130 N.pl3   1  UNL1       -0.2190
     26 C         -35.3843    1.7161   28.8213 C.ar    1  UNL1       -0.0208
     27 C         -35.6029    2.9453   29.1023 C.ar    1  UNL1       -0.0042
     28 C         -36.9163    3.4906   28.8721 C.ar    1  UNL1       -0.0003
     29 C         -37.8821    2.5879   28.4094 C.ar    1  UNL1       -0.0000
     30 C         -36.3682    0.8693   28.3799 C.ar    1  UNL1       -0.0042
     31 C         -37.6214    1.3146   28.1618 C.ar    1  UNL1       -0.0003
@<TRIPOS>BOND
     1     2     3    1
     2     3     4    1
     3    10    14    1
     4    13    14    1
     5     3    15    2
     6    14    16    1
     7     8    17    1
     8    17    18   am
     9    18    19    1
    10    17    20    2
    11    21    22    1
    12    18    24    1
    13    23    24    1
    14     7    25    1
    15    21    26    1
    16    19    21    1
    17    22    23    1
    18    25    24    1
    19     4     5   ar
    20     5     6   ar
    21     6    11   ar
    22    11    12   ar
    23    12    13   ar
    24    13     4   ar
    25     1     2   ar
    26     2    10   ar
    27    10     9   ar
    28     9     8   ar
    29     8     7   ar
    30     7     1   ar
    31    26    27   ar
    32    27    28   ar
    33    28    29   ar
    34    29    31   ar
    35    31    30   ar
    36    30    26   ar
