@<TRIPOS>MOLECULE
No_2970-gen_results/8p0m/2024-11-26-14-13-15/
 13 14 0 0 0
SMALL
GASTEIGER

@<TRIPOS>ATOM
      1 C         -28.0162   -0.8135   28.8779 C.ar    1  UNL1       -0.0039
      2 C         -28.4690   -0.7850   29.8287 C.ar    1  UNL1       -0.0003
      3 C         -27.0871    0.2903   28.6377 C.ar    1  UNL1       -0.0178
      4 C         -26.2516    0.4114   27.4222 C.3     1  UNL1        0.0526
      5 C         -28.3913    0.1041   30.9805 C.ar    1  UNL1       -0.0000
      6 C         -27.5332    1.1666   30.7866 C.ar    1  UNL1       -0.0003
      7 C         -26.8281    1.2557   29.6454 C.ar    1  UNL1       -0.0039
      8 C         -25.1383    0.6747   27.2309 C.ar    1  UNL1       -0.0178
      9 C         -24.3156    0.8664   28.4421 C.ar    1  UNL1       -0.0039
     10 C         -22.9390    1.2954   28.0772 C.ar    1  UNL1       -0.0003
     11 C         -22.5039    1.7691   27.2703 C.ar    1  UNL1       -0.0000
     12 C         -23.3538    1.8241   26.0155 C.ar    1  UNL1       -0.0003
     13 C         -24.6438    1.2684   26.0832 C.ar    1  UNL1       -0.0039
@<TRIPOS>BOND
     1     3     4    1
     2     4     8    1
     3     8     9   ar
     4     9    10   ar
     5    10    11   ar
     6    11    12   ar
     7    12    13   ar
     8    13     8   ar
     9     1     2   ar
    10     2     5   ar
    11     5     6   ar
    12     6     7   ar
    13     7     3   ar
    14     3     1   ar
