@<TRIPOS>MOLECULE
No_2972-gen_results/8p0m/2024-11-26-14-13-15/
 16 16 0 0 0
SMALL
GASTEIGER

@<TRIPOS>ATOM
      1 C         -28.0162   -0.8135   28.8779 C.ar    1  UNL1        0.0088
      2 C         -28.4690   -0.7850   29.8287 C.ar    1  UNL1        0.0794
      3 C         -28.1816    0.4277   28.1134 C.ar    1  UNL1        0.0531
      4 C         -28.9841    1.4155   28.5154 C.ar    1  UNL1        0.0004
      5 C         -29.3802    0.1384   30.4612 C.ar    1  UNL1        0.0047
      6 C         -29.5415    1.2736   29.7242 C.ar    1  UNL1        0.0078
      7 C         -27.4452    0.4872   26.7726 C.3     1  UNL1        0.3500
      8 CL        -26.5380    1.7140   26.3896 Cl      1  UNL1       -0.0423
      9 F         -28.2365   -0.2729   25.9518 F       1  UNL1       -0.1825
     10 C         -30.4630    2.3406   30.2542 C.3     1  UNL1        0.1808
     11 CL        -31.3088    2.9387   30.0663 Cl      1  UNL1       -0.0921
     12 CL        -29.2998    3.0909   31.3663 Cl      1  UNL1       -0.0921
     13 C         -28.2699   -2.1714   30.7736 C.2     1  UNL1        0.3877
     14 O         -27.6995   -3.1005   30.2502 O.co2   1  UNL1       -0.2406
     15 O         -28.8322   -2.2397   31.8894 O.co2   1  UNL1       -0.2406
     16 F         -26.2962   -0.4328   26.9525 F       1  UNL1       -0.1825
@<TRIPOS>BOND
     1     3     7    1
     2     7     8    1
     3     7     9    1
     4     6    10    1
     5    10    11    1
     6    10    12    1
     7     2    13    1
     8    13    14   ar
     9    13    15   ar
    10     7    16    1
    11     1     2   ar
    12     2     5   ar
    13     5     6   ar
    14     6     4   ar
    15     4     3   ar
    16     3     1   ar
