@<TRIPOS>MOLECULE
No_2973-gen_results/8p0m/2024-11-26-14-13-15/
 10 10 0 0 0
SMALL
GASTEIGER

@<TRIPOS>ATOM
      1 C         -28.0162   -0.8135   28.8779 C.2     1  UNL1       -0.0049
      2 C         -27.0636   -0.1189   28.6079 C.2     1  UNL1       -0.0258
      3 C         -26.9716    0.7139   27.5060 C.3     1  UNL1        0.0307
      4 C         -25.8205    1.4910   27.1160 C.3     1  UNL1        0.0310
      5 C         -24.6562    1.4242   27.9180 C.ar    1  UNL1       -0.0218
      6 C         -23.4598    2.1165   27.6160 C.ar    1  UNL1       -0.0043
      7 C         -22.3627    1.9155   28.4482 C.ar    1  UNL1       -0.0003
      8 C         -22.4137    0.9215   29.4583 C.ar    1  UNL1       -0.0000
      9 C         -23.5531    0.2322   29.7679 C.ar    1  UNL1       -0.0003
     10 C         -24.6758    0.4356   28.9850 C.ar    1  UNL1       -0.0043
@<TRIPOS>BOND
     1     1     2    2
     2     2     3    1
     3     3     4    1
     4     4     5    1
     5     5     6   ar
     6     6     7   ar
     7     7     8   ar
     8     8     9   ar
     9     9    10   ar
    10    10     5   ar
