@<TRIPOS>MOLECULE
No_2975-gen_results/8p0m/2024-11-26-14-13-15/
 16 16 0 0 0
SMALL
GASTEIGER

@<TRIPOS>ATOM
      1 C         -28.0162   -0.8135   28.8779 C.ar    1  UNL1        0.0045
      2 C         -28.4690   -0.7850   29.8287 C.ar    1  UNL1        0.0539
      3 C         -26.5455   -0.8762   28.8500 C.ar    1  UNL1        0.0001
      4 C         -25.8974   -0.8267   29.8894 C.ar    1  UNL1        0.0000
      5 C         -27.9129   -0.8385   31.1942 C.ar    1  UNL1        0.0045
      6 C         -26.5519   -0.8324   31.1775 C.ar    1  UNL1        0.0001
      7 C         -30.0664   -0.7969   29.9410 C.2     1  UNL1        0.2528
      8 O         -30.6876   -1.6275   30.3111 O.2     1  UNL1       -0.2696
      9 N         -30.6309    0.3448   29.3634 N.am    1  UNL1       -0.2525
     10 C         -32.0431    0.4187   29.2388 C.3     1  UNL1        0.1204
     11 C         -29.8599    1.4822   28.8837 C.2     1  UNL1        0.0636
     12 C         -29.9668    1.7261   27.6427 C.2     1  UNL1       -0.0053
     13 C         -29.7558    1.2627   26.7206 C.3     1  UNL1        0.0530
     14 C         -29.8405    1.6962   25.3103 C.2     1  UNL1       -0.0259
     15 C         -30.2310    3.0352   25.1781 C.2     1  UNL1       -0.0300
     16 C         -30.4884    3.7903   26.3144 C.3     1  UNL1        0.0304
@<TRIPOS>BOND
     1     2     7    1
     2     7     8    2
     3     7     9   am
     4     9    10    1
     5     9    11    1
     6    11    12    2
     7    12    13    1
     8    13    14    1
     9    14    15    2
    10    15    16    1
    11     1     2   ar
    12     2     5   ar
    13     5     6   ar
    14     6     4   ar
    15     4     3   ar
    16     3     1   ar
