@<TRIPOS>MOLECULE
No_2977-gen_results/8p0m/2024-11-26-14-13-15/
 16 17 0 0 0
SMALL
GASTEIGER

@<TRIPOS>ATOM
      1 C         -28.0162   -0.8135   28.8779 C.ar    1  UNL1        0.0002
      2 C         -27.0636   -0.1190   28.6079 C.ar    1  UNL1        0.0064
      3 C         -26.9716    0.7139   27.5060 C.ar    1  UNL1        0.0800
      4 C         -25.8205    1.4909   27.1160 C.ar    1  UNL1        0.0132
      5 C         -24.8579    1.3421   27.6008 C.ar    1  UNL1        0.0800
      6 C         -24.6224    0.5295   28.8144 C.ar    1  UNL1        0.0066
      7 C         -25.7344   -0.1811   29.1908 C.ar    1  UNL1        0.0004
      8 C         -27.9596   -1.4412   30.2523 C.ar    1  UNL1        0.0000
      9 C         -26.7274   -1.7699   30.8429 C.ar    1  UNL1        0.0000
     10 C         -25.6289   -1.0329   30.4200 C.ar    1  UNL1        0.0000
     11 C         -23.5441    2.1652   27.2447 C.2     1  UNL1        0.3878
     12 O         -22.5915    2.2599   28.0265 O.co2   1  UNL1       -0.2406
     13 O         -23.5132    2.7955   26.1395 O.co2   1  UNL1       -0.2406
     14 C         -28.2228    0.8215   26.6358 C.2     1  UNL1        0.3878
     15 O         -28.2013    0.6059   25.4498 O.co2   1  UNL1       -0.2406
     16 O         -29.3436    1.0513   27.2323 O.co2   1  UNL1       -0.2406
@<TRIPOS>BOND
     1     5    11    1
     2    11    12   ar
     3    11    13   ar
     4     3    14    1
     5    14    15   ar
     6    14    16   ar
     7     2     3   ar
     8     3     4   ar
     9     4     5   ar
    10     5     6   ar
    11     6     7   ar
    12     1     2   ar
    13     2     7   ar
    14     7    10   ar
    15    10     9   ar
    16     9     8   ar
    17     8     1   ar
