@<TRIPOS>MOLECULE
No_2978-gen_results/8p0m/2024-11-26-14-13-15/
 28 31 0 0 0
SMALL
GASTEIGER

@<TRIPOS>ATOM
      1 C         -28.0162   -0.8135   28.8779 C.ar    1  UNL1        0.0577
      2 C         -27.0636   -0.1189   28.6079 C.ar    1  UNL1        0.0111
      3 C         -26.9716    0.7139   27.5060 C.ar    1  UNL1       -0.0031
      4 C         -28.1053    0.7744   26.6421 C.ar    1  UNL1       -0.0218
      5 C         -29.2041    0.1179   27.0477 C.ar    1  UNL1       -0.0034
      6 C         -29.2127   -0.6088   28.1281 C.ar    1  UNL1        0.0111
      7 C         -25.7106    1.4518   27.1380 C.ar    1  UNL1       -0.0003
      8 C         -25.2074    2.4128   27.9320 C.ar    1  UNL1       -0.0000
      9 C         -23.9232    3.0327   27.5992 C.ar    1  UNL1       -0.0000
     10 C         -23.2163    2.2759   26.6933 C.ar    1  UNL1       -0.0000
     11 C         -24.6483    0.9555   26.2621 C.ar    1  UNL1       -0.0000
     12 C         -23.6274    1.3283   25.9553 C.ar    1  UNL1       -0.0000
     13 C         -26.0355    3.1276   28.9411 C.2     1  UNL1       -0.0000
     14 C         -26.4174    4.3923   28.7548 C.2     1  UNL1       -0.0000
     15 C         -27.1116    5.0536   29.3602 C.2     1  UNL1        0.0000
     16 C         -27.4625    6.4237   29.0340 C.2     1  UNL1        0.0000
     17 C         -26.2454    5.1537   27.4176 C.2     1  UNL1        0.0000
     18 C         -28.2141    7.3724   29.8946 C.2     1  UNL1        0.0000
     19 C         -26.8766    6.6503   27.7570 C.2     1  UNL1        0.0000
     20 C         -28.0714    1.7065   25.4872 C.3     1  UNL1        0.0310
     21 CL        -27.8623   -1.8813   30.2791 Cl      1  UNL1       -0.0822
     22 C         -27.8373    8.5962   29.8602 C.2     1  UNL1        0.0000
     23 C         -26.5862    9.0272   29.4406 C.ar    1  UNL1        0.0000
     24 C         -25.7674    9.7734   29.9259 C.ar    1  UNL1        0.0000
     25 C         -24.6118    9.7646   30.1380 C.ar    1  UNL1        0.0000
     26 C         -23.7762    8.8690   29.2091 C.ar    1  UNL1        0.0000
     27 C         -24.5554    8.0088   28.4545 C.ar    1  UNL1        0.0000
     28 C         -25.8857    7.9928   28.6612 C.ar    1  UNL1        0.0000
@<TRIPOS>BOND
     1     3     7    1
     2     8    13    1
     3    13    14    2
     4    14    15    1
     5    15    16    2
     6    14    17    1
     7    16    18    1
     8    16    19    1
     9    17    19    2
    10     4    20    1
    11     1    21    1
    12    18    22    2
    13    22    23    1
    14     7     8   ar
    15     8     9   ar
    16     9    10   ar
    17    10    12   ar
    18    12    11   ar
    19    11     7   ar
    20     1     2   ar
    21     2     3   ar
    22     3     4   ar
    23     4     5   ar
    24     5     6   ar
    25     6     1   ar
    26    23    24   ar
    27    24    25   ar
    28    25    26   ar
    29    26    27   ar
    30    27    28   ar
    31    28    23   ar
