@<TRIPOS>MOLECULE
No_2979-gen_results/8p0m/2024-11-26-14-13-15/
 35 39 0 0 0
SMALL
GASTEIGER

@<TRIPOS>ATOM
      1 C         -28.0162   -0.8135   28.8779 C.ar    1  UNL1        0.0006
      2 C         -28.4690   -0.7850   29.8287 C.ar    1  UNL1        0.0534
      3 C         -26.5042   -0.7777   28.8766 C.ar    1  UNL1       -0.0183
      4 C         -25.6540   -0.6597   27.7191 C.3     1  UNL1        0.0446
      5 C         -27.9180   -0.9374   31.1824 C.ar    1  UNL1        0.0045
      6 C         -26.5423   -0.9399   31.2606 C.ar    1  UNL1       -0.0002
      7 C         -25.7832   -0.8935   30.1201 C.ar    1  UNL1       -0.0040
      8 C         -25.9259    0.2819   26.7445 C.2     1  UNL1       -0.0219
      9 C         -25.6258    1.4719   26.8191 C.2     1  UNL1        0.0020
     10 C         -24.8156    1.9657   27.9646 C.2     1  UNL1        0.0752
     11 C         -23.8330    1.4118   28.3656 C.2     1  UNL1       -0.0195
     12 C         -23.5099    0.0237   28.1517 C.3     1  UNL1        0.0269
     13 C         -24.3691   -1.0155   27.9863 C.3     1  UNL1        0.0134
     14 C         -25.6511    2.7754   28.8434 C.2     1  UNL1        0.3874
     15 O         -25.7588    4.0185   28.4009 O.co2   1  UNL1       -0.2406
     16 O         -25.7495    2.6133   30.1364 O.co2   1  UNL1       -0.2406
     17 C         -30.0648   -0.7285   29.9044 C.2     1  UNL1        0.2519
     18 O         -30.6280   -1.7199   30.1221 O.2     1  UNL1       -0.2698
     19 N         -30.6604    0.4305   29.5535 N.am    1  UNL1       -0.2357
     20 C         -32.0871    0.5272   29.4447 C.3     1  UNL1        0.1270
     21 C         -29.9256    1.7150   29.3139 C.3     1  UNL1        0.2707
     22 C         -29.8155    2.1116   28.0222 C.ar    1  UNL1        0.0374
     23 C         -30.0032    1.6498   27.0098 C.ar    1  UNL1        0.0009
     24 C         -29.7474    2.2370   25.7167 C.ar    1  UNL1       -0.0002
     25 C         -29.2472    3.5592   25.7130 C.ar    1  UNL1       -0.0000
     26 C         -29.0283    4.2426   26.9104 C.ar    1  UNL1       -0.0002
     27 C         -29.2510    3.6054   28.0606 C.ar    1  UNL1        0.0009
     28 C         -32.5725    1.7388   29.8049 C.ar    1  UNL1        0.0316
     29 C         -33.5625    2.1436   29.8914 C.ar    1  UNL1        0.0004
     30 C         -34.0364    3.4931   30.3349 C.ar    1  UNL1       -0.0004
     31 C         -33.0665    4.4195   30.6376 C.ar    1  UNL1       -0.0013
     32 C         -31.7501    3.9893   30.5773 C.ar    1  UNL1        0.0119
     33 C         -31.4595    2.7576   30.2328 C.ar    1  UNL1        0.1344
     34 O         -29.8974    2.2229   30.5310 O.3     1  UNL1       -0.4569
     35 C         -30.6704    4.9798   31.0130 C.3     1  UNL1        0.0342
@<TRIPOS>BOND
     1     3     4    1
     2     4     8    1
     3     8     9    2
     4     9    10    1
     5    10    11    2
     6    11    12    1
     7     4    13    1
     8    12    13    1
     9    10    14    1
    10    14    15   ar
    11    14    16   ar
    12     2    17    1
    13    17    18    2
    14    17    19   am
    15    19    20    1
    16    19    21    1
    17    21    22    1
    18    20    28    1
    19    21    34    1
    20    33    34    1
    21    32    35    1
    22    28    29   ar
    23    29    30   ar
    24    30    31   ar
    25    31    32   ar
    26    32    33   ar
    27    33    28   ar
    28    22    23   ar
    29    23    24   ar
    30    24    25   ar
    31    25    26   ar
    32    26    27   ar
    33    27    22   ar
    34     1     2   ar
    35     2     5   ar
    36     5     6   ar
    37     6     7   ar
    38     7     3   ar
    39     3     1   ar
