@<TRIPOS>MOLECULE
No_298-gen_results/8p0m/2024-11-26-14-13-15/
 20 21 0 0 0
SMALL
GASTEIGER

@<TRIPOS>ATOM
      1 C         -28.0162   -0.8135   28.8779 C.ar    1  UNL1        0.0177
      2 C         -28.4690   -0.7850   29.8287 C.ar    1  UNL1        0.0806
      3 C         -26.5042   -0.7777   28.8766 C.ar    1  UNL1        0.0542
      4 C         -25.8103   -0.8531   30.1028 C.ar    1  UNL1       -0.0072
      5 C         -30.0136   -0.8410   29.8508 C.2     1  UNL1        0.3878
      6 C         -26.5670   -0.8850   31.2517 C.ar    1  UNL1       -0.0029
      7 C         -27.9411   -0.9069   31.1850 C.ar    1  UNL1        0.0063
      8 O         -30.6493   -0.0573   30.6757 O.co2   1  UNL1       -0.2406
      9 O         -30.5985   -1.8622   29.3538 O.co2   1  UNL1       -0.2406
     10 CL        -25.5331   -0.7119   27.4686 Cl      1  UNL1       -0.0826
     11 C         -24.3373   -0.8146   30.1590 C.3     1  UNL1        0.0548
     12 C         -23.4456   -0.2983   29.7474 C.ar    1  UNL1       -0.0025
     13 C         -23.3786    1.1753   29.6314 C.ar    1  UNL1        0.0669
     14 C         -22.5516    1.8738   28.7400 C.ar    1  UNL1        0.0162
     15 C         -21.6804    1.0563   27.9446 C.ar    1  UNL1        0.0013
     16 C         -22.5640   -0.9256   28.7523 C.ar    1  UNL1       -0.0027
     17 C         -21.6631   -0.2354   28.0351 C.ar    1  UNL1       -0.0002
     18 N         -24.2432    1.8980   30.4956 N.pl3   1  UNL1       -0.2115
     19 C         -25.2148    2.7300   30.1774 C.2     1  UNL1        0.0857
     20 C         -25.9474    3.3737   31.2244 C.2     1  UNL1        0.0192
@<TRIPOS>BOND
     1     2     5    1
     2     5     8   ar
     3     5     9   ar
     4     3    10    1
     5     4    11    1
     6    11    12    1
     7    13    18    1
     8    18    19    1
     9    19    20    2
    10    12    13   ar
    11    13    14   ar
    12    14    15   ar
    13    15    17   ar
    14    17    16   ar
    15    16    12   ar
    16     1     2   ar
    17     2     7   ar
    18     7     6   ar
    19     6     4   ar
    20     4     3   ar
    21     3     1   ar
