@<TRIPOS>MOLECULE
No_2980-gen_results/8p0m/2024-11-26-14-13-15/
 16 17 0 0 0
SMALL
GASTEIGER

@<TRIPOS>ATOM
      1 C         -28.0162   -0.8135   28.8779 C.ar    1  UNL1        0.0063
      2 C         -28.4690   -0.7850   29.8287 C.ar    1  UNL1        0.0798
      3 C         -26.5455   -0.8762   28.8500 C.ar    1  UNL1       -0.0041
      4 C         -25.8041   -1.0324   30.0571 C.ar    1  UNL1       -0.0222
      5 C         -27.9437   -0.9869   31.2075 C.ar    1  UNL1        0.0063
      6 C         -26.5825   -1.0386   31.2231 C.ar    1  UNL1       -0.0041
      7 C         -30.0606   -0.7371   29.9024 C.2     1  UNL1        0.3878
      8 O         -30.5524   -0.2769   29.0111 O.co2   1  UNL1       -0.2406
      9 O         -30.7296   -1.2195   30.9500 O.co2   1  UNL1       -0.2406
     10 C         -24.3691   -1.0943   30.0746 C.3     1  UNL1        0.0264
     11 C         -23.5797   -0.5815   29.1065 C.3     1  UNL1        0.0071
     12 C         -23.7673    0.5293   28.3517 C.3     1  UNL1        0.0306
     13 C         -23.0679    1.5910   28.4351 C.3     1  UNL1        0.1255
     14 N         -23.5093    2.7548   27.8679 N.2     1  UNL1       -0.2735
     15 C         -24.6603    2.4796   27.2291 C.2     1  UNL1        0.0668
     16 C         -24.9870    0.9282   27.6193 C.3     1  UNL1        0.0486
@<TRIPOS>BOND
     1     2     7    1
     2     7     8   ar
     3     7     9   ar
     4     4    10    1
     5    10    11    1
     6    11    12    1
     7    12    13    1
     8    13    14    1
     9    14    15    2
    10    12    16    1
    11    15    16    1
    12     1     2   ar
    13     2     5   ar
    14     5     6   ar
    15     6     4   ar
    16     4     3   ar
    17     3     1   ar
