@<TRIPOS>MOLECULE
No_2981-gen_results/8p0m/2024-11-26-14-13-15/
 19 21 0 0 0
SMALL
GASTEIGER

@<TRIPOS>ATOM
      1 C         -28.0162   -0.8135   28.8779 C.ar    1  UNL1        0.0047
      2 C         -27.0636   -0.1189   28.6079 C.ar    1  UNL1        0.0002
      3 C         -25.7923   -0.4302   29.0761 C.ar    1  UNL1        0.0000
      4 C         -24.5456    0.3494   28.8225 C.ar    1  UNL1        0.0000
      5 C         -23.2409    0.0217   29.3323 C.ar    1  UNL1        0.0000
      6 C         -22.1362    0.7695   29.0059 C.ar    1  UNL1        0.0000
      7 C         -27.9050   -1.8984   29.8729 C.ar    1  UNL1        0.0565
      8 C         -26.6795   -2.3145   30.3184 C.ar    1  UNL1        0.0047
      9 C         -25.5203   -1.5564   29.9775 C.ar    1  UNL1        0.0002
     10 C         -22.1253    1.7361   28.0244 C.ar    1  UNL1        0.0000
     11 C         -24.5436    1.3861   27.7915 C.ar    1  UNL1        0.0000
     12 C         -23.3374    2.0469   27.4517 C.ar    1  UNL1        0.0000
     13 C         -29.0589   -2.7183   30.2932 C.2     1  UNL1        0.2647
     14 O         -29.0117   -3.9171   30.2805 O.2     1  UNL1       -0.2666
     15 N         -30.1888   -2.0942   30.6878 N.ar    1  UNL1       -0.2717
     16 C         -30.3706   -0.6627   30.8016 C.ar    1  UNL1        0.0830
     17 C         -31.6413   -0.3438   30.8418 C.ar    1  UNL1        0.0206
     18 C         -32.6036   -1.2307   30.9420 C.ar    1  UNL1        0.0206
     19 C         -31.4936   -2.6394   30.7364 C.ar    1  UNL1        0.0830
@<TRIPOS>BOND
     1     3     4    1
     2     7    13    1
     3    13    14    2
     4    13    15   am
     5    15    16   ar
     6    16    17   ar
     7    17    18   ar
     8    15    19   ar
     9    18    19   ar
    10     1     2   ar
    11     2     3   ar
    12     3     9   ar
    13     9     8   ar
    14     8     7   ar
    15     7     1   ar
    16     4     5   ar
    17     5     6   ar
    18     6    10   ar
    19    10    12   ar
    20    12    11   ar
    21    11     4   ar
