@<TRIPOS>MOLECULE
No_2982-gen_results/8p0m/2024-11-26-14-13-15/
 12 13 0 0 0
SMALL
GASTEIGER

@<TRIPOS>ATOM
      1 C         -28.0162   -0.8135   28.8779 C.ar    1  UNL1        0.0013
      2 C         -27.0636   -0.1189   28.6079 C.ar    1  UNL1        0.0145
      3 C         -25.7647   -0.3897   29.0360 C.ar    1  UNL1        0.0478
      4 C         -25.5296   -1.5302   29.9014 C.ar    1  UNL1        0.0145
      5 C         -26.6888   -2.2893   30.1810 C.ar    1  UNL1        0.0013
      6 C         -27.8727   -1.9508   29.7373 C.ar    1  UNL1        0.0001
      7 N         -24.6273    0.3693   28.7540 N.pl3   1  UNL1       -0.3075
      8 C         -24.0465    1.2310   29.5023 C.3     1  UNL1        0.0908
      9 C         -22.8434    1.8801   29.0241 C.3     1  UNL1        0.0215
     10 C         -24.1186    0.3776   27.4341 C.3     1  UNL1        0.0908
     11 C         -23.0393    1.0587   26.9722 C.3     1  UNL1        0.0215
     12 C         -22.3805    1.9186   27.8661 C.3     1  UNL1        0.0035
@<TRIPOS>BOND
     1     3     7    1
     2     7     8    1
     3     7    10    1
     4     9    12    1
     5    11    12    1
     6     8     9    1
     7    11    10    1
     8     1     2   ar
     9     2     3   ar
    10     3     4   ar
    11     4     5   ar
    12     5     6   ar
    13     6     1   ar
