@<TRIPOS>MOLECULE
No_2983-gen_results/8p0m/2024-11-26-14-13-15/
 25 27 0 0 0
SMALL
GASTEIGER

@<TRIPOS>ATOM
      1 C         -28.0162   -0.8135   28.8779 C.ar    1  UNL1       -0.0040
      2 C         -28.4690   -0.7850   29.8287 C.ar    1  UNL1       -0.0003
      3 C         -27.0871    0.2903   28.6377 C.ar    1  UNL1       -0.0190
      4 C         -26.2516    0.4114   27.4223 C.3     1  UNL1        0.0377
      5 C         -28.3913    0.1041   30.9805 C.ar    1  UNL1       -0.0000
      6 C         -27.5332    1.1666   30.7866 C.ar    1  UNL1       -0.0003
      7 C         -26.8281    1.2557   29.6454 C.ar    1  UNL1       -0.0040
      8 C         -25.7328    1.6893   27.1547 C.3     1  UNL1        0.0075
      9 C         -24.6744    1.7805   26.3311 C.3     1  UNL1        0.0006
     10 C         -23.8933    0.7473   25.9464 C.3     1  UNL1        0.0000
     11 C         -25.0868   -0.5647   27.3327 C.3     1  UNL1        0.0081
     12 C         -24.0937   -0.4278   26.4434 C.3     1  UNL1        0.0007
     13 C         -27.1478    0.1490   26.1463 C.ar    1  UNL1       -0.0188
     14 C         -26.8208    0.2716   24.9517 C.ar    1  UNL1       -0.0040
     15 C         -28.5886    0.0596   26.4262 C.ar    1  UNL1        0.0026
     16 C         -29.4304    0.0674   25.2884 C.ar    1  UNL1        0.0795
     17 C         -27.6152    0.1679   23.8537 C.ar    1  UNL1       -0.0001
     18 C         -28.9110    0.0817   24.0604 C.ar    1  UNL1        0.0066
     19 C         -30.8810   -0.1006   25.5445 C.2     1  UNL1        0.3877
     20 O         -31.5659   -0.8078   24.8701 O.co2   1  UNL1       -0.2406
     21 O         -31.5834    0.7280   26.3120 O.co2   1  UNL1       -0.2406
     22 C         -26.4927    2.9345   27.5025 C.3     1  UNL1        0.0006
     23 C         -26.7928    3.8861   26.6036 C.3     1  UNL1        0.0000
     24 C         -25.7665    3.6200   28.7336 C.3     1  UNL1        0.0000
     25 C         -27.7751    2.5790   28.3633 C.3     1  UNL1        0.0000
@<TRIPOS>BOND
     1     3     4    1
     2     4     8    1
     3     9    10    1
     4     4    11    1
     5    11    12    1
     6     4    13    1
     7    16    19    1
     8    19    20   ar
     9    19    21   ar
    10     8    22    1
    11    22    23    1
    12    22    24    1
    13    22    25    1
    14     8     9    1
    15    10    12    1
    16     1     2   ar
    17     2     5   ar
    18     5     6   ar
    19     6     7   ar
    20     7     3   ar
    21     3     1   ar
    22    13    14   ar
    23    14    17   ar
    24    17    18   ar
    25    18    16   ar
    26    16    15   ar
    27    15    13   ar
