@<TRIPOS>MOLECULE
No_2984-gen_results/8p0m/2024-11-26-14-13-15/
 10 10 0 0 0
SMALL
GASTEIGER

@<TRIPOS>ATOM
      1 C         -28.0162   -0.8135   28.8779 C.ar    1  UNL1       -0.0042
      2 C         -28.4690   -0.7850   29.8287 C.ar    1  UNL1       -0.0003
      3 C         -27.1356    0.2359   28.5352 C.ar    1  UNL1       -0.0211
      4 C         -26.8050    1.0509   29.2763 C.ar    1  UNL1       -0.0042
      5 C         -28.2372    0.1503   30.9300 C.ar    1  UNL1       -0.0000
      6 C         -27.3522    1.1239   30.6071 C.ar    1  UNL1       -0.0003
      7 C         -26.4705    0.1962   27.1308 C.3     1  UNL1        0.0414
      8 C         -25.0393    0.1871   27.1090 C.3     1  UNL1        0.0062
      9 C         -27.1793    0.3412   25.9392 C.3     1  UNL1        0.1136
     10 N         -28.4456    0.4424   25.9589 N.3     1  UNL1       -0.1310
@<TRIPOS>BOND
     1     3     7    1
     2     7     8    1
     3     7     9    1
     4     9    10    1
     5     1     2   ar
     6     2     5   ar
     7     5     6   ar
     8     6     4   ar
     9     4     3   ar
    10     3     1   ar
