@<TRIPOS>MOLECULE
No_2985-gen_results/8p0m/2024-11-26-14-13-15/
 15 15 0 0 0
SMALL
GASTEIGER

@<TRIPOS>ATOM
      1 O         -28.1229   -1.3353   28.4874 O.2     1  UNL1       -0.2696
      2 C         -27.4806   -0.4044   28.7094 C.2     1  UNL1        0.2528
      3 C         -26.3804   -0.0867   27.9394 C.ar    1  UNL1        0.0539
      4 N         -27.6664    0.4468   29.8988 N.am    1  UNL1       -0.2525
      5 C         -25.1773   -0.4388   28.3946 C.ar    1  UNL1        0.0045
      6 C         -23.9281   -0.2469   27.6677 C.ar    1  UNL1        0.0001
      7 C         -24.0115    0.7683   26.6848 C.ar    1  UNL1        0.0000
      8 C         -25.2436    1.2341   26.2435 C.ar    1  UNL1        0.0001
      9 C         -26.3955    0.8712   26.8685 C.ar    1  UNL1        0.0045
     10 C         -28.7606    0.1154   30.7715 C.3     1  UNL1        0.1204
     11 C         -26.8564    1.5271   30.2014 C.2     1  UNL1        0.0636
     12 C         -27.2650    2.5634   30.5646 C.2     1  UNL1       -0.0053
     13 C         -27.6250    3.4377   30.1104 C.3     1  UNL1        0.0533
     14 C         -28.0527    4.7728   30.7024 C.2     1  UNL1       -0.0214
     15 C         -28.0017    4.8495   32.0491 C.2     1  UNL1       -0.0046
@<TRIPOS>BOND
     1     1     2    2
     2     2     3    1
     3     2     4   am
     4     4    10    1
     5     4    11    1
     6    11    12    2
     7    12    13    1
     8    13    14    1
     9    14    15    2
    10     3     5   ar
    11     5     6   ar
    12     6     7   ar
    13     7     8   ar
    14     8     9   ar
    15     9     3   ar
