@<TRIPOS>MOLECULE
No_2986-gen_results/8p0m/2024-11-26-14-13-15/
 15 16 0 0 0
SMALL
GASTEIGER

@<TRIPOS>ATOM
      1 C         -28.0162   -0.8135   28.8779 C.ar    1  UNL1       -0.0000
      2 C         -28.4690   -0.7850   29.8287 C.ar    1  UNL1        0.0000
      3 C         -27.1356    0.2359   28.5352 C.ar    1  UNL1       -0.0000
      4 C         -26.8745    1.2825   29.3982 C.ar    1  UNL1       -0.0000
      5 C         -27.5070    1.2380   30.6295 C.ar    1  UNL1        0.0000
      6 C         -28.3269    0.1637   30.9240 C.ar    1  UNL1        0.0000
      7 C         -26.4110    0.3070   27.2192 C.ar    1  UNL1       -0.0000
      8 C         -25.0121    0.3340   27.3197 C.ar    1  UNL1       -0.0000
      9 C         -24.3469    0.8865   26.1549 C.ar    1  UNL1       -0.0000
     10 C         -26.8561    1.1835   26.2534 C.ar    1  UNL1       -0.0003
     11 C         -26.2560    1.4729   25.0637 C.ar    1  UNL1       -0.0000
     12 C         -24.8610    1.5641   25.1804 C.ar    1  UNL1       -0.0000
     13 C         -28.4430    0.9575   25.9443 C.2     1  UNL1       -0.0046
     14 C         -29.2758    1.8453   26.0552 C.2     1  UNL1       -0.0258
     15 C         -30.3906    1.9401   26.1249 C.3     1  UNL1        0.0307
@<TRIPOS>BOND
     1     3     7    1
     2    10    13    1
     3    13    14    2
     4    14    15    1
     5     1     2   ar
     6     2     6   ar
     7     6     5   ar
     8     5     4   ar
     9     4     3   ar
    10     3     1   ar
    11     7     8   ar
    12     8     9   ar
    13     9    12   ar
    14    12    11   ar
    15    11    10   ar
    16    10     7   ar
