@<TRIPOS>MOLECULE
No_2988-gen_results/8p0m/2024-11-26-14-13-15/
 15 16 0 0 0
SMALL
GASTEIGER

@<TRIPOS>ATOM
      1 C         -28.0162   -0.8135   28.8779 C.ar    1  UNL1        0.0002
      2 C         -27.0636   -0.1189   28.6079 C.ar    1  UNL1        0.0000
      3 C         -26.9716    0.7139   27.5060 C.ar    1  UNL1        0.0002
      4 C         -28.1053    0.7744   26.6421 C.ar    1  UNL1        0.0066
      5 C         -29.2041    0.1179   27.0477 C.ar    1  UNL1        0.0798
      6 C         -30.3488    0.2568   26.2203 C.2     1  UNL1        0.3878
      7 C         -29.1817   -0.6758   28.1173 C.ar    1  UNL1        0.0066
      8 O         -31.3387   -0.2347   26.5001 O.co2   1  UNL1       -0.2406
      9 O         -30.3761    1.1595   25.2713 O.co2   1  UNL1       -0.2406
     10 C         -25.6602    1.4148   27.1421 C.ar    1  UNL1        0.0000
     11 C         -24.5284    1.0318   27.7404 C.ar    1  UNL1        0.0000
     12 C         -23.2997    1.7946   27.4178 C.ar    1  UNL1        0.0000
     13 C         -23.3589    2.6448   26.2989 C.ar    1  UNL1        0.0000
     14 C         -25.4989    2.3566   26.1135 C.ar    1  UNL1        0.0000
     15 C         -24.4816    3.0291   25.7433 C.ar    1  UNL1        0.0000
@<TRIPOS>BOND
     1     5     6    1
     2     6     8   ar
     3     6     9   ar
     4     3    10    1
     5     1     2   ar
     6     2     3   ar
     7     3     4   ar
     8     4     5   ar
     9     5     7   ar
    10     7     1   ar
    11    10    11   ar
    12    11    12   ar
    13    12    13   ar
    14    13    15   ar
    15    15    14   ar
    16    14    10   ar
