@<TRIPOS>MOLECULE
No_2989-gen_results/8p0m/2024-11-26-14-13-15/
 21 23 0 0 0
SMALL
GASTEIGER

@<TRIPOS>ATOM
      1 C         -28.0162   -0.8135   28.8779 C.ar    1  UNL1        0.0369
      2 C         -27.0636   -0.1190   28.6079 C.ar    1  UNL1        0.0031
      3 C         -25.7647   -0.3897   29.0360 C.ar    1  UNL1        0.0002
      4 C         -25.5296   -1.5302   29.9014 C.ar    1  UNL1        0.0031
      5 C         -26.6888   -2.2893   30.1810 C.ar    1  UNL1        0.0369
      6 C         -27.8727   -1.9508   29.7373 C.ar    1  UNL1        0.1391
      7 O         -28.9304   -2.7298   30.1154 O.3     1  UNL1       -0.4706
      8 C         -24.5394    0.4211   28.7421 C.ar    1  UNL1        0.0000
      9 C         -23.3459    0.1143   29.1690 C.ar    1  UNL1        0.0000
     10 C         -22.1936    0.8740   28.7553 C.ar    1  UNL1        0.0000
     11 C         -22.3615    1.8342   27.6952 C.ar    1  UNL1        0.0000
     12 C         -24.5980    1.3584   27.6396 C.ar    1  UNL1        0.0000
     13 C         -23.5460    2.0826   27.2326 C.ar    1  UNL1        0.0000
     14 C         -30.0628   -2.2189   30.5756 C.3     1  UNL1        0.2320
     15 C         -31.1021   -2.9170   30.2262 C.ar    1  UNL1        0.0213
     16 C         -32.4287   -2.3835   30.4218 C.ar    1  UNL1        0.0016
     17 C         -33.5226   -2.9561   29.9375 C.ar    1  UNL1        0.0294
     18 C         -31.2150   -4.1902   29.6227 C.ar    1  UNL1        0.0016
     19 C         -32.2843   -4.8278   29.1283 C.ar    1  UNL1        0.0294
     20 C         -33.4942   -4.2191   29.3256 C.ar    1  UNL1        0.1401
     21 F         -34.5886   -4.8701   28.9277 F       1  UNL1       -0.2042
@<TRIPOS>BOND
     1     6     7    1
     2     3     8    1
     3     7    14    1
     4    20    21    1
     5    14    15    1
     6    15    16   ar
     7    16    17   ar
     8    17    20   ar
     9    20    19   ar
    10    19    18   ar
    11    18    15   ar
    12     1     2   ar
    13     2     3   ar
    14     3     4   ar
    15     4     5   ar
    16     5     6   ar
    17     6     1   ar
    18     8     9   ar
    19     9    10   ar
    20    10    11   ar
    21    11    13   ar
    22    13    12   ar
    23    12     8   ar
