@<TRIPOS>MOLECULE
No_299-gen_results/8p0m/2024-11-26-14-13-15/
 17 17 0 0 0
SMALL
GASTEIGER

@<TRIPOS>ATOM
      1 C         -28.0162   -0.8135   28.8779 C.ar    1  UNL1        0.0177
      2 C         -28.4690   -0.7850   29.8287 C.ar    1  UNL1        0.0806
      3 C         -27.0871    0.2903   28.6377 C.ar    1  UNL1        0.0544
      4 C         -26.8317    1.2487   29.5869 C.ar    1  UNL1       -0.0024
      5 C         -28.3914    0.0801   31.0065 C.ar    1  UNL1        0.0063
      6 C         -27.4940    1.1521   30.7841 C.ar    1  UNL1       -0.0027
      7 CL        -26.2087    0.3944   27.1645 Cl      1  UNL1       -0.0826
      8 C         -29.5072   -1.8965   30.4046 C.2     1  UNL1        0.3878
      9 O         -29.4241   -2.6331   31.1997 O.co2   1  UNL1       -0.2406
     10 O         -30.5540   -1.9640   29.5080 O.co2   1  UNL1       -0.2406
     11 C         -25.8896    2.3683   29.3050 C.3     1  UNL1        0.1116
     12 C         -26.2929    3.5682   29.7244 C.2     1  UNL1       -0.0210
     13 C         -24.6144    2.1567   28.7889 C.3     1  UNL1        0.3264
     14 C         -26.4397    3.9476   30.7831 C.2     1  UNL1       -0.0299
     15 F         -23.6742    1.9264   29.6239 F       1  UNL1       -0.1977
     16 C         -26.7798    5.3295   31.2918 C.3     1  UNL1        0.0304
     17 F         -24.5894    1.0603   27.9662 F       1  UNL1       -0.1977
@<TRIPOS>BOND
     1     3     7    1
     2     2     8    1
     3     8     9   ar
     4     8    10   ar
     5     4    11    1
     6    11    12    1
     7    11    13    1
     8    12    14    2
     9    13    15    1
    10    14    16    1
    11    13    17    1
    12     1     2   ar
    13     2     5   ar
    14     5     6   ar
    15     6     4   ar
    16     4     3   ar
    17     3     1   ar
