@<TRIPOS>MOLECULE
No_2990-gen_results/8p0m/2024-11-26-14-13-15/
 17 17 0 0 0
SMALL
GASTEIGER

@<TRIPOS>ATOM
      1 C         -28.0162   -0.8135   28.8779 C.3     1  UNL1        0.0523
      2 C         -27.0636   -0.1189   28.6079 C.ar    1  UNL1       -0.0178
      3 C         -26.8756    1.1325   28.9134 C.ar    1  UNL1       -0.0040
      4 C         -25.6883    1.9515   28.5672 C.ar    1  UNL1        0.0035
      5 C         -24.6394    1.2834   27.8753 C.ar    1  UNL1        0.0714
      6 C         -24.8068   -0.0513   27.6040 C.ar    1  UNL1        0.0035
      7 C         -25.9019   -0.7670   27.9511 C.ar    1  UNL1       -0.0040
      8 C         -28.6391   -0.5118   30.2403 C.2     1  UNL1       -0.0214
      9 C         -29.6536   -1.1144   30.6354 C.2     1  UNL1       -0.0042
     10 C         -23.4500    1.9911   27.4655 C.3     1  UNL1        0.4186
     11 F         -23.4459    2.4845   26.3783 F       1  UNL1       -0.1659
     12 F         -23.0370    2.9185   28.4262 F       1  UNL1       -0.1659
     13 F         -22.3182    1.1182   27.5626 F       1  UNL1       -0.1659
     14 C         -30.2456   -2.1433   29.8439 C.2     1  UNL1       -0.0003
     15 C         -31.1932   -3.0035   30.3797 C.2     1  UNL1       -0.0000
     16 C         -31.7452   -2.7440   31.6238 C.2     1  UNL1       -0.0000
     17 C         -31.2794   -1.7666   32.4558 C.2     1  UNL1       -0.0000
@<TRIPOS>BOND
     1     1     8    1
     2     8     9    2
     3     5    10    1
     4    10    11    1
     5    10    12    1
     6    10    13    1
     7     9    14    1
     8    14    15    2
     9    15    16    1
    10    16    17    2
    11     1     2    1
    12     2     3   ar
    13     3     4   ar
    14     4     5   ar
    15     5     6   ar
    16     6     7   ar
    17     7     2   ar
