@<TRIPOS>MOLECULE
No_2991-gen_results/8p0m/2024-11-26-14-13-15/
 12 12 0 0 0
SMALL
GASTEIGER

@<TRIPOS>ATOM
      1 C         -28.0162   -0.8135   28.8779 C.ar    1  UNL1        0.0066
      2 C         -27.0636   -0.1190   28.6079 C.ar    1  UNL1       -0.0001
      3 C         -25.7923   -0.4302   29.0761 C.ar    1  UNL1       -0.0000
      4 C         -25.5756   -1.5654   29.9363 C.ar    1  UNL1        0.0002
      5 C         -26.7354   -2.3004   30.2173 C.ar    1  UNL1        0.0066
      6 C         -27.9184   -1.9537   29.7629 C.ar    1  UNL1        0.0798
      7 C         -29.0732   -2.7835   30.1783 C.2     1  UNL1        0.3878
      8 O         -29.0022   -3.9850   30.2347 O.co2   1  UNL1       -0.2406
      9 O         -30.1809   -2.1900   30.4596 O.co2   1  UNL1       -0.2406
     10 C         -27.0949    1.1102   27.7546 C.2     1  UNL1       -0.0046
     11 C         -26.1987    1.4406   26.9167 C.2     1  UNL1       -0.0258
     12 C         -24.8225    0.9093   27.1901 C.3     1  UNL1        0.0307
@<TRIPOS>BOND
     1     6     7    1
     2     7     8   ar
     3     7     9   ar
     4     2    10    1
     5    10    11    2
     6    11    12    1
     7     1     2   ar
     8     2     3   ar
     9     3     4   ar
    10     4     5   ar
    11     5     6   ar
    12     6     1   ar
