@<TRIPOS>MOLECULE
No_2992-gen_results/8p0m/2024-11-26-14-13-15/
 26 28 0 0 0
SMALL
GASTEIGER

@<TRIPOS>ATOM
      1 C         -28.0162   -0.8135   28.8779 C.ar    1  UNL1        0.0000
      2 C         -28.4690   -0.7850   29.8287 C.ar    1  UNL1        0.0000
      3 C         -27.0871    0.2903   28.6377 C.ar    1  UNL1        0.0001
      4 C         -26.2516    0.4114   27.4223 C.ar    1  UNL1        0.0000
      5 C         -28.3913    0.1041   30.9805 C.ar    1  UNL1        0.0000
      6 C         -27.5332    1.1666   30.7866 C.ar    1  UNL1        0.0001
      7 C         -26.8281    1.2557   29.6454 C.ar    1  UNL1        0.0044
      8 C         -25.7329    1.6893   27.1546 C.ar    1  UNL1        0.0001
      9 C         -25.3981    2.5582   28.1598 C.ar    1  UNL1        0.0045
     10 C         -26.1221    2.4683   29.3701 C.ar    1  UNL1        0.0536
     11 C         -25.8643    3.5352   30.3766 C.2     1  UNL1        0.2493
     12 O         -25.1459    3.3087   31.3157 O.2     1  UNL1       -0.2699
     13 N         -26.8320    4.5084   30.4423 N.am    1  UNL1       -0.2710
     14 C         -26.7227    5.5328   31.5116 C.3     1  UNL1        0.1124
     15 C         -27.7223    4.8105   29.3724 C.3     1  UNL1        0.1155
     16 C         -26.1272    6.6272   31.3101 C.2     1  UNL1        0.0498
     17 C         -26.4226    7.6242   31.4816 C.2     1  UNL1       -0.0134
     18 C         -26.3591    8.6224   31.2390 C.3     1  UNL1        0.0446
     19 C         -27.1283    9.8166   31.6766 C.2     1  UNL1       -0.0221
     20 C         -28.0788    9.6089   32.5343 C.2     1  UNL1       -0.0049
     21 C         -28.3068    8.3723   33.0020 C.2     1  UNL1       -0.0087
     22 C         -27.5810    7.3760   32.5554 C.2     1  UNL1       -0.0419
     23 C         -27.6372    5.9115   32.5775 C.3     1  UNL1        0.0472
     24 C         -27.6926    7.4402   33.8916 C.3     1  UNL1        0.0264
     25 C         -25.6341    8.4501   31.0994 C.3     1  UNL1        0.0094
     26 CL        -26.1624    6.6640   30.9621 Cl      1  UNL1       -0.0855
@<TRIPOS>BOND
     1    10    11    1
     2    11    12    2
     3    11    13   am
     4    13    14    1
     5    13    15    1
     6    14    16    1
     7    16    17    2
     8    17    18    1
     9    18    19    1
    10    19    20    2
    11    20    21    1
    12    21    22    2
    13    14    23    1
    14    22    23    1
    15    22    24    1
    16    18    25    1
    17    16    26    1
    18     1     2   ar
    19     2     5   ar
    20     5     6   ar
    21     6     7   ar
    22     3     1   ar
    23     3     4   ar
    24     4     8   ar
    25     8     9   ar
    26     9    10   ar
    27    10     7   ar
    28     7     3   ar
