@<TRIPOS>MOLECULE
No_2994-gen_results/8p0m/2024-11-26-14-13-15/
 20 22 0 0 0
SMALL
GASTEIGER

@<TRIPOS>ATOM
      1 C         -28.0162   -0.8135   28.8779 C.ar    1  UNL1        0.0026
      2 C         -28.4690   -0.7850   29.8287 C.ar    1  UNL1        0.0795
      3 C         -26.5455   -0.8762   28.8500 C.ar    1  UNL1       -0.0176
      4 C         -25.8041   -1.0324   30.0571 C.ar    1  UNL1       -0.0036
      5 C         -27.9437   -0.9869   31.2075 C.ar    1  UNL1        0.0066
      6 C         -26.5825   -1.0386   31.2231 C.ar    1  UNL1       -0.0001
      7 C         -24.3810   -1.1082   30.0855 C.ar    1  UNL1       -0.0003
      8 C         -23.7590   -1.1322   30.8961 C.ar    1  UNL1       -0.0000
      9 C         -24.3562   -0.7699   32.2492 C.ar    1  UNL1       -0.0000
     10 C         -25.7653   -0.8949   32.4030 C.ar    1  UNL1       -0.0000
     11 C         -30.0762   -0.8305   30.0226 C.2     1  UNL1        0.3877
     12 O         -30.6975   -0.0730   29.4035 O.co2   1  UNL1       -0.2406
     13 O         -30.6618   -1.6589   30.8178 O.co2   1  UNL1       -0.2406
     14 C         -25.7851   -0.8313   27.5622 C.3     1  UNL1        0.0526
     15 C         -25.6001    0.5193   27.0275 C.ar    1  UNL1       -0.0178
     16 C         -24.5078    1.0767   27.3266 C.ar    1  UNL1       -0.0039
     17 C         -24.0416    2.1028   27.3081 C.ar    1  UNL1       -0.0003
     18 C         -24.7042    3.0849   26.3879 C.ar    1  UNL1       -0.0000
     19 C         -26.5139    1.0825   26.1617 C.ar    1  UNL1       -0.0039
     20 C         -25.9542    2.7412   26.0292 C.ar    1  UNL1       -0.0003
@<TRIPOS>BOND
     1     2    11    1
     2    11    12   ar
     3    11    13   ar
     4     3    14    1
     5    14    15    1
     6     6    10   ar
     7    10     9   ar
     8     9     8   ar
     9     8     7   ar
    10     7     4   ar
    11     1     2   ar
    12     2     5   ar
    13     5     6   ar
    14     6     4   ar
    15     4     3   ar
    16     3     1   ar
    17    15    16   ar
    18    16    17   ar
    19    17    18   ar
    20    18    20   ar
    21    20    19   ar
    22    19    15   ar
