@<TRIPOS>MOLECULE
No_2995-gen_results/8p0m/2024-11-26-14-13-15/
 14 16 0 0 0
SMALL
GASTEIGER

@<TRIPOS>ATOM
      1 C         -28.0162   -0.8135   28.8779 C.ar    1  UNL1        0.0293
      2 C         -27.0636   -0.1190   28.6079 C.ar    1  UNL1        0.1401
      3 C         -26.9287    1.1713   29.0083 C.ar    1  UNL1        0.0293
      4 C         -27.9560    1.7411   29.7840 C.ar    1  UNL1       -0.0016
      5 C         -29.0569   -0.3271   29.7466 C.ar    1  UNL1       -0.0017
      6 C         -28.9828    0.9722   30.1516 C.ar    1  UNL1       -0.0176
      7 F         -26.0345   -0.5985   27.8629 F       1  UNL1       -0.2042
      8 C         -30.0735    1.5046   31.0074 C.3     1  UNL1        0.0526
      9 C         -31.0743    1.0740   31.1876 C.ar    1  UNL1       -0.0178
     10 C         -32.1324    0.9966   31.7065 C.ar    1  UNL1       -0.0039
     11 C         -33.0355   -0.0155   31.8022 C.ar    1  UNL1       -0.0003
     12 C         -32.7725   -1.1556   31.0596 C.ar    1  UNL1       -0.0000
     13 C         -31.6545   -1.2949   30.3536 C.ar    1  UNL1       -0.0003
     14 C         -30.7344   -0.2676   30.3836 C.ar    1  UNL1       -0.0039
@<TRIPOS>BOND
     1     2     7    1
     2     6     8    1
     3     5    14    1
     4     8     9    1
     5     1     2   ar
     6     2     3   ar
     7     3     4   ar
     8     4     6   ar
     9     6     5   ar
    10     5     1   ar
    11     9    10   ar
    12    10    11   ar
    13    11    12   ar
    14    12    13   ar
    15    13    14   ar
    16    14     9   ar
