@<TRIPOS>MOLECULE
No_2996-gen_results/8p0m/2024-11-26-14-13-15/
 8 8 0 0 0
SMALL
GASTEIGER

@<TRIPOS>ATOM
      1 C         -28.0162   -0.8135   28.8779 C.3     1  UNL1        0.0033
      2 C         -28.4690   -0.7850   29.8287 C.3     1  UNL1        0.0189
      3 C         -26.5042   -0.7777   28.8766 C.3     1  UNL1        0.0219
      4 C         -25.8305   -1.6807   29.6849 C.3     1  UNL1        0.0946
      5 C         -28.1490   -1.8854   30.9031 C.3     1  UNL1        0.0890
      6 N         -26.6741   -1.9658   30.9889 N.3     1  UNL1       -0.2151
      7 C         -24.6229   -2.1670   29.6583 C.2     1  UNL1       -0.0092
      8 C         -24.0875   -2.9076   28.9980 C.2     1  UNL1       -0.0035
@<TRIPOS>BOND
     1     1     2    1
     2     1     3    1
     3     3     4    1
     4     2     5    1
     5     4     6    1
     6     5     6    1
     7     4     7    1
     8     7     8    2
