@<TRIPOS>MOLECULE
No_2997-gen_results/8p0m/2024-11-26-14-13-15/
 20 21 0 0 0
SMALL
GASTEIGER

@<TRIPOS>ATOM
      1 C         -28.0162   -0.8135   28.8779 C.ar    1  UNL1        0.0372
      2 C         -28.4690   -0.7850   29.8287 C.ar    1  UNL1        0.1453
      3 C         -26.5042   -0.7777   28.8766 C.ar    1  UNL1       -0.0008
      4 C         -25.8103   -0.8531   30.1028 C.ar    1  UNL1       -0.0182
      5 C         -27.9906   -0.8916   31.2257 C.ar    1  UNL1        0.0372
      6 C         -26.6042   -0.8676   31.2652 C.ar    1  UNL1       -0.0008
      7 O         -29.9385   -0.8194   29.8358 O.3     1  UNL1       -0.4535
      8 C         -30.6393    0.2340   30.2522 C.ar    1  UNL1        0.1453
      9 C         -31.7597    0.2238   30.0390 C.ar    1  UNL1        0.0375
     10 C         -32.6044    1.4051   30.4106 C.ar    1  UNL1        0.0031
     11 C         -31.9249    2.4725   31.0455 C.ar    1  UNL1        0.0002
     12 C         -30.5796    2.3814   31.2575 C.ar    1  UNL1        0.0031
     13 C         -29.8580    1.3049   30.8845 C.ar    1  UNL1        0.0375
     14 C         -24.3768   -0.8832   30.1298 C.3     1  UNL1        0.0443
     15 C         -23.7077   -1.1940   30.8731 C.3     1  UNL1        0.0094
     16 C         -23.7501   -0.5072   28.8042 C.2     1  UNL1       -0.0221
     17 C         -24.0184    0.4182   27.9444 C.2     1  UNL1       -0.0046
     18 C         -23.5877    1.7952   27.9593 C.2     1  UNL1       -0.0049
     19 C         -24.0150    2.6841   26.9448 C.2     1  UNL1       -0.0258
     20 C         -24.9884    2.2705   26.0389 C.3     1  UNL1        0.0307
@<TRIPOS>BOND
     1     2     7    1
     2     7     8    1
     3     4    14    1
     4    14    15    1
     5    14    16    1
     6    16    17    2
     7    17    18    1
     8    18    19    2
     9    19    20    1
    10     8     9   ar
    11     9    10   ar
    12    10    11   ar
    13    11    12   ar
    14    12    13   ar
    15    13     8   ar
    16     1     2   ar
    17     2     5   ar
    18     5     6   ar
    19     6     4   ar
    20     4     3   ar
    21     3     1   ar
