@<TRIPOS>MOLECULE
No_2998-gen_results/8p0m/2024-11-26-14-13-15/
 27 28 0 0 0
SMALL
GASTEIGER

@<TRIPOS>ATOM
      1 C         -28.0162   -0.8135   28.8779 C.ar    1  UNL1        0.0103
      2 C         -28.4690   -0.7850   29.8287 C.ar    1  UNL1        0.0756
      3 C         -26.5042   -0.7777   28.8766 C.ar    1  UNL1        0.0716
      4 C         -25.6540   -0.6597   27.7191 C.3     1  UNL1        0.4186
      5 C         -27.9180   -0.9374   31.1824 C.ar    1  UNL1        0.0064
      6 C         -26.5423   -0.9399   31.2606 C.ar    1  UNL1        0.0002
      7 C         -25.7832   -0.8935   30.1201 C.ar    1  UNL1        0.0039
      8 F         -26.1510   -0.9708   26.7104 F       1  UNL1       -0.1659
      9 F         -24.4481   -1.3951   27.8913 F       1  UNL1       -0.1659
     10 F         -25.1286    0.6726   27.6220 F       1  UNL1       -0.1659
     11 C         -30.0508   -0.8080   29.8830 C.2     1  UNL1        0.3417
     12 O         -30.6656   -0.0476   30.7446 O.3     1  UNL1       -0.4353
     13 O         -30.6495   -1.4075   29.0174 O.2     1  UNL1       -0.2449
     14 C         -31.9412    0.0952   30.8381 C.3     1  UNL1        0.2936
     15 C         -32.5895    1.1407   31.7165 C.2     1  UNL1        0.2778
     16 O         -31.8824    1.7581   32.4324 O.2     1  UNL1       -0.2701
     17 N         -33.8651    1.3642   31.5565 N.am    1  UNL1       -0.2334
     18 C         -34.5012    2.3856   32.4098 C.ar    1  UNL1        0.0583
     19 C         -35.6583    2.5512   32.2436 C.ar    1  UNL1        0.0157
     20 C         -36.4020    3.5400   33.0927 C.ar    1  UNL1        0.0080
     21 C         -35.6736    4.2647   34.0567 C.ar    1  UNL1        0.0346
     22 C         -34.2891    3.9749   34.1456 C.ar    1  UNL1        0.0080
     23 C         -33.6962    3.0773   33.3814 C.ar    1  UNL1        0.0157
     24 BR        -36.5473    5.4890   35.1078 Br      1  UNL1       -0.0490
     25 C         -34.6548    0.6619   30.6607 C.2     1  UNL1        0.0676
     26 C         -35.5448    1.3539   30.0898 C.2     1  UNL1       -0.0093
     27 C         -36.3368    2.0890   31.0571 C.3     1  UNL1        0.0321
@<TRIPOS>BOND
     1     3     4    1
     2     4     8    1
     3     4     9    1
     4     4    10    1
     5     2    11    1
     6    11    12    1
     7    11    13    2
     8    12    14    1
     9    14    15    1
    10    15    16    2
    11    15    17   am
    12    17    18    1
    13    21    24    1
    14    17    25    1
    15    25    26    2
    16    26    27    1
    17    18    19   ar
    18    19    20   ar
    19    20    21   ar
    20    21    22   ar
    21    22    23   ar
    22    23    18   ar
    23     1     2   ar
    24     2     5   ar
    25     5     6   ar
    26     6     7   ar
    27     7     3   ar
    28     3     1   ar
