@<TRIPOS>MOLECULE
No_2999-gen_results/8p0m/2024-11-26-14-13-15/
 11 12 0 0 0
SMALL
GASTEIGER

@<TRIPOS>ATOM
      1 C         -28.0162   -0.8135   28.8779 C.ar    1  UNL1        0.0000
      2 C         -27.0636   -0.1189   28.6079 C.ar    1  UNL1        0.0012
      3 C         -25.7647   -0.3897   29.0360 C.ar    1  UNL1        0.0157
      4 C         -25.5296   -1.5302   29.9014 C.ar    1  UNL1        0.0012
      5 C         -26.6888   -2.2893   30.1810 C.ar    1  UNL1        0.0000
      6 C         -27.8727   -1.9508   29.7373 C.ar    1  UNL1        0.0000
      7 C         -24.4208    0.2303   28.7927 C.2     1  UNL1        0.0865
      8 N         -24.0430    1.0905   29.4207 N.2     1  UNL1       -0.1523
      9 N         -22.8461    1.5570   28.9416 N.2     1  UNL1       -0.1510
     10 C         -23.6719    0.0765   27.6665 C.3     1  UNL1        0.0964
     11 C         -22.6566    0.9155   27.8424 C.2     1  UNL1        0.1021
@<TRIPOS>BOND
     1     3     7    1
     2     7     8    2
     3     8     9    1
     4     7    10    1
     5     9    11    2
     6    10    11    1
     7     1     2   ar
     8     2     3   ar
     9     3     4   ar
    10     4     5   ar
    11     5     6   ar
    12     6     1   ar
