@<TRIPOS>MOLECULE
No_30-gen_results/8p0m/2024-11-26-14-13-15/
 15 17 0 0 0
SMALL
GASTEIGER

@<TRIPOS>ATOM
      1 C         -28.0162   -0.8135   28.8779 C.ar    1  UNL1       -0.0038
      2 C         -28.4690   -0.7850   29.8287 C.ar    1  UNL1       -0.0003
      3 C         -27.1356    0.2359   28.5352 C.ar    1  UNL1       -0.0147
      4 C         -26.8745    1.2825   29.3982 C.ar    1  UNL1        0.0353
      5 C         -27.5070    1.2380   30.6295 C.ar    1  UNL1        0.0029
      6 C         -28.3293    0.1745   30.9350 C.ar    1  UNL1        0.0001
      7 C         -26.4077    0.3070   27.2259 C.3     1  UNL1        0.0528
      8 C         -25.7129    1.4905   26.9212 C.ar    1  UNL1       -0.0147
      9 C         -24.7086    1.5122   26.0854 C.ar    1  UNL1       -0.0038
     10 C         -23.8823    2.7701   25.9554 C.ar    1  UNL1       -0.0003
     11 C         -24.2680    3.8973   26.7568 C.ar    1  UNL1        0.0001
     12 C         -25.3592    3.8170   27.5522 C.ar    1  UNL1        0.0029
     13 C         -26.0342    2.6105   27.7516 C.ar    1  UNL1        0.0353
     14 C         -26.2817    2.4760   28.9564 C.2     1  UNL1        0.1950
     15 O         -26.2522    3.4738   29.9297 O.2     1  UNL1       -0.2866
@<TRIPOS>BOND
     1     3     7    1
     2     7     8    1
     3     4    14    1
     4    13    14    1
     5    14    15    2
     6     1     2   ar
     7     2     6   ar
     8     6     5   ar
     9     5     4   ar
    10     4     3   ar
    11     3     1   ar
    12     8     9   ar
    13     9    10   ar
    14    10    11   ar
    15    11    12   ar
    16    12    13   ar
    17    13     8   ar
