@<TRIPOS>MOLECULE
No_300-gen_results/8p0m/2024-11-26-14-13-15/
 8 8 0 0 0
SMALL
GASTEIGER

@<TRIPOS>ATOM
      1 C         -28.0162   -0.8135   28.8779 C.ar    1  UNL1        0.0031
      2 C         -28.4690   -0.7850   29.8287 C.ar    1  UNL1        0.0002
      3 C         -26.5455   -0.8762   28.8500 C.ar    1  UNL1        0.0369
      4 C         -25.8041   -1.0324   30.0571 C.ar    1  UNL1        0.1387
      5 C         -26.5373   -1.0386   31.2171 C.ar    1  UNL1        0.0369
      6 C         -27.8843   -0.9532   31.1862 C.ar    1  UNL1        0.0031
      7 O         -24.4749   -1.0818   30.0376 O.3     1  UNL1       -0.4714
      8 C         -23.7176   -1.3311   29.0603 C.3     1  UNL1        0.2525
@<TRIPOS>BOND
     1     4     7    1
     2     7     8    1
     3     1     2   ar
     4     2     6   ar
     5     6     5   ar
     6     5     4   ar
     7     4     3   ar
     8     3     1   ar
