@<TRIPOS>MOLECULE
No_3000-gen_results/8p0m/2024-11-26-14-13-15/
 35 37 0 0 0
SMALL
GASTEIGER

@<TRIPOS>ATOM
      1 C         -28.0162   -0.8135   28.8779 C.ar    1  UNL1        0.0038
      2 C         -28.4690   -0.7850   29.8287 C.ar    1  UNL1        0.0714
      3 C         -27.1356    0.2359   28.5352 C.ar    1  UNL1       -0.0003
      4 C         -26.8745    1.2825   29.3982 C.ar    1  UNL1       -0.0000
      5 C         -29.3953   -1.9237   30.2863 C.3     1  UNL1        0.4186
      6 C         -27.5236    1.2089   30.6379 C.ar    1  UNL1       -0.0001
      7 C         -28.3224    0.1273   30.9590 C.ar    1  UNL1        0.0039
      8 F         -29.1291   -3.1172   30.1521 F       1  UNL1       -0.1659
      9 F         -29.7564   -1.8044   31.6511 F       1  UNL1       -0.1659
     10 F         -30.5950   -1.7515   29.6771 F       1  UNL1       -0.1659
     11 C         -26.4193    0.2908   27.1845 C.ar    1  UNL1       -0.0024
     12 C         -26.8496    0.7939   26.1862 C.ar    1  UNL1       -0.0023
     13 C         -26.1657    0.6353   24.9454 C.ar    1  UNL1       -0.0026
     14 C         -25.0255   -0.0312   27.2185 C.ar    1  UNL1       -0.0000
     15 C         -24.4362   -0.5402   28.5656 C.ar    1  UNL1        0.0064
     16 C         -24.7904    0.2715   24.9833 C.ar    1  UNL1       -0.0003
     17 C         -24.2649   -0.0093   26.1483 C.ar    1  UNL1       -0.0000
     18 C         -23.3352    0.3041   29.1078 C.ar    1  UNL1        0.0798
     19 C         -22.9175    1.3407   28.5993 C.2     1  UNL1        0.3878
     20 C         -22.8285   -0.2887   30.3643 C.ar    1  UNL1        0.0066
     21 C         -24.7181   -1.7973   29.0438 C.ar    1  UNL1        0.0002
     22 C         -24.2549   -2.2609   30.2865 C.ar    1  UNL1        0.0000
     23 C         -23.2564   -1.4493   30.9342 C.ar    1  UNL1        0.0002
     24 O         -21.7696    1.4099   28.0251 O.co2   1  UNL1       -0.2406
     25 O         -23.6484    2.4799   28.6434 O.co2   1  UNL1       -0.2406
     26 C         -28.3369    1.1214   25.9982 C.3     1  UNL1        0.1205
     27 N         -28.7554    2.2965   26.4254 N.am    1  UNL1       -0.2702
     28 C         -29.9107    2.5239   27.0672 C.2     1  UNL1        0.2495
     29 O         -30.6772    1.6286   27.2345 O.2     1  UNL1       -0.2699
     30 C         -30.1702    3.8698   27.6419 C.2     1  UNL1        0.0579
     31 C         -27.7845    3.4789   26.2248 C.3     1  UNL1        0.1155
     32 C         -31.0581    4.0946   28.5314 C.2     1  UNL1        0.0043
     33 C         -31.7793    3.2161   29.1310 C.2     1  UNL1       -0.0044
     34 C         -32.9171    3.5550   29.8808 C.2     1  UNL1       -0.0258
     35 C         -33.7095    2.5788   30.5831 C.3     1  UNL1        0.0307
@<TRIPOS>BOND
     1     2     5    1
     2     5     8    1
     3     5     9    1
     4     5    10    1
     5     3    11    1
     6    14    15    1
     7    18    19    1
     8    19    24   ar
     9    19    25   ar
    10    12    26    1
    11    26    27    1
    12    27    28   am
    13    28    29    2
    14    28    30    1
    15    27    31    1
    16    30    32    2
    17    32    33    1
    18    33    34    2
    19    34    35    1
    20    15    18   ar
    21    18    20   ar
    22    20    23   ar
    23    23    22   ar
    24    22    21   ar
    25    21    15   ar
    26    11    12   ar
    27    12    13   ar
    28    13    16   ar
    29    16    17   ar
    30    17    14   ar
    31    14    11   ar
    32     1     2   ar
    33     2     7   ar
    34     7     6   ar
    35     6     4   ar
    36     4     3   ar
    37     3     1   ar
