@<TRIPOS>MOLECULE
No_3001-gen_results/8p0m/2024-11-26-14-13-15/
 14 14 0 0 0
SMALL
GASTEIGER

@<TRIPOS>ATOM
      1 C         -28.0162   -0.8135   28.8779 C.3     1  UNL1        0.0520
      2 C         -27.0636   -0.1189   28.6079 C.ar    1  UNL1       -0.0178
      3 C         -26.9287    1.1713   29.0083 C.ar    1  UNL1       -0.0039
      4 C         -25.7702    2.0341   28.6884 C.ar    1  UNL1       -0.0003
      5 C         -24.7141    1.4431   27.9188 C.ar    1  UNL1       -0.0000
      6 C         -24.8590    0.0783   27.5836 C.ar    1  UNL1       -0.0003
      7 C         -25.9647   -0.6606   27.9164 C.ar    1  UNL1       -0.0039
      8 C         -28.6510   -0.6086   30.2543 C.2     1  UNL1       -0.0259
      9 C         -29.6513   -1.3216   30.5931 C.2     1  UNL1       -0.0290
     10 C         -30.1192   -2.3523   29.8147 C.3     1  UNL1        0.0446
     11 C         -31.2586   -3.0669   30.3433 C.3     1  UNL1        0.1171
     12 CL        -31.9730   -3.2561   31.3189 Cl      1  UNL1       -0.1119
     13 C         -31.6571   -4.0506   29.0348 C.3     1  UNL1        0.1985
     14 O         -32.1708   -4.2351   28.1047 O.3     1  UNL1       -0.2190
@<TRIPOS>BOND
     1     1     2    1
     2     1     8    1
     3     8     9    2
     4     9    10    1
     5    10    11    1
     6    11    12    1
     7    11    13    1
     8    13    14    1
     9     2     3   ar
    10     3     4   ar
    11     4     5   ar
    12     5     6   ar
    13     6     7   ar
    14     7     2   ar
