@<TRIPOS>MOLECULE
No_3002-gen_results/8p0m/2024-11-26-14-13-15/
 35 38 0 0 0
SMALL
GASTEIGER

@<TRIPOS>ATOM
      1 C         -28.0162   -0.8135   28.8779 C.ar    1  UNL1        0.0796
      2 C         -27.0636   -0.1190   28.6079 C.ar    1  UNL1        0.0023
      3 C         -26.9716    0.7139   27.5060 C.ar    1  UNL1       -0.0215
      4 C         -28.1053    0.7744   26.6421 C.ar    1  UNL1        0.0003
      5 C         -29.2008    0.1044   27.0527 C.ar    1  UNL1        0.0538
      6 C         -29.2096   -0.6029   28.1853 C.ar    1  UNL1        0.0111
      7 C         -30.4815    0.1441   26.3452 C.2     1  UNL1        0.2528
      8 N         -31.2620    1.1482   26.5381 N.am    1  UNL1       -0.2534
      9 O         -30.7585   -0.8610   25.6013 O.2     1  UNL1       -0.2696
     10 C         -31.0520    2.2662   27.4258 C.ar    1  UNL1        0.0542
     11 C         -31.7172    2.8446   28.0088 C.ar    1  UNL1        0.0149
     12 C         -31.3881    4.0361   28.8608 C.ar    1  UNL1        0.0013
     13 C         -30.0417    4.4284   28.8833 C.ar    1  UNL1        0.0001
     14 C         -29.6025    2.7509   27.4815 C.ar    1  UNL1        0.0149
     15 C         -29.2312    3.8857   28.1067 C.ar    1  UNL1        0.0013
     16 C         -28.0436   -1.7089   30.1224 C.2     1  UNL1        0.3877
     17 O         -27.1441   -2.4613   30.3033 O.co2   1  UNL1       -0.2406
     18 O         -29.0897   -1.7079   30.8618 O.co2   1  UNL1       -0.2406
     19 C         -32.5667    1.1073   25.8995 C.3     1  UNL1        0.1203
     20 C         -25.6947    1.3861   27.1025 C.3     1  UNL1        0.0304
     21 C         -24.9410    1.9263   28.2172 C.3     1  UNL1        0.0486
     22 C         -25.0848    2.5771   29.0607 C.ar    1  UNL1       -0.0181
     23 C         -26.4242    3.2511   29.1756 C.ar    1  UNL1       -0.0043
     24 C         -26.7219    4.1262   30.3196 C.ar    1  UNL1       -0.0046
     25 C         -25.6896    4.3165   31.1146 C.ar    1  UNL1       -0.0219
     26 C         -24.5108    3.5906   31.1852 C.ar    1  UNL1       -0.0046
     27 C         -24.2034    2.7954   30.1655 C.ar    1  UNL1       -0.0043
     28 C         -23.5039    1.2745   28.0203 C.ar    1  UNL1       -0.0181
     29 C         -23.0841    0.2918   28.8379 C.ar    1  UNL1       -0.0039
     30 C         -21.6800   -0.0465   28.8741 C.ar    1  UNL1       -0.0003
     31 C         -20.7716    0.5666   28.0598 C.ar    1  UNL1       -0.0000
     32 C         -21.1627    1.6846   27.3492 C.ar    1  UNL1       -0.0003
     33 C         -22.5147    2.0792   27.3485 C.ar    1  UNL1       -0.0039
     34 C         -25.2666    1.1146   25.7174 C.3     1  UNL1        0.0054
     35 C         -26.0426    5.2129   32.3828 C.3     1  UNL1        0.0310
@<TRIPOS>BOND
     1     5     7    1
     2     7     8   am
     3     7     9    2
     4     8    10    1
     5     1    16    1
     6    16    17   ar
     7    16    18   ar
     8     8    19    1
     9     3    20    1
    10    20    21    1
    11    21    28    1
    12    20    34    1
    13    25    35    1
    14    21    22    1
    15    28    29   ar
    16    29    30   ar
    17    30    31   ar
    18    31    32   ar
    19    32    33   ar
    20    33    28   ar
    21     1     2   ar
    22     2     3   ar
    23     3     4   ar
    24     4     5   ar
    25     5     6   ar
    26     6     1   ar
    27    22    23   ar
    28    23    24   ar
    29    24    25   ar
    30    25    26   ar
    31    26    27   ar
    32    27    22   ar
    33    10    11   ar
    34    11    12   ar
    35    12    13   ar
    36    13    15   ar
    37    15    14   ar
    38    14    10   ar
