@<TRIPOS>MOLECULE
No_3003-gen_results/8p0m/2024-11-26-14-13-15/
 12 13 0 0 0
SMALL
GASTEIGER

@<TRIPOS>ATOM
      1 O         -28.1229   -1.3353   28.4874 O.2     1  UNL1       -0.2730
      2 C         -27.4806   -0.4044   28.7094 C.2     1  UNL1        0.2461
      3 N         -27.2412    0.3910   29.5098 N.am    1  UNL1       -0.2003
      4 C         -26.4066   -0.1069   27.4496 C.3     1  UNL1        0.1129
      5 C         -25.4358    0.8473   27.6341 C.ar    1  UNL1       -0.0121
      6 C         -25.4291    1.6632   28.7353 C.ar    1  UNL1       -0.0038
      7 C         -26.3097    1.3583   29.7618 C.3     1  UNL1        0.1412
      8 C         -24.5036    1.1224   26.5299 C.ar    1  UNL1        0.0380
      9 C         -23.4084    1.9948   26.7978 C.ar    1  UNL1        0.1954
     10 C         -23.3631    2.6902   28.0587 C.ar    1  UNL1        0.0417
     11 C         -24.2959    2.5266   28.9368 C.ar    1  UNL1        0.0004
     12 O         -22.4983    2.3205   25.9116 O.3     1  UNL1       -0.2866
@<TRIPOS>BOND
     1     1     2    2
     2     2     3   am
     3     2     4    1
     4     4     5    1
     5     6     7    1
     6     9    12    1
     7     3     7    1
     8     5     8   ar
     9     8     9   ar
    10     9    10   ar
    11    10    11   ar
    12    11     6   ar
    13     6     5   ar
