@<TRIPOS>MOLECULE
No_3004-gen_results/8p0m/2024-11-26-14-13-15/
 19 21 0 0 0
SMALL
GASTEIGER

@<TRIPOS>ATOM
      1 O         -28.1229   -1.3353   28.4874 O.2     1  UNL1       -0.2749
      2 C         -27.4806   -0.4044   28.7094 C.2     1  UNL1        0.2253
      3 N         -26.4599   -0.1104   28.0051 N.am    1  UNL1       -0.2806
      4 C         -26.1476   -0.4948   26.8760 C.3     1  UNL1        0.0934
      5 C         -27.3458    0.1317   30.1556 C.3     1  UNL1        0.0825
      6 C         -28.2117    0.2243   30.7629 C.3     1  UNL1        0.0814
      7 C         -26.0762    0.6276   25.8246 C.3     1  UNL1        0.0221
      8 C         -25.9256    0.4933   30.5667 C.3     1  UNL1        0.0127
      9 C         -24.8645    0.7657   29.7492 C.3     1  UNL1        0.0409
     10 C         -25.0140    0.5177   28.3850 C.3     1  UNL1        0.0856
     11 C         -24.1207    1.0265   27.4725 C.3     1  UNL1        0.0964
     12 C         -24.6362    1.1550   26.1094 C.3     1  UNL1        0.0126
     13 C         -29.5045    0.1726   30.3848 C.3     1  UNL1        0.3190
     14 F         -29.7023    0.2172   29.3164 F       1  UNL1       -0.1984
     15 F         -30.5533    0.0818   31.2183 F       1  UNL1       -0.1984
     16 C         -23.0239    1.7919   27.8127 C.2     1  UNL1        0.2425
     17 O         -22.3306    2.4390   27.0973 O.2     1  UNL1       -0.2733
     18 N         -22.5860    1.7177   29.2096 N.am    1  UNL1       -0.2053
     19 C         -23.6451    1.3971   30.1517 C.3     1  UNL1        0.1168
@<TRIPOS>BOND
     1     1     2    2
     2     2     3   am
     3     3     4    1
     4     2     5    1
     5     4     7    1
     6     5     8    1
     7     3    10    1
     8     9    10    1
     9    10    11    1
    10     7    12    1
    11    11    12    1
    12     6    13    1
    13    13    14    1
    14    13    15    1
    15    11    16    1
    16    16    17    2
    17    16    18   am
    18     9    19    1
    19    18    19    1
    20     6     5    1
    21     8     9    1
