@<TRIPOS>MOLECULE
No_3005-gen_results/8p0m/2024-11-26-14-13-15/
 22 24 0 0 0
SMALL
GASTEIGER

@<TRIPOS>ATOM
      1 C         -28.0162   -0.8135   28.8779 C.ar    1  UNL1        0.0065
      2 C         -27.0636   -0.1189   28.6079 C.ar    1  UNL1        0.0002
      3 C         -25.7647   -0.3897   29.0360 C.ar    1  UNL1        0.0000
      4 C         -24.5516    0.4058   28.7646 C.ar    1  UNL1        0.0008
      5 C         -23.2300    0.1178   29.2575 C.ar    1  UNL1        0.0001
      6 C         -22.1393    0.9427   28.9224 C.ar    1  UNL1        0.0009
      7 C         -28.1527   -1.3406   30.0768 C.ar    1  UNL1        0.0760
      8 C         -26.9134   -1.7801   30.7559 C.ar    1  UNL1        0.0065
      9 C         -25.6477   -1.2144   30.2938 C.ar    1  UNL1        0.0002
     10 C         -22.2199    1.8665   27.8387 C.ar    1  UNL1        0.0114
     11 C         -24.5674    1.4382   27.7343 C.ar    1  UNL1        0.0114
     12 C         -23.4292    2.1257   27.3414 C.ar    1  UNL1        0.0577
     13 C         -29.3311   -2.0985   30.5732 C.2     1  UNL1        0.3457
     14 O         -29.5125   -3.1891   30.8009 O.2     1  UNL1       -0.2445
     15 O         -30.3956   -1.2800   30.7664 O.3     1  UNL1       -0.4210
     16 CL        -23.6349    3.2790   26.0681 Cl      1  UNL1       -0.0822
     17 C         -30.4158   -0.1331   30.8495 C.ar    1  UNL1        0.1488
     18 C         -31.0481    0.5026   29.9311 C.ar    1  UNL1        0.0376
     19 C         -30.9889    1.9870   29.8700 C.ar    1  UNL1        0.0031
     20 C         -30.2935    2.6565   30.8821 C.ar    1  UNL1        0.0002
     21 C         -29.6701    1.9161   31.8829 C.ar    1  UNL1        0.0031
     22 C         -29.6651    0.5974   31.8410 C.ar    1  UNL1        0.0376
@<TRIPOS>BOND
     1     3     4    1
     2     7    13    1
     3    13    14    2
     4    13    15    1
     5    12    16    1
     6    15    17    1
     7    17    18   ar
     8    18    19   ar
     9    19    20   ar
    10    20    21   ar
    11    21    22   ar
    12    22    17   ar
    13     1     2   ar
    14     2     3   ar
    15     3     9   ar
    16     9     8   ar
    17     8     7   ar
    18     7     1   ar
    19     4     5   ar
    20     5     6   ar
    21     6    10   ar
    22    10    12   ar
    23    12    11   ar
    24    11     4   ar
