@<TRIPOS>MOLECULE
No_3006-gen_results/8p0m/2024-11-26-14-13-15/
 8 8 0 0 0
SMALL
GASTEIGER

@<TRIPOS>ATOM
      1 C         -28.0162   -0.8135   28.8779 C.ar    1  UNL1        0.0103
      2 C         -28.4690   -0.7850   29.8287 C.ar    1  UNL1        0.0684
      3 C         -26.5455   -0.8762   28.8500 C.ar    1  UNL1        0.0007
      4 C         -25.8041   -1.0324   30.0571 C.ar    1  UNL1        0.0000
      5 C         -30.0055   -0.7457   29.8978 C.1     1  UNL1        0.1004
      6 C         -26.5747   -1.0565   31.2005 C.ar    1  UNL1        0.0007
      7 C         -27.9251   -0.9738   31.1683 C.ar    1  UNL1        0.0103
      8 N         -30.6449   -1.7245   30.2473 N.1     1  UNL1       -0.1908
@<TRIPOS>BOND
     1     2     5    1
     2     5     8    3
     3     1     2   ar
     4     2     7   ar
     5     7     6   ar
     6     6     4   ar
     7     4     3   ar
     8     3     1   ar
