@<TRIPOS>MOLECULE
No_3007-gen_results/8p0m/2024-11-26-14-13-15/
 15 16 0 0 0
SMALL
GASTEIGER

@<TRIPOS>ATOM
      1 C         -28.0162   -0.8135   28.8779 C.ar    1  UNL1        0.0001
      2 C         -27.0636   -0.1189   28.6079 C.ar    1  UNL1        0.0016
      3 C         -25.7923   -0.4302   29.0761 C.ar    1  UNL1        0.0001
      4 C         -25.5756   -1.5654   29.9363 C.ar    1  UNL1        0.0000
      5 C         -26.7354   -2.3004   30.2173 C.ar    1  UNL1        0.0000
      6 C         -27.9184   -1.9537   29.7629 C.ar    1  UNL1        0.0000
      7 C         -27.1057    1.1023   27.7593 C.ar    1  UNL1        0.0237
      8 C         -26.7157    2.2350   27.9945 C.ar    1  UNL1        0.0597
      9 C         -26.0688    2.4770   29.3567 C.2     1  UNL1        0.2843
     10 N         -25.4550    3.7032   29.5044 N.am    1  UNL1       -0.0837
     11 C         -27.7258    0.8585   26.4382 C.ar    1  UNL1        0.0990
     12 N         -27.8681    1.7281   25.6015 N.ar    1  UNL1       -0.2423
     13 C         -27.4467    3.0646   25.8802 C.ar    1  UNL1        0.0990
     14 C         -26.7957    3.3172   27.0899 C.ar    1  UNL1        0.0253
     15 O         -26.1758    1.7437   30.3119 O.2     1  UNL1       -0.2667
@<TRIPOS>BOND
     1     2     7    1
     2     8     9    1
     3     9    10   am
     4     9    15    2
     5     1     2   ar
     6     2     3   ar
     7     3     4   ar
     8     4     5   ar
     9     5     6   ar
    10     6     1   ar
    11     7     8   ar
    12     8    14   ar
    13    14    13   ar
    14    13    12   ar
    15    12    11   ar
    16    11     7   ar
