@<TRIPOS>MOLECULE
No_3008-gen_results/8p0m/2024-11-26-14-13-15/
 35 38 0 0 0
SMALL
GASTEIGER

@<TRIPOS>ATOM
      1 C         -28.0162   -0.8135   28.8779 C.ar    1  UNL1        0.0376
      2 C         -27.0636   -0.1189   28.6079 C.ar    1  UNL1        0.0032
      3 C         -26.8756    1.1325   28.9134 C.ar    1  UNL1        0.0017
      4 C         -27.9014    1.8066   29.6436 C.ar    1  UNL1        0.0030
      5 C         -29.0458   -0.2316   29.7181 C.ar    1  UNL1        0.1489
      6 C         -28.9402    1.0517   30.0597 C.ar    1  UNL1        0.0347
      7 O         -30.0593   -1.0632   30.0946 O.3     1  UNL1       -0.4165
      8 C         -25.6684    1.9363   28.4484 C.ar    1  UNL1        0.0192
      9 C         -24.9348    1.7160   27.6796 C.ar    1  UNL1        0.0031
     10 C         -23.7118    2.4802   27.3226 C.ar    1  UNL1        0.0207
     11 C         -25.4691    3.2433   29.2044 C.ar    1  UNL1        0.0988
     12 N         -24.4942    4.1043   28.7309 N.ar    1  UNL1       -0.2423
     13 C         -23.6023    3.7000   27.8476 C.ar    1  UNL1        0.0989
     14 C         -29.8647   -2.1350   30.8644 C.2     1  UNL1        0.4267
     15 C         -30.1192   -3.3629   30.2203 C.2     1  UNL1        0.4625
     16 O         -30.6559   -3.4860   29.3472 O.co2   1  UNL1       -0.2332
     17 O         -29.4851   -4.4794   30.7934 O.co2   1  UNL1       -0.2332
     18 O         -29.3447   -1.9935   32.0606 O.2     1  UNL1       -0.2370
     19 C         -30.0262    1.6921   30.8595 C.ar    1  UNL1        0.0032
     20 C         -30.1973    2.8889   30.7995 C.ar    1  UNL1        0.0045
     21 C         -31.2340    3.5693   31.5767 C.ar    1  UNL1        0.0554
     22 C         -31.4379    4.9509   31.6050 C.ar    1  UNL1        0.0046
     23 C         -30.5855    5.7280   30.8162 C.ar    1  UNL1        0.0001
     24 C         -29.5653    5.1696   30.0539 C.ar    1  UNL1        0.0000
     25 C         -29.3439    3.7916   30.0921 C.ar    1  UNL1        0.0001
     26 C         -28.1655    3.1623   29.4819 C.ar    1  UNL1        0.0001
     27 C         -32.1626    2.7501   32.3865 C.2     1  UNL1        0.2690
     28 N         -33.1053    3.3313   32.9309 N.am    1  UNL1       -0.1745
     29 O         -32.1385    1.5189   32.1725 O.2     1  UNL1       -0.2680
     30 C         -34.1271    2.6147   33.7029 C.2     1  UNL1        0.0847
     31 C         -35.2079    3.1924   33.9440 C.2     1  UNL1       -0.0035
     32 C         -35.3511    4.5203   33.6788 C.3     1  UNL1        0.0531
     33 C         -36.5862    5.2438   33.9632 C.2     1  UNL1       -0.0259
     34 C         -36.6568    6.6513   33.7604 C.2     1  UNL1       -0.0300
     35 C         -35.5436    7.2895   33.1684 C.3     1  UNL1        0.0304
@<TRIPOS>BOND
     1     5     7    1
     2     3     8    1
     3     7    14    1
     4    14    15    1
     5    15    16   ar
     6    15    17   ar
     7    14    18    2
     8    21    27    1
     9    27    28   am
    10    27    29    2
    11    28    30    1
    12    30    31    2
    13    31    32    1
    14    32    33    1
    15    33    34    2
    16    34    35    1
    17    20    21   ar
    18    21    22   ar
    19    22    23   ar
    20    23    24   ar
    21    24    25   ar
    22     8     9   ar
    23     9    10   ar
    24    10    13   ar
    25    13    12   ar
    26    12    11   ar
    27    11     8   ar
    28     1     2   ar
    29     2     3   ar
    30     3     4   ar
    31     6     5   ar
    32     5     1   ar
    33     4     6   ar
    34     6    19   ar
    35    19    20   ar
    36    20    25   ar
    37    25    26   ar
    38    26     4   ar
