@<TRIPOS>MOLECULE
No_3009-gen_results/8p0m/2024-11-26-14-13-15/
 25 26 0 0 0
SMALL
GASTEIGER

@<TRIPOS>ATOM
      1 C         -28.0162   -0.8135   28.8779 C.ar    1  UNL1       -0.0039
      2 C         -28.4690   -0.7850   29.8287 C.ar    1  UNL1       -0.0003
      3 C         -28.1960    0.3478   28.0550 C.ar    1  UNL1       -0.0167
      4 C         -27.4421    0.5100   26.7946 C.3     1  UNL1        0.0656
      5 C         -27.8427    1.3330   25.8056 C.2     1  UNL1       -0.0245
      6 C         -29.4956    0.1092   30.3452 C.ar    1  UNL1       -0.0000
      7 C         -29.7284    1.1870   29.5687 C.ar    1  UNL1       -0.0003
      8 C         -29.0420    1.3665   28.3718 C.ar    1  UNL1       -0.0039
      9 C         -26.1281   -0.0671   26.6257 C.3     1  UNL1        0.1220
     10 C         -25.2466   -0.2457   27.7552 C.ar    1  UNL1       -0.0043
     11 C         -24.2715    0.4354   28.2098 C.ar    1  UNL1       -0.0029
     12 C         -23.4094    0.0736   29.2523 C.ar    1  UNL1       -0.0003
     13 C         -23.5515   -1.2086   29.7706 C.ar    1  UNL1       -0.0000
     14 C         -25.0341   -1.6275   28.3725 C.ar    1  UNL1       -0.0029
     15 C         -24.3524   -2.0592   29.2823 C.ar    1  UNL1       -0.0003
     16 N         -25.7022   -0.3197   25.4529 N.3     1  UNL1       -0.1274
     17 C         -28.5774    1.0295   25.0432 C.2     1  UNL1       -0.0256
     18 C         -29.2679   -0.2757   25.0106 C.3     1  UNL1        0.0523
     19 C         -30.1993   -0.6098   23.9839 C.2     1  UNL1       -0.0126
     20 C         -30.9202   -1.7727   24.2377 C.2     1  UNL1        0.0451
     21 C         -32.1871   -1.7344   24.9039 C.1     1  UNL1       -0.0621
     22 C         -32.7399   -2.8795   25.5100 C.1     1  UNL1       -0.0595
     23 C         -32.8917   -3.1237   26.7688 C.3     1  UNL1        0.2009
     24 N         -32.6087   -2.0484   27.4875 N.2     1  UNL1       -0.2530
     25 C         -32.5055   -0.7694   27.0350 C.2     1  UNL1        0.1145
@<TRIPOS>BOND
     1     3     4    1
     2     4     5    1
     3     4     9    1
     4     9    10    1
     5     9    16    1
     6     5    17    2
     7    17    18    1
     8    18    19    1
     9    19    20    2
    10    20    21    1
    11    21    22    3
    12    22    23    1
    13    23    24    1
    14    24    25    2
    15    10    11   ar
    16    11    12   ar
    17    12    13   ar
    18    13    15   ar
    19    15    14   ar
    20    14    10   ar
    21     1     2   ar
    22     2     6   ar
    23     6     7   ar
    24     7     8   ar
    25     8     3   ar
    26     3     1   ar
