@<TRIPOS>MOLECULE
No_3010-gen_results/8p0m/2024-11-26-14-13-15/
 17 17 0 0 0
SMALL
GASTEIGER

@<TRIPOS>ATOM
      1 C         -28.0162   -0.8135   28.8779 C.ar    1  UNL1        0.0734
      2 C         -27.0636   -0.1189   28.6079 C.ar    1  UNL1        0.0003
      3 C         -27.0010    0.6913   27.4910 C.ar    1  UNL1       -0.0078
      4 C         -28.1373    0.7363   26.6350 C.ar    1  UNL1        0.0260
      5 C         -29.2360    0.0765   27.0690 C.ar    1  UNL1        0.1398
      6 C         -29.2177   -0.6429   28.1747 C.ar    1  UNL1        0.0335
      7 C         -28.0030   -1.6604   30.1266 C.3     1  UNL1        0.4186
      8 F         -27.0889   -2.4896   30.1569 F       1  UNL1       -0.1659
      9 F         -27.8657   -0.9743   31.2790 F       1  UNL1       -0.1659
     10 F         -29.2052   -2.3237   30.2617 F       1  UNL1       -0.1659
     11 F         -30.3141    0.1498   26.2918 F       1  UNL1       -0.2042
     12 C         -25.7197    1.4001   27.0907 C.3     1  UNL1        0.1452
     13 P         -24.4147    1.0743   27.9791 P.3     1  UNL1        0.3838
     14 O         -23.2504    1.7514   27.3472 O.2     1  UNL1       -0.2543
     15 O         -24.5505    1.7711   29.3231 O.3     1  UNL1       -0.2262
     16 O         -24.1477   -0.3794   28.1046 O.3     1  UNL1       -0.1388
     17 BR        -24.0108    1.5838   30.3447 Br      1  UNL1        0.1083
@<TRIPOS>BOND
     1     1     7    1
     2     7     8    1
     3     7     9    1
     4     7    10    1
     5     5    11    1
     6     3    12    1
     7    12    13    1
     8    13    14    2
     9    13    15    1
    10    13    16    1
    11    15    17    1
    12     1     2   ar
    13     2     3   ar
    14     3     4   ar
    15     4     5   ar
    16     5     6   ar
    17     6     1   ar
