@<TRIPOS>MOLECULE
No_3011-gen_results/8p0m/2024-11-26-14-13-15/
 14 15 0 0 0
SMALL
GASTEIGER

@<TRIPOS>ATOM
      1 O         -28.1229   -1.3353   28.4874 O.2     1  UNL1       -0.2541
      2 C         -27.0637   -0.8242   28.8687 C.2     1  UNL1        0.3334
      3 C         -26.4017   -0.0623   28.6224 C.ar    1  UNL1        0.0679
      4 F         -26.7496   -1.3992   30.2054 F       1  UNL1       -0.1586
      5 C         -24.9068   -0.0147   28.6883 C.ar    1  UNL1        0.0097
      6 C         -23.9741    0.8812   28.0751 C.ar    1  UNL1        0.0350
      7 C         -24.5496    1.8560   27.2067 C.ar    1  UNL1        0.0029
      8 C         -25.8901    1.8777   27.0271 C.ar    1  UNL1        0.0003
      9 C         -26.6889    1.0097   27.5631 C.ar    1  UNL1        0.0056
     10 C         -22.5512    0.8753   28.3669 C.ar    1  UNL1        0.1696
     11 N         -21.7147    1.5406   27.5773 N.pl3   1  UNL1       -0.1072
     12 N         -22.0771   -0.0111   29.2546 N.ar    1  UNL1       -0.2259
     13 C         -22.7777   -0.7658   30.0943 C.ar    1  UNL1        0.1004
     14 C         -24.2196   -0.8367   29.7672 C.ar    1  UNL1        0.0209
@<TRIPOS>BOND
     1     1     2    2
     2     2     3    1
     3     2     4    1
     4    11    10    1
     5     3     5   ar
     6     6     7   ar
     7     7     8   ar
     8     8     9   ar
     9     9     3   ar
    10     5     6   ar
    11     6    10   ar
    12    10    12   ar
    13    12    13   ar
    14    13    14   ar
    15    14     5   ar
