@<TRIPOS>MOLECULE
No_3012-gen_results/8p0m/2024-11-26-14-13-15/
 11 11 0 0 0
SMALL
GASTEIGER

@<TRIPOS>ATOM
      1 C         -28.0162   -0.8135   28.8779 C.ar    1  UNL1       -0.0026
      2 C         -27.0636   -0.1190   28.6079 C.ar    1  UNL1       -0.0024
      3 C         -25.7923   -0.4302   29.0761 C.ar    1  UNL1       -0.0026
      4 C         -25.5756   -1.5654   29.9363 C.ar    1  UNL1       -0.0003
      5 C         -26.7354   -2.3004   30.2173 C.ar    1  UNL1       -0.0000
      6 C         -27.9184   -1.9537   29.7629 C.ar    1  UNL1       -0.0003
      7 C         -27.1057    1.1023   27.7593 C.3     1  UNL1        0.1169
      8 N         -27.8512    1.5044   27.1726 N.3     1  UNL1       -0.2091
      9 C         -26.0888    2.1843   28.1058 C.2     1  UNL1       -0.0047
     10 C         -25.0117    2.0693   28.8892 C.2     1  UNL1       -0.0031
     11 C         -27.6416    2.6996   26.5509 C.3     1  UNL1        0.1082
@<TRIPOS>BOND
     1     2     7    1
     2     7     8    1
     3     7     9    1
     4     9    10    2
     5     8    11    1
     6     1     2   ar
     7     2     3   ar
     8     3     4   ar
     9     4     5   ar
    10     5     6   ar
    11     6     1   ar
