@<TRIPOS>MOLECULE
No_3013-gen_results/8p0m/2024-11-26-14-13-15/
 12 13 0 0 0
SMALL
GASTEIGER

@<TRIPOS>ATOM
      1 C         -28.0162   -0.8135   28.8779 C.ar    1  UNL1        0.0000
      2 C         -27.0636   -0.1189   28.6079 C.ar    1  UNL1        0.0000
      3 C         -27.0010    0.6913   27.4910 C.ar    1  UNL1        0.0000
      4 C         -28.1373    0.7363   26.6350 C.ar    1  UNL1        0.0000
      5 C         -29.2360    0.0765   27.0690 C.ar    1  UNL1        0.0000
      6 C         -29.2177   -0.6429   28.1747 C.ar    1  UNL1        0.0000
      7 C         -30.5230    0.0808   26.3696 C.ar    1  UNL1        0.0000
      8 C         -31.3675    1.0756   26.5750 C.ar    1  UNL1        0.0000
      9 C         -30.7542   -0.8301   25.3356 C.ar    1  UNL1        0.0000
     10 C         -32.5990    1.1621   25.9279 C.ar    1  UNL1        0.0000
     11 C         -31.9560   -0.8255   24.6164 C.ar    1  UNL1        0.0000
     12 C         -32.8701    0.1972   24.9035 C.ar    1  UNL1        0.0000
@<TRIPOS>BOND
     1     5     7    1
     2     1     2   ar
     3     2     3   ar
     4     3     4   ar
     5     4     5   ar
     6     5     6   ar
     7     6     1   ar
     8     7     8   ar
     9     8    10   ar
    10    10    12   ar
    11    12    11   ar
    12    11     9   ar
    13     9     7   ar
