@<TRIPOS>MOLECULE
No_3014-gen_results/8p0m/2024-11-26-14-13-15/
 26 28 0 0 0
SMALL
GASTEIGER

@<TRIPOS>ATOM
      1 C         -28.0162   -0.8135   28.8779 C.ar    1  UNL1        0.0136
      2 C         -28.4690   -0.7850   29.8287 C.ar    1  UNL1        0.0638
      3 C         -27.0871    0.2903   28.6377 C.ar    1  UNL1       -0.0167
      4 C         -26.8317    1.2487   29.5869 C.ar    1  UNL1       -0.0039
      5 C         -28.3914    0.0801   31.0065 C.ar    1  UNL1        0.0175
      6 C         -27.4940    1.1521   30.7841 C.ar    1  UNL1        0.0012
      7 C         -26.3172    0.3994   27.3653 C.3     1  UNL1        0.0486
      8 C         -26.8815    0.9711   26.3721 C.ar    1  UNL1       -0.0181
      9 C         -28.2026    1.4637   26.4214 C.ar    1  UNL1       -0.0039
     10 C         -28.7510    1.9527   25.1515 C.ar    1  UNL1       -0.0003
     11 C         -27.9992    1.7656   23.9940 C.ar    1  UNL1       -0.0000
     12 C         -26.8200    1.1311   23.9824 C.ar    1  UNL1       -0.0003
     13 C         -26.1901    0.7119   25.1051 C.ar    1  UNL1       -0.0039
     14 C         -24.9839   -0.1692   27.4539 C.3     1  UNL1        0.0307
     15 C         -23.9627    0.8249   27.8558 C.2     1  UNL1       -0.0394
     16 C         -22.9383    0.4124   28.7187 C.2     1  UNL1        0.0669
     17 C         -23.8563    2.1324   27.2760 C.3     1  UNL1        0.0263
     18 C         -23.0376   -0.6342   29.6448 C.3     1  UNL1        0.4179
     19 F         -22.1233   -0.9364   30.1960 F       1  UNL1       -0.1659
     20 F         -24.0916   -0.2956   30.5009 F       1  UNL1       -0.1659
     21 F         -23.4201   -1.8263   28.9975 F       1  UNL1       -0.1659
     22 N         -29.4144   -1.9360   30.1992 N.ar    1  UNL1       -0.3036
     23 C         -28.8801   -3.1851   30.5734 C.ar    1  UNL1        0.0802
     24 C         -29.8429   -4.2754   30.6266 C.ar    1  UNL1        0.0205
     25 C         -31.1964   -3.8717   30.5677 C.ar    1  UNL1        0.0205
     26 C         -30.7794   -2.0503   30.1127 C.ar    1  UNL1        0.0802
@<TRIPOS>BOND
     1     3     7    1
     2     7    14    1
     3    14    15    1
     4    15    16    2
     5    15    17    1
     6    16    18    1
     7    18    19    1
     8    18    20    1
     9    18    21    1
    10     2    22    1
    11    22    23   ar
    12    23    24   ar
    13    24    25   ar
    14    22    26   ar
    15    25    26   ar
    16     7     8    1
    17     8     9   ar
    18     9    10   ar
    19    10    11   ar
    20    11    12   ar
    21    12    13   ar
    22    13     8   ar
    23     1     2   ar
    24     2     5   ar
    25     5     6   ar
    26     6     4   ar
    27     4     3   ar
    28     3     1   ar
