@<TRIPOS>MOLECULE
No_3015-gen_results/8p0m/2024-11-26-14-13-15/
 17 18 0 0 0
SMALL
GASTEIGER

@<TRIPOS>ATOM
      1 C         -28.0162   -0.8135   28.8779 C.ar    1  UNL1        0.0039
      2 C         -28.4690   -0.7850   29.8287 C.ar    1  UNL1        0.0714
      3 C         -26.5042   -0.7777   28.8766 C.ar    1  UNL1       -0.0001
      4 C         -25.8103   -0.8531   30.1028 C.ar    1  UNL1        0.0000
      5 C         -27.9906   -0.8916   31.2257 C.ar    1  UNL1        0.0039
      6 C         -26.6042   -0.8676   31.2652 C.ar    1  UNL1       -0.0001
      7 C         -24.3894   -0.8050   30.1638 C.ar    1  UNL1        0.0008
      8 C         -23.7660   -0.9500   31.0679 C.ar    1  UNL1        0.0001
      9 C         -22.6512   -0.6461   31.4344 C.ar    1  UNL1        0.0009
     10 C         -21.7485   -0.3305   30.3721 C.ar    1  UNL1        0.0114
     11 C         -22.3144   -0.1125   29.1112 C.ar    1  UNL1        0.0577
     12 C         -23.7531   -0.3709   28.9587 C.ar    1  UNL1        0.0114
     13 C         -30.0942   -0.7764   29.8422 C.3     1  UNL1        0.4186
     14 F         -30.3819   -0.5121   28.7767 F       1  UNL1       -0.1659
     15 F         -30.7539   -1.6022   30.4988 F       1  UNL1       -0.1659
     16 F         -30.3726    0.3992   30.5678 F       1  UNL1       -0.1659
     17 CL        -21.4100    0.4831   27.8140 Cl      1  UNL1       -0.0822
@<TRIPOS>BOND
     1     4     7    1
     2     2    13    1
     3    13    14    1
     4    13    15    1
     5    13    16    1
     6    11    17    1
     7     1     2   ar
     8     2     5   ar
     9     5     6   ar
    10     6     4   ar
    11     4     3   ar
    12     3     1   ar
    13     7     8   ar
    14     8     9   ar
    15     9    10   ar
    16    10    11   ar
    17    11    12   ar
    18    12     7   ar
