@<TRIPOS>MOLECULE
No_3018-gen_results/8p0m/2024-11-26-14-13-15/
 21 23 0 0 0
SMALL
GASTEIGER

@<TRIPOS>ATOM
      1 C         -28.0162   -0.8135   28.8779 C.ar    1  UNL1        0.0009
      2 C         -27.0636   -0.1189   28.6079 C.ar    1  UNL1       -0.0003
      3 C         -26.8756    1.1325   28.9134 C.ar    1  UNL1       -0.0030
      4 C         -27.9014    1.8066   29.6436 C.ar    1  UNL1        0.0111
      5 C         -29.0458   -0.2316   29.7181 C.ar    1  UNL1        0.0114
      6 C         -28.9402    1.0517   30.0597 C.ar    1  UNL1        0.0577
      7 C         -25.8732   -0.7125   27.8045 C.ar    1  UNL1       -0.0002
      8 C         -25.2858    0.0505   26.8000 C.ar    1  UNL1       -0.0007
      9 C         -25.2235    1.4626   27.0116 C.ar    1  UNL1        0.0197
     10 C         -26.1409    2.0494   27.9719 C.ar    1  UNL1       -0.0177
     11 C         -24.2753    2.2168   26.2399 C.3     1  UNL1        0.2289
     12 CL        -22.8504    2.0328   26.4147 Cl      1  UNL1       -0.0739
     13 C         -24.4844    3.7901   26.6274 C.2     1  UNL1        0.0256
     14 C         -26.1119    3.4689   28.1143 C.3     1  UNL1        0.0588
     15 C         -25.3124    4.3240   27.4384 C.2     1  UNL1        0.0574
     16 O         -24.6873    2.2001   24.8763 O.3     1  UNL1       -0.1998
     17 C         -25.4011    5.7459   27.8210 C.2     1  UNL1        0.3374
     18 O         -25.6608    6.1951   28.8420 O.2     1  UNL1       -0.2452
     19 O         -25.0989    6.6166   26.7597 O.3     1  UNL1       -0.4415
     20 CL        -30.1158    1.7274   31.1524 Cl      1  UNL1       -0.0822
     21 C         -24.6827    7.4946   26.5169 C.3     1  UNL1        0.2559
@<TRIPOS>BOND
     1     9    11    1
     2    11    12    1
     3    11    13    1
     4    10    14    1
     5    13    15    2
     6    14    15    1
     7    11    16    1
     8    15    17    1
     9    17    18    2
    10    17    19    1
    11     6    20    1
    12    19    21    1
    13     1     2   ar
    14     3     4   ar
    15     4     6   ar
    16     6     5   ar
    17     5     1   ar
    18     2     3   ar
    19     3    10   ar
    20    10     9   ar
    21     9     8   ar
    22     8     7   ar
    23     7     2   ar
