@<TRIPOS>MOLECULE
No_3019-gen_results/8p0m/2024-11-26-14-13-15/
 12 13 0 0 0
SMALL
GASTEIGER

@<TRIPOS>ATOM
      1 C         -28.0162   -0.8135   28.8779 C.ar    1  UNL1        0.0015
      2 C         -28.4690   -0.7850   29.8287 C.ar    1  UNL1        0.0000
      3 C         -27.0871    0.2903   28.6377 C.ar    1  UNL1        0.0177
      4 C         -26.8317    1.2487   29.5869 C.ar    1  UNL1        0.0015
      5 C         -28.3914    0.0801   31.0065 C.ar    1  UNL1        0.0000
      6 C         -27.4940    1.1521   30.7841 C.ar    1  UNL1        0.0000
      7 C         -26.3109    0.3917   27.3640 C.ar    1  UNL1        0.0813
      8 N         -25.1298    0.0734   27.3738 N.ar    1  UNL1       -0.2438
      9 C         -26.9473    0.7908   26.1670 C.ar    1  UNL1        0.0191
     10 C         -26.1714    0.5623   25.0628 C.ar    1  UNL1        0.0031
     11 C         -24.2459    0.0756   26.3621 C.ar    1  UNL1        0.0988
     12 C         -24.7916    0.3370   25.1138 C.ar    1  UNL1        0.0207
@<TRIPOS>BOND
     1     3     7    1
     2     7     8   ar
     3     8    11   ar
     4    11    12   ar
     5    12    10   ar
     6    10     9   ar
     7     9     7   ar
     8     1     2   ar
     9     2     5   ar
    10     5     6   ar
    11     6     4   ar
    12     4     3   ar
    13     3     1   ar
