@<TRIPOS>MOLECULE
No_302-gen_results/8p0m/2024-11-26-14-13-15/
 22 24 0 0 0
SMALL
GASTEIGER

@<TRIPOS>ATOM
      1 C         -28.0162   -0.8135   28.8779 C.ar    1  UNL1        0.0030
      2 C         -28.4690   -0.7850   29.8287 C.ar    1  UNL1        0.0001
      3 C         -28.1816    0.4277   28.1134 C.ar    1  UNL1        0.0342
      4 C         -27.4498    0.6435   26.8500 C.2     1  UNL1        0.1412
      5 C         -26.4529    0.9939   26.6681 C.2     1  UNL1        0.0127
      6 C         -25.1811    0.8624   26.8164 C.ar    1  UNL1       -0.0010
      7 C         -24.2187    1.6769   26.2404 C.ar    1  UNL1       -0.0002
      8 C         -29.4213    0.0902   30.4451 C.ar    1  UNL1        0.0000
      9 C         -29.0456    1.3709   28.5903 C.ar    1  UNL1        0.0030
     10 C         -29.6394    1.1968   29.7666 C.ar    1  UNL1        0.0001
     11 C         -22.8117    1.6024   26.4182 C.ar    1  UNL1       -0.0000
     12 C         -22.3656    0.9539   27.5694 C.ar    1  UNL1       -0.0000
     13 C         -23.2857    0.1705   28.3277 C.ar    1  UNL1       -0.0000
     14 C         -24.6425    0.1287   28.0133 C.ar    1  UNL1       -0.0002
     15 O         -28.1911    0.0442   25.7907 O.3     1  UNL1       -0.4538
     16 C         -26.5925    2.3976   25.8041 C.3     1  UNL1        0.0342
     17 C         -29.4088    0.4941   25.4595 C.ar    1  UNL1        0.1453
     18 C         -29.5417    0.6317   24.1305 C.ar    1  UNL1        0.0375
     19 C         -30.2662    1.5571   23.7898 C.ar    1  UNL1        0.0031
     20 C         -31.2713    2.2327   24.4611 C.ar    1  UNL1        0.0002
     21 C         -31.1630    1.9334   25.8762 C.ar    1  UNL1        0.0031
     22 C         -30.3109    1.0661   26.3622 C.ar    1  UNL1        0.0375
@<TRIPOS>BOND
     1     3     4    1
     2     4     5    2
     3     5     6    1
     4     4    15    1
     5     5    16    1
     6    15    17    1
     7    17    18   ar
     8    18    19   ar
     9    19    20   ar
    10    20    21   ar
    11    21    22   ar
    12    22    17   ar
    13     1     2   ar
    14     2     8   ar
    15     8    10   ar
    16    10     9   ar
    17     9     3   ar
    18     3     1   ar
    19     6     7   ar
    20     7    11   ar
    21    11    12   ar
    22    12    13   ar
    23    13    14   ar
    24    14     6   ar
