@<TRIPOS>MOLECULE
No_3021-gen_results/8p0m/2024-11-26-14-13-15/
 35 37 0 0 0
SMALL
GASTEIGER

@<TRIPOS>ATOM
      1 C         -28.0162   -0.8135   28.8779 C.ar    1  UNL1        0.0045
      2 C         -28.4690   -0.7850   29.8287 C.ar    1  UNL1        0.0001
      3 C         -28.1960    0.3478   28.0550 C.ar    1  UNL1        0.0539
      4 C         -29.0191    1.3501   28.3782 C.ar    1  UNL1        0.0045
      5 C         -29.4107    0.1803   30.3782 C.ar    1  UNL1        0.0000
      6 C         -29.6059    1.2495   29.6193 C.ar    1  UNL1        0.0001
      7 C         -27.3479    0.2333   26.8118 C.2     1  UNL1        0.2528
      8 N         -27.7518    0.5413   25.7340 N.am    1  UNL1       -0.2533
      9 O         -26.0674   -0.0545   26.9219 O.2     1  UNL1       -0.2696
     10 C         -27.0028    0.4432   24.4820 C.3     1  UNL1        0.1203
     11 C         -29.1581    0.9434   25.4454 C.ar    1  UNL1        0.0564
     12 C         -30.0355    0.3767   25.5518 C.ar    1  UNL1        0.0445
     13 C         -31.3772    0.8366   25.2143 C.ar    1  UNL1        0.1414
     14 C         -31.4425    2.0879   24.6534 C.ar    1  UNL1        0.0297
     15 C         -29.1793    2.3125   24.8068 C.ar    1  UNL1        0.0151
     16 C         -30.3170    2.8290   24.3542 C.ar    1  UNL1        0.0036
     17 F         -32.5049    0.1986   25.4835 F       1  UNL1       -0.2041
     18 C         -30.5701    2.3714   30.0439 C.ar    1  UNL1        0.0001
     19 C         -31.5011    2.8019   29.2703 C.ar    1  UNL1        0.0045
     20 C         -32.3801    3.8658   29.6522 C.ar    1  UNL1        0.0542
     21 C         -32.2447    4.3648   30.9384 C.ar    1  UNL1        0.0045
     22 C         -31.3085    3.9005   31.7687 C.ar    1  UNL1        0.0001
     23 C         -30.4441    2.9189   31.3729 C.ar    1  UNL1        0.0000
     24 C         -33.4129    4.3121   28.6892 C.2     1  UNL1        0.2570
     25 N         -33.2283    5.3094   28.0009 N.am    1  UNL1       -0.2237
     26 O         -34.4602    3.6145   28.5755 O.2     1  UNL1       -0.2692
     27 C         -34.1515    5.7849   26.9610 C.2     1  UNL1        0.0684
     28 C         -31.9937    6.1842   28.0772 C.2     1  UNL1        0.1344
     29 C         -31.4888    6.7336   27.1192 C.1     1  UNL1        0.0126
     30 N         -30.2966    7.3301   27.2670 N.2     1  UNL1       -0.1907
     31 C         -29.6444    7.9067   26.2977 C.3     1  UNL1        0.2950
     32 N         -30.0252    8.7484   25.6830 N.3     1  UNL1       -0.0851
     33 N         -28.3020    7.4108   26.0104 N.3     1  UNL1       -0.0851
     34 C         -35.0202    6.3486   27.3607 C.2     1  UNL1       -0.0093
     35 C         -36.0437    6.9442   26.5286 C.3     1  UNL1        0.0321
@<TRIPOS>BOND
     1     3     7    1
     2     7     8   am
     3     7     9    2
     4     8    10    1
     5     8    11    1
     6    13    17    1
     7     6    18    1
     8    20    24    1
     9    24    25   am
    10    24    26    2
    11    25    27    1
    12    25    28    1
    13    28    29    2
    14    29    30    2
    15    30    31    1
    16    31    32    1
    17    31    33    1
    18    27    34    2
    19    34    35    1
    20    18    19   ar
    21    19    20   ar
    22    20    21   ar
    23    21    22   ar
    24    22    23   ar
    25    23    18   ar
    26    11    12   ar
    27    12    13   ar
    28    13    14   ar
    29    14    16   ar
    30    16    15   ar
    31    15    11   ar
    32     1     2   ar
    33     2     5   ar
    34     5     6   ar
    35     6     4   ar
    36     4     3   ar
    37     3     1   ar
