@<TRIPOS>MOLECULE
No_3022-gen_results/8p0m/2024-11-26-14-13-15/
 27 29 0 0 0
SMALL
GASTEIGER

@<TRIPOS>ATOM
      1 C         -28.0162   -0.8135   28.8779 C.ar    1  UNL1        0.0114
      2 C         -28.4690   -0.7850   29.8287 C.ar    1  UNL1        0.0577
      3 C         -26.5455   -0.8762   28.8500 C.ar    1  UNL1        0.0009
      4 C         -25.8041   -1.0324   30.0571 C.ar    1  UNL1        0.0015
      5 C         -27.9437   -0.9869   31.2075 C.ar    1  UNL1        0.0114
      6 C         -26.5825   -1.0386   31.2231 C.ar    1  UNL1        0.0009
      7 CL        -30.2809   -0.7232   29.8834 Cl      1  UNL1       -0.0822
      8 C         -24.3690   -1.1185   30.0640 C.ar    1  UNL1        0.0211
      9 C         -23.6811    0.1519   30.0835 C.ar    1  UNL1        0.0773
     10 C         -22.4350    0.2823   29.3993 C.ar    1  UNL1        0.0065
     11 C         -21.8110   -0.9569   29.0086 C.ar    1  UNL1        0.0015
     12 C         -23.7803   -1.9404   28.9115 C.ar    1  UNL1        0.0655
     13 N         -24.4216   -3.1388   28.8357 N.pl3   1  UNL1       -0.2376
     14 C         -22.5206   -1.7921   28.6134 C.ar    1  UNL1        0.0161
     15 C         -24.1264    1.3289   30.9250 C.2     1  UNL1        0.3458
     16 O         -24.4456    1.2862   32.0447 O.2     1  UNL1       -0.2445
     17 O         -24.1460    2.4887   30.2168 O.3     1  UNL1       -0.4179
     18 C         -24.4489   -4.2988   29.5805 C.3     1  UNL1        0.1123
     19 C         -25.3301   -5.3126   29.1461 C.3     1  UNL1        0.0251
     20 C         -25.2423    3.2945   30.4067 C.ar    1  UNL1        0.1824
     21 C         -25.9597    3.5801   29.2198 C.ar    1  UNL1        0.1731
     22 C         -26.2753    4.7047   29.0269 C.ar    1  UNL1        0.0401
     23 C         -26.3284    5.7667   30.0647 C.ar    1  UNL1        0.0033
     24 C         -25.6274    5.4141   31.2381 C.ar    1  UNL1        0.0033
     25 C         -25.0805    4.2855   31.3712 C.ar    1  UNL1        0.0408
     26 O         -25.9861    2.6680   28.2911 O.3     1  UNL1       -0.4683
     27 C         -26.8912    2.7494   27.2788 C.3     1  UNL1        0.2526
@<TRIPOS>BOND
     1     2     7    1
     2     4     8    1
     3    12    13    1
     4     9    15    1
     5    15    16    2
     6    15    17    1
     7    13    18    1
     8    18    19    1
     9    17    20    1
    10    21    26    1
    11    26    27    1
    12     8     9   ar
    13     9    10   ar
    14    10    11   ar
    15    11    14   ar
    16    14    12   ar
    17    12     8   ar
    18     1     2   ar
    19     2     5   ar
    20     5     6   ar
    21     6     4   ar
    22     4     3   ar
    23     3     1   ar
    24    20    21   ar
    25    21    22   ar
    26    22    23   ar
    27    23    24   ar
    28    24    25   ar
    29    25    20   ar
