@<TRIPOS>MOLECULE
No_3023-gen_results/8p0m/2024-11-26-14-13-15/
 31 34 0 0 0
SMALL
GASTEIGER

@<TRIPOS>ATOM
      1 C         -28.0162   -0.8135   28.8779 C.ar    1  UNL1        0.0369
      2 C         -27.0636   -0.1189   28.6079 C.ar    1  UNL1        0.0031
      3 C         -25.7923   -0.4302   29.0761 C.ar    1  UNL1        0.0002
      4 C         -24.5456    0.3494   28.8225 C.ar    1  UNL1        0.0000
      5 C         -23.2409    0.0217   29.3323 C.ar    1  UNL1        0.0000
      6 C         -27.8820   -1.8995   29.8633 C.ar    1  UNL1        0.1386
      7 C         -26.6526   -2.3142   30.3138 C.ar    1  UNL1        0.0369
      8 C         -25.5153   -1.5607   29.9787 C.ar    1  UNL1        0.0031
      9 C         -22.1645    0.7936   28.9524 C.ar    1  UNL1        0.0000
     10 C         -22.1241    1.7484   27.9889 C.ar    1  UNL1        0.0000
     11 C         -24.5235    1.3782   27.7946 C.ar    1  UNL1        0.0000
     12 C         -23.3387    2.0417   27.4305 C.ar    1  UNL1        0.0000
     13 O         -28.9608   -2.6591   30.2424 O.3     1  UNL1       -0.4751
     14 C         -28.8307   -3.9394   30.6738 C.3     1  UNL1        0.2101
     15 C         -29.8447   -4.7463   30.1627 C.3     1  UNL1        0.0734
     16 C         -31.0882   -4.3626   30.6122 C.ar    1  UNL1       -0.0216
     17 C         -31.4715   -3.6092   31.2923 C.ar    1  UNL1       -0.0044
     18 C         -32.8653   -3.1778   31.6469 C.ar    1  UNL1       -0.0003
     19 C         -33.8231   -3.9173   30.9622 C.ar    1  UNL1       -0.0003
     20 C         -33.5012   -4.8727   30.0642 C.ar    1  UNL1       -0.0037
     21 C         -32.1910   -5.1536   29.8079 C.ar    1  UNL1       -0.0115
     22 C         -31.8616   -6.1683   28.8183 C.3     1  UNL1        0.1475
     23 C         -31.2147   -5.6841   27.5986 C.2     1  UNL1        0.3724
     24 C         -32.1219   -7.4939   28.9742 C.ar    1  UNL1       -0.0077
     25 O         -30.7728   -6.4949   26.7566 O.co2   1  UNL1       -0.2449
     26 O         -31.1601   -4.4213   27.3367 O.co2   1  UNL1       -0.2449
     27 C         -32.5929   -8.2405   28.0531 C.ar    1  UNL1       -0.0034
     28 C         -32.5622   -9.6029   28.2352 C.ar    1  UNL1       -0.0003
     29 C         -31.9150   -8.0484   30.2913 C.ar    1  UNL1       -0.0034
     30 C         -31.9261   -9.3968   30.5292 C.ar    1  UNL1       -0.0003
     31 C         -32.2919  -10.1837   29.4419 C.ar    1  UNL1       -0.0000
@<TRIPOS>BOND
     1     3     4    1
     2     6    13    1
     3    13    14    1
     4    14    15    1
     5    15    16    1
     6    21    22    1
     7    22    23    1
     8    22    24    1
     9    23    25   ar
    10    23    26   ar
    11    24    27   ar
    12    27    28   ar
    13    28    31   ar
    14    31    30   ar
    15    30    29   ar
    16    29    24   ar
    17     1     2   ar
    18     2     3   ar
    19     3     8   ar
    20     8     7   ar
    21     7     6   ar
    22     6     1   ar
    23     4     5   ar
    24     5     9   ar
    25     9    10   ar
    26    10    12   ar
    27    12    11   ar
    28    11     4   ar
    29    16    17   ar
    30    17    18   ar
    31    18    19   ar
    32    19    20   ar
    33    20    21   ar
    34    21    16   ar
