@<TRIPOS>MOLECULE
No_3024-gen_results/8p0m/2024-11-26-14-13-15/
 30 32 0 0 0
SMALL
GASTEIGER

@<TRIPOS>ATOM
      1 N         -28.0544   -1.0498   28.7246 N.2     1  UNL1       -0.2526
      2 C         -27.7460   -0.0733   29.0098 C.2     1  UNL1        0.0556
      3 C         -27.1741    0.7325   28.8254 C.2     1  UNL1       -0.0063
      4 C         -26.2627    0.6359   27.6462 C.3     1  UNL1        0.0585
      5 C         -25.3895    1.6452   27.1833 C.ar    1  UNL1       -0.0173
      6 C         -24.3997    1.3753   26.2518 C.ar    1  UNL1       -0.0039
      7 C         -23.4295    2.3609   25.9489 C.ar    1  UNL1       -0.0003
      8 C         -23.6587    3.6591   26.4893 C.ar    1  UNL1       -0.0000
      9 C         -25.3226    3.0224   27.6532 C.ar    1  UNL1       -0.0039
     10 C         -24.5552    3.9768   27.2726 C.ar    1  UNL1       -0.0003
     11 C         -28.7529   -1.9312   29.5164 C.2     1  UNL1        0.0812
     12 C         -29.1074   -1.5139   30.5353 C.3     1  UNL1        0.1237
     13 C         -28.4476   -0.1647   30.5059 C.3     1  UNL1        0.0606
     14 C         -29.8723   -1.9950   31.6885 C.2     1  UNL1        0.2312
     15 O         -29.8262   -1.6272   32.7616 O.2     1  UNL1       -0.2745
     16 N         -30.6650   -3.0905   31.3435 N.am    1  UNL1       -0.2792
     17 C         -30.8731   -3.6073   30.1216 C.3     1  UNL1        0.0934
     18 C         -31.9621   -4.4017   30.1103 C.3     1  UNL1        0.0216
     19 C         -32.2120   -5.1934   30.9538 C.3     1  UNL1        0.0035
     20 C         -31.8148   -4.9157   32.3582 C.3     1  UNL1        0.0216
     21 C         -31.0851   -3.8189   32.5374 C.3     1  UNL1        0.0934
     22 C         -27.0657    0.3193   26.3844 C.3     1  UNL1        0.1202
     23 C         -25.2427   -0.5900   27.8904 C.3     1  UNL1        0.0106
     24 N         -28.2274    0.8337   26.3036 N.pl3   1  UNL1       -0.2356
     25 C         -28.6167    1.6518   25.5883 C.2     1  UNL1        0.0801
     26 C         -29.9645    2.1308   25.5571 C.2     1  UNL1        0.0174
     27 C         -30.3591    3.2184   25.4544 C.2     1  UNL1        0.0014
     28 C         -31.7326    3.6526   25.4971 C.2     1  UNL1        0.0000
     29 C         -32.6523    2.7045   25.5821 C.2     1  UNL1        0.0000
     30 C         -32.2997    1.4239   25.6725 C.2     1  UNL1        0.0000
@<TRIPOS>BOND
     1     1     2    1
     2     2     3    2
     3     3     4    1
     4     4     5    1
     5     1    11    2
     6    11    12    1
     7     2    13    1
     8    12    13    1
     9    12    14    1
    10    14    15    2
    11    14    16   am
    12    16    17    1
    13    18    19    1
    14    16    21    1
    15    20    21    1
    16     4    22    1
    17     4    23    1
    18    22    24    1
    19    24    25    1
    20    25    26    2
    21    26    27    1
    22    27    28    2
    23    28    29    1
    24    29    30    2
    25    17    18    1
    26    19    20    1
    27     5     6   ar
    28     6     7   ar
    29     7     8   ar
    30     8    10   ar
    31    10     9   ar
    32     9     5   ar
