@<TRIPOS>MOLECULE
No_3025-gen_results/8p0m/2024-11-26-14-13-15/
 20 21 0 0 0
SMALL
GASTEIGER

@<TRIPOS>ATOM
      1 C         -28.0162   -0.8135   28.8779 C.3     1  UNL1        0.0317
      2 C         -27.0636   -0.1190   28.6079 C.ar    1  UNL1       -0.0122
      3 C         -26.9716    0.7139   27.5060 C.ar    1  UNL1        0.0644
      4 C         -25.8205    1.4909   27.1160 C.ar    1  UNL1        0.0138
      5 C         -24.6562    1.4242   27.9180 C.ar    1  UNL1        0.0721
      6 C         -24.7114    0.5419   29.0507 C.ar    1  UNL1        0.0036
      7 C         -25.8042   -0.2058   29.3881 C.ar    1  UNL1       -0.0036
      8 C         -28.6958   -0.4989   30.1325 C.3     1  UNL1        0.0310
      9 C         -29.8501   -1.3254   30.5771 C.ar    1  UNL1       -0.0218
     10 C         -30.0036   -2.3902   29.9474 C.ar    1  UNL1       -0.0043
     11 C         -31.2143   -3.1061   30.3815 C.ar    1  UNL1       -0.0003
     12 C         -32.0184   -2.6291   31.3168 C.ar    1  UNL1       -0.0000
     13 C         -31.7675   -1.4592   31.9498 C.ar    1  UNL1       -0.0003
     14 C         -30.6562   -0.7136   31.5739 C.ar    1  UNL1       -0.0043
     15 C         -23.4387    2.1421   27.6318 C.3     1  UNL1        0.4186
     16 F         -22.5952    2.0899   28.4831 F       1  UNL1       -0.1659
     17 F         -22.8812    1.6387   26.4139 F       1  UNL1       -0.1659
     18 F         -23.8064    3.4340   27.3338 F       1  UNL1       -0.1659
     19 C         -28.1026    0.8542   26.6022 C.1     1  UNL1        0.1001
     20 N         -28.4755    0.6275   25.5927 N.1     1  UNL1       -0.1908
@<TRIPOS>BOND
     1     1     8    1
     2     8     9    1
     3     5    15    1
     4    15    16    1
     5    15    17    1
     6    15    18    1
     7     3    19    1
     8    19    20    3
     9     1     2    1
    10     2     3   ar
    11     3     4   ar
    12     4     5   ar
    13     5     6   ar
    14     6     7   ar
    15     7     2   ar
    16     9    10   ar
    17    10    11   ar
    18    11    12   ar
    19    12    13   ar
    20    13    14   ar
    21    14     9   ar
