@<TRIPOS>MOLECULE
No_3026-gen_results/8p0m/2024-11-26-14-13-15/
 23 25 0 0 0
SMALL
GASTEIGER

@<TRIPOS>ATOM
      1 C         -28.0162   -0.8135   28.8779 C.ar    1  UNL1       -0.0036
      2 C         -27.0636   -0.1190   28.6079 C.ar    1  UNL1       -0.0147
      3 C         -26.9287    1.1713   29.0083 C.ar    1  UNL1       -0.0036
      4 C         -27.9560    1.7411   29.7840 C.ar    1  UNL1       -0.0003
      5 C         -29.0569   -0.3271   29.7466 C.ar    1  UNL1       -0.0003
      6 C         -28.9828    0.9722   30.1516 C.ar    1  UNL1       -0.0000
      7 C         -25.8907   -0.6263   27.7857 C.3     1  UNL1        0.0624
      8 C         -25.4633    0.1123   26.6815 C.2     1  UNL1       -0.0361
      9 C         -25.0310   -1.6701   28.2406 C.2     1  UNL1       -0.0180
     10 C         -24.3963   -1.7192   29.4773 C.2     1  UNL1       -0.0042
     11 C         -24.2526   -0.5367   30.3229 C.ar    1  UNL1       -0.0043
     12 C         -23.1197    0.2953   30.0441 C.ar    1  UNL1       -0.0218
     13 C         -25.1529   -0.3542   31.3952 C.ar    1  UNL1       -0.0003
     14 C         -25.0340    0.7882   32.2121 C.ar    1  UNL1       -0.0000
     15 C         -22.2213    0.1473   29.0051 C.3     1  UNL1        0.0310
     16 C         -24.2370    1.9287   31.7468 C.ar    1  UNL1       -0.0003
     17 C         -23.2103    1.6606   30.7977 C.ar    1  UNL1       -0.0043
     18 C         -24.6259    1.1871   26.7315 C.2     1  UNL1       -0.0073
     19 C         -24.0314    1.7914   27.8318 C.2     1  UNL1       -0.0006
     20 C         -22.8690    2.6544   27.3744 C.2     1  UNL1       -0.0000
     21 C         -24.4415    1.9862   25.5102 C.2     1  UNL1       -0.0006
     22 C         -23.2090    2.9415   26.0009 C.2     1  UNL1       -0.0000
     23 C         -26.0403   -0.2871   25.4094 C.3     1  UNL1        0.0270
@<TRIPOS>BOND
     1     2     7    1
     2     7     8    1
     3     7     9    1
     4     9    10    2
     5    10    11    1
     6    12    15    1
     7     8    18    2
     8    18    19    1
     9    19    20    2
    10    18    21    1
    11    20    22    1
    12    21    22    2
    13     8    23    1
    14     1     2   ar
    15     2     3   ar
    16     3     4   ar
    17     4     6   ar
    18     6     5   ar
    19     5     1   ar
    20    11    12   ar
    21    12    17   ar
    22    17    16   ar
    23    16    14   ar
    24    14    13   ar
    25    13    11   ar
