@<TRIPOS>MOLECULE
No_3027-gen_results/8p0m/2024-11-26-14-13-15/
 10 10 0 0 0
SMALL
GASTEIGER

@<TRIPOS>ATOM
      1 F         -28.0727   -1.2542   28.5316 F       1  UNL1       -0.1659
      2 C         -28.2662   -0.4214   29.1931 C.3     1  UNL1        0.4186
      3 F         -27.4413   -0.2944   30.1102 F       1  UNL1       -0.1659
      4 C         -28.3588    0.8955   28.4382 C.ar    1  UNL1        0.0714
      5 C         -27.9207    1.8092   28.7554 C.ar    1  UNL1        0.0039
      6 C         -27.9705    3.1348   28.0798 C.ar    1  UNL1       -0.0001
      7 C         -28.6617    3.1239   26.8263 C.ar    1  UNL1       -0.0000
      8 C         -29.2355    1.9311   26.3989 C.ar    1  UNL1       -0.0001
      9 C         -29.0988    0.7815   27.1553 C.ar    1  UNL1        0.0039
     10 F         -29.4798   -0.6228   29.8316 F       1  UNL1       -0.1659
@<TRIPOS>BOND
     1     1     2    1
     2     2     3    1
     3     2     4    1
     4     2    10    1
     5     4     5   ar
     6     5     6   ar
     7     6     7   ar
     8     7     8   ar
     9     8     9   ar
    10     9     4   ar
