@<TRIPOS>MOLECULE
No_3029-gen_results/8p0m/2024-11-26-14-13-15/
 13 14 0 0 0
SMALL
GASTEIGER

@<TRIPOS>ATOM
      1 C         -28.0162   -0.8135   28.8779 C.ar    1  UNL1        0.0988
      2 C         -27.0636   -0.1190   28.6079 C.ar    1  UNL1        0.0192
      3 C         -25.7923   -0.4302   29.0761 C.ar    1  UNL1        0.0032
      4 C         -24.5456    0.3494   28.8225 C.ar    1  UNL1        0.0047
      5 C         -24.6586    1.4196   27.8878 C.ar    1  UNL1        0.0567
      6 C         -25.9471    1.6811   27.3792 C.ar    1  UNL1        0.0047
      7 C         -27.0439    0.9739   27.6871 C.ar    1  UNL1        0.0017
      8 N         -27.9517   -1.7518   29.9375 N.ar    1  UNL1       -0.2423
      9 C         -26.7159   -2.1983   30.3723 C.ar    1  UNL1        0.0989
     10 C         -25.5700   -1.4970   30.0389 C.ar    1  UNL1        0.0207
     11 C         -23.6255    2.3798   27.6001 C.2     1  UNL1        0.2842
     12 N         -22.4439    2.1498   28.1582 N.am    1  UNL1       -0.0837
     13 O         -23.7680    3.2635   26.7672 O.2     1  UNL1       -0.2667
@<TRIPOS>BOND
     1     5    11    1
     2    11    12   am
     3    11    13    2
     4     3     4   ar
     5     4     5   ar
     6     5     6   ar
     7     6     7   ar
     8     7     2   ar
     9     1     2   ar
    10     2     3   ar
    11     3    10   ar
    12    10     9   ar
    13     9     8   ar
    14     8     1   ar
