@<TRIPOS>MOLECULE
No_303-gen_results/8p0m/2024-11-26-14-13-15/
 22 22 0 0 0
SMALL
GASTEIGER

@<TRIPOS>ATOM
      1 C         -28.0162   -0.8135   28.8779 C.ar    1  UNL1        0.0000
      2 C         -28.4690   -0.7850   29.8287 C.ar    1  UNL1        0.0000
      3 C         -27.1356    0.2359   28.5352 C.ar    1  UNL1        0.0015
      4 C         -26.8745    1.2825   29.3982 C.ar    1  UNL1        0.0000
      5 C         -28.3613    0.1987   30.9244 C.ar    1  UNL1        0.0000
      6 C         -27.5277    1.2234   30.6356 C.ar    1  UNL1        0.0000
      7 C         -26.3987    0.2949   27.2279 C.2     1  UNL1        0.0188
      8 C         -25.0392    0.2356   27.3538 C.2     1  UNL1        0.0035
      9 C         -24.2585    0.8274   26.2566 C.2     1  UNL1        0.0252
     10 C         -24.1535    1.8651   26.0705 C.2     1  UNL1        0.1176
     11 C         -23.5735    2.7448   26.3339 C.3     1  UNL1        0.0565
     12 C         -23.7672    3.3381   27.4465 C.3     1  UNL1        0.0075
     13 C         -27.1176    0.2809   26.0600 C.2     1  UNL1        0.0931
     14 N         -27.2148    0.9941   25.3447 N.2     1  UNL1       -0.2676
     15 F         -24.5632    2.0402   24.6616 F       1  UNL1       -0.2089
     16 C         -27.5600    2.3061   25.6424 C.3     1  UNL1        0.1420
     17 C         -28.9494    2.6091   25.9600 C.3     1  UNL1        0.1085
     18 CL        -30.0653    1.8178   25.5783 Cl      1  UNL1       -0.1125
     19 C         -29.0812    3.8475   26.8265 C.3     1  UNL1        0.0440
     20 C         -29.8733    3.9305   27.6784 C.2     1  UNL1       -0.0294
     21 C         -29.9787    5.0561   28.5548 C.2     1  UNL1       -0.0303
     22 C         -29.2425    6.1826   28.2270 C.3     1  UNL1        0.0303
@<TRIPOS>BOND
     1     3     7    1
     2     7     8    2
     3     8     9    1
     4     9    10    2
     5    10    11    1
     6    11    12    1
     7     7    13    1
     8    13    14    2
     9    10    15    1
    10    14    16    1
    11    16    17    1
    12    17    18    1
    13    17    19    1
    14    19    20    1
    15    20    21    2
    16    21    22    1
    17     1     2   ar
    18     2     5   ar
    19     5     6   ar
    20     6     4   ar
    21     4     3   ar
    22     3     1   ar
