@<TRIPOS>MOLECULE
No_3030-gen_results/8p0m/2024-11-26-14-13-15/
 20 22 0 0 0
SMALL
GASTEIGER

@<TRIPOS>ATOM
      1 O         -28.1229   -1.3353   28.4874 O.2     1  UNL1       -0.2960
      2 C         -27.0637   -0.8242   28.8687 C.2     1  UNL1        0.1520
      3 C         -25.9464   -1.0396   28.8492 C.3     1  UNL1        0.0804
      4 C         -24.7602   -0.1562   29.1644 C.3     1  UNL1        0.0653
      5 C         -25.0917    1.0791   29.6490 C.3     1  UNL1        0.0169
      6 C         -26.4090    1.4383   29.7067 C.3     1  UNL1        0.0091
      7 C         -27.3694    0.6586   29.4148 C.3     1  UNL1        0.0646
      8 N         -23.4556   -0.5448   29.1072 N.3     1  UNL1       -0.2662
      9 C         -22.4655    0.2732   28.6269 C.3     1  UNL1        0.1361
     10 C         -21.1197   -0.2789   28.7008 C.3     1  UNL1        0.1125
     11 C         -23.0512   -1.8119   29.4041 C.3     1  UNL1        0.0914
     12 C         -22.6300    1.5776   28.0852 C.ar    1  UNL1        0.1781
     13 N         -21.4987    2.1142   27.4789 N.ar    1  UNL1       -0.1301
     14 N         -20.9588   -1.5068   29.1077 N.3     1  UNL1       -0.2147
     15 C         -21.9248   -2.2328   29.5120 C.3     1  UNL1        0.1061
     16 N         -23.7810    2.1280   27.8620 N.ar    1  UNL1       -0.2070
     17 C         -23.3946    3.3061   27.0289 C.ar    1  UNL1        0.1850
     18 N         -22.1852    3.1098   26.6960 N.ar    1  UNL1       -0.1273
     19 C         -24.4152    4.1601   26.5019 C.2     1  UNL1        0.0406
     20 C         -25.5065    4.1053   26.8790 C.2     1  UNL1        0.0033
@<TRIPOS>BOND
     1     1     2    2
     2     2     3    1
     3     3     4    1
     4     4     5    1
     5     5     6    1
     6     2     7    1
     7     4     8    1
     8     8     9    1
     9     8    11    1
    10     9    12    1
    11    12    13   ar
    12    10    14    1
    13    12    16   ar
    14    16    17   ar
    15    13    18   ar
    16    17    18   ar
    17    17    19    1
    18    19    20    2
    19     9    10    1
    20    14    15    1
    21    15    11    1
    22     6     7    1
