@<TRIPOS>MOLECULE
No_3031-gen_results/8p0m/2024-11-26-14-13-15/
 29 32 0 0 0
SMALL
GASTEIGER

@<TRIPOS>ATOM
      1 O         -28.1229   -1.3353   28.4874 O.2     1  UNL1       -0.2730
      2 C         -27.4806   -0.4044   28.7094 C.2     1  UNL1        0.2462
      3 C         -27.1904    0.2460   29.5268 C.3     1  UNL1        0.1005
      4 N         -26.6021   -0.1576   27.5515 N.am    1  UNL1       -0.1902
      5 C         -25.6421    0.9031   27.5822 C.3     1  UNL1        0.1556
      6 C         -25.5003    1.6142   28.7368 C.3     1  UNL1        0.0364
      7 C         -26.2553    1.3158   29.8133 C.3     1  UNL1        0.0167
      8 N         -24.8953    1.1477   26.4948 N.3     1  UNL1       -0.2416
      9 C         -23.8683    1.5969   26.4352 C.3     1  UNL1        0.1522
     10 C         -23.3775    2.3806   27.6513 C.3     1  UNL1        0.0358
     11 C         -24.2478    2.3922   28.7084 C.3     1  UNL1        0.0061
     12 C         -28.1627    0.2158   30.8205 C.ar    1  UNL1       -0.0138
     13 C         -29.1164   -0.1084   30.8811 C.ar    1  UNL1       -0.0041
     14 C         -30.0024   -0.1986   32.0958 C.ar    1  UNL1       -0.0039
     15 C         -29.3947    0.2399   33.2814 C.ar    1  UNL1       -0.0144
     16 C         -28.0937    0.6445   33.2704 C.ar    1  UNL1       -0.0039
     17 C         -27.3946    0.7118   32.1073 C.ar    1  UNL1       -0.0041
     18 N         -23.0622    1.9117   25.4113 N.3     1  UNL1       -0.1150
     19 C         -25.2995    0.3575   25.2884 C.3     1  UNL1        0.0922
     20 C         -30.1949    0.1841   34.5411 C.3     1  UNL1        0.0660
     21 C         -30.1039    1.2313   35.3211 C.ar    1  UNL1       -0.0143
     22 C         -30.1024    0.9289   36.7493 C.ar    1  UNL1       -0.0036
     23 C         -29.8538    2.0064   37.6905 C.ar    1  UNL1       -0.0003
     24 C         -29.6551    3.3103   37.1703 C.ar    1  UNL1       -0.0000
     25 C         -29.6113    3.5493   35.8279 C.ar    1  UNL1       -0.0003
     26 C         -29.7654    2.5099   34.9116 C.ar    1  UNL1       -0.0036
     27 C         -31.0345   -0.9015   34.7307 C.2     1  UNL1       -0.0222
     28 C         -32.3374   -0.8539   34.6397 C.2     1  UNL1       -0.0297
     29 C         -33.1521   -1.9648   34.8919 C.3     1  UNL1        0.0304
@<TRIPOS>BOND
     1     1     2    2
     2     2     3    1
     3     2     4   am
     4     4     5    1
     5     5     6    1
     6     5     8    1
     7     8     9    1
     8     9    10    1
     9     6    11    1
    10     3    12    1
    11     9    18    1
    12     8    19    1
    13    15    20    1
    14    20    21    1
    15    20    27    1
    16    27    28    2
    17    28    29    1
    18    11    10    1
    19     3     7    1
    20     7     6    1
    21    12    13   ar
    22    13    14   ar
    23    14    15   ar
    24    15    16   ar
    25    16    17   ar
    26    17    12   ar
    27    21    22   ar
    28    22    23   ar
    29    23    24   ar
    30    24    25   ar
    31    25    26   ar
    32    26    21   ar
