@<TRIPOS>MOLECULE
No_3032-gen_results/8p0m/2024-11-26-14-13-15/
 10 10 0 0 0
SMALL
GASTEIGER

@<TRIPOS>ATOM
      1 C         -28.0162   -0.8135   28.8779 C.ar    1  UNL1        0.0770
      2 C         -28.4690   -0.7850   29.8287 C.2     1  UNL1        0.0142
      3 N         -28.3026    0.2475   28.0344 N.ar    1  UNL1       -0.2442
      4 C         -27.3575    0.7612   27.1787 C.ar    1  UNL1        0.0988
      5 C         -26.0248    0.3858   27.3983 C.ar    1  UNL1        0.0204
      6 C         -25.6605   -0.5737   28.3448 C.ar    1  UNL1       -0.0012
      7 C         -26.5862   -0.9963   29.1562 C.ar    1  UNL1       -0.0042
      8 C         -28.2604   -1.8065   30.9538 C.2     1  UNL1       -0.0243
      9 C         -29.2825   -2.0967   31.9407 C.3     1  UNL1        0.0307
     10 C         -26.1795   -1.8857   30.1732 C.3     1  UNL1        0.0326
@<TRIPOS>BOND
     1     1     2    1
     2     2     8    2
     3     8     9    1
     4     7    10    1
     5     1     3   ar
     6     3     4   ar
     7     4     5   ar
     8     5     6   ar
     9     6     7   ar
    10     7     1   ar
