@<TRIPOS>MOLECULE
No_3033-gen_results/8p0m/2024-11-26-14-13-15/
 35 38 0 0 0
SMALL
GASTEIGER

@<TRIPOS>ATOM
      1 C         -28.0162   -0.8135   28.8779 C.ar    1  UNL1        0.0009
      2 C         -28.4690   -0.7850   29.8287 C.ar    1  UNL1        0.0114
      3 C         -27.1356    0.2359   28.5352 C.ar    1  UNL1        0.0001
      4 C         -26.8745    1.2825   29.3982 C.ar    1  UNL1        0.0008
      5 C         -28.3613    0.1987   30.9244 C.ar    1  UNL1        0.0576
      6 C         -27.5277    1.2234   30.6356 C.ar    1  UNL1        0.0108
      7 C         -26.3725    0.5103   27.2588 C.ar    1  UNL1        0.0000
      8 C         -26.0873    1.4542   26.7711 C.ar    1  UNL1        0.0000
      9 C         -25.2440    1.5779   25.5962 C.ar    1  UNL1        0.0000
     10 C         -25.0152    0.3662   24.9164 C.ar    1  UNL1        0.0000
     11 C         -25.5392   -0.7790   25.4233 C.ar    1  UNL1        0.0000
     12 C         -26.1274   -0.8121   26.5798 C.ar    1  UNL1        0.0000
     13 C         -27.3171    2.3598   31.6182 C.ar    1  UNL1        0.0072
     14 C         -27.5622    3.5457   31.4659 C.ar    1  UNL1        0.0800
     15 C         -27.1923    4.5937   32.4109 C.ar    1  UNL1        0.0130
     16 C         -26.5476    4.2160   33.5749 C.ar    1  UNL1        0.0762
     17 C         -26.3798    2.1858   32.8291 C.ar    1  UNL1        0.0004
     18 C         -26.0754    3.0542   33.7463 C.ar    1  UNL1        0.0065
     19 C         -25.8665    0.7163   33.0130 C.ar    1  UNL1        0.0000
     20 C         -26.1219    0.0325   34.0053 C.ar    1  UNL1        0.0000
     21 C         -25.1306    0.1627   31.8836 C.ar    1  UNL1        0.0000
     22 C         -24.5629   -1.1152   32.0227 C.ar    1  UNL1        0.0000
     23 C         -25.4792   -1.2111   34.2450 C.ar    1  UNL1        0.0000
     24 C         -24.7587   -1.7270   33.2222 C.ar    1  UNL1        0.0000
     25 CL        -29.1434    0.0609   32.4716 Cl      1  UNL1       -0.0822
     26 C         -28.3990    4.0630   30.3209 C.2     1  UNL1        0.3878
     27 O         -27.8130    4.6530   29.4195 O.co2   1  UNL1       -0.2406
     28 O         -29.6306    3.7206   30.2993 O.co2   1  UNL1       -0.2406
     29 C         -26.1895    5.3676   34.5788 C.2     1  UNL1        0.3458
     30 O         -26.1348    5.5695   35.5572 O.2     1  UNL1       -0.2445
     31 O         -25.9688    6.6753   33.7447 O.3     1  UNL1       -0.4179
     32 C         -26.5193    7.1917   33.0640 C.2     1  UNL1        0.1831
     33 C         -27.4002    8.0429   33.4083 C.2     1  UNL1        0.0408
     34 C         -27.5009    8.4425   34.7195 C.2     1  UNL1        0.0032
     35 C         -28.1297    8.9414   35.3650 C.2     1  UNL1        0.0001
@<TRIPOS>BOND
     1     3     7    1
     2     6    13    1
     3    17    19    1
     4     5    25    1
     5    14    26    1
     6    26    27   ar
     7    26    28   ar
     8    16    29    1
     9    29    30    2
    10    29    31    1
    11    31    32    1
    12    32    33    2
    13    33    34    1
    14    34    35    2
    15    19    20   ar
    16    20    23   ar
    17    23    24   ar
    18    24    22   ar
    19    22    21   ar
    20    21    19   ar
    21    13    14   ar
    22    14    15   ar
    23    15    16   ar
    24    16    18   ar
    25    18    17   ar
    26    17    13   ar
    27     1     2   ar
    28     2     5   ar
    29     5     6   ar
    30     6     4   ar
    31     4     3   ar
    32     3     1   ar
    33     7     8   ar
    34     8     9   ar
    35     9    10   ar
    36    10    11   ar
    37    11    12   ar
    38    12     7   ar
