@<TRIPOS>MOLECULE
No_3035-gen_results/8p0m/2024-11-26-14-13-15/
 10 10 0 0 0
SMALL
GASTEIGER

@<TRIPOS>ATOM
      1 N         -28.0544   -1.0498   28.7246 N.2     1  UNL1       -0.1881
      2 C         -27.7460   -0.0733   29.0098 C.3     1  UNL1        0.1649
      3 C         -27.1737    0.7565   28.1070 C.ar    1  UNL1        0.0029
      4 C         -27.3702    0.6013   26.8571 C.ar    1  UNL1       -0.0023
      5 C         -26.2615    0.5988   25.9991 C.ar    1  UNL1       -0.0003
      6 C         -24.9893    1.0562   26.4194 C.ar    1  UNL1       -0.0000
      7 C         -24.8052    1.4679   27.7143 C.ar    1  UNL1       -0.0003
      8 C         -25.8567    1.1927   28.6204 C.ar    1  UNL1       -0.0023
      9 C         -28.6212   -1.9795   29.7886 C.1     1  UNL1        0.2356
     10 O         -28.7866   -3.1644   29.6205 O.2     1  UNL1       -0.2102
@<TRIPOS>BOND
     1     1     2    1
     2     2     3    1
     3     1     9    2
     4     9    10    2
     5     3     4   ar
     6     4     5   ar
     7     5     6   ar
     8     6     7   ar
     9     7     8   ar
    10     8     3   ar
