@<TRIPOS>MOLECULE
No_3036-gen_results/8p0m/2024-11-26-14-13-15/
 35 37 0 0 0
SMALL
GASTEIGER

@<TRIPOS>ATOM
      1 C         -28.0162   -0.8135   28.8779 C.ar    1  UNL1        0.0025
      2 C         -28.4690   -0.7850   29.8287 C.ar    1  UNL1        0.0757
      3 C         -26.5042   -0.7777   28.8766 C.ar    1  UNL1       -0.0176
      4 C         -25.6540   -0.6597   27.7191 C.3     1  UNL1        0.0535
      5 C         -27.9180   -0.9374   31.1824 C.ar    1  UNL1        0.0064
      6 C         -26.5423   -0.9399   31.2606 C.ar    1  UNL1       -0.0001
      7 C         -25.7832   -0.8935   30.1201 C.ar    1  UNL1       -0.0039
      8 C         -25.2204    0.6866   27.3939 C.ar    1  UNL1       -0.0072
      9 C         -25.3030    1.0787   26.0731 C.ar    1  UNL1        0.0540
     10 C         -24.7297    2.3383   25.6867 C.ar    1  UNL1        0.0111
     11 C         -24.0919    3.1193   26.6980 C.ar    1  UNL1        0.0008
     12 C         -24.4906    1.5258   28.2612 C.ar    1  UNL1       -0.0031
     13 C         -23.9466    2.6799   27.9003 C.ar    1  UNL1       -0.0003
     14 C         -30.0403   -0.8504   30.0239 C.2     1  UNL1        0.3457
     15 O         -30.6681   -1.7723   30.2814 O.2     1  UNL1       -0.2445
     16 O         -30.6365    0.3570   29.9965 O.3     1  UNL1       -0.4209
     17 CL        -26.0145    0.2480   24.8635 Cl      1  UNL1       -0.0826
     18 C         -31.4526    0.7761   29.3324 C.ar    1  UNL1        0.1540
     19 C         -32.5485    0.5443   29.0414 C.ar    1  UNL1        0.0494
     20 C         -30.9442    2.0131   28.4446 C.ar    1  UNL1        0.0902
     21 C         -31.6790    2.6066   27.4519 C.ar    1  UNL1        0.0151
     22 C         -33.4838    1.0690   28.0921 C.ar    1  UNL1        0.0671
     23 C         -33.0042    2.1761   27.3640 C.ar    1  UNL1        0.0907
     24 C         -33.9095    2.8119   26.3831 C.2     1  UNL1        0.3886
     25 O         -34.4657    3.8176   26.6553 O.co2   1  UNL1       -0.2405
     26 O         -33.9061    2.2089   25.2289 O.co2   1  UNL1       -0.2405
     27 CL        -35.0238    0.5170   27.9188 Cl      1  UNL1       -0.0819
     28 C         -29.4981    2.4891   28.6958 C.2     1  UNL1        0.2717
     29 O         -28.6853    2.2297   27.8130 O.2     1  UNL1       -0.2679
     30 N         -29.2419    3.1151   29.8526 N.am    1  UNL1       -0.1797
     31 C         -27.9092    3.5519   30.2255 C.2     1  UNL1        0.0517
     32 C         -27.2707    4.2714   29.6406 C.2     1  UNL1        0.0122
     33 C         -27.1400    5.5046   29.9579 C.2     1  UNL1        0.0010
     34 C         -26.7514    5.8914   31.2961 C.2     1  UNL1        0.0000
     35 C         -27.4856    2.7786   31.4874 C.3     1  UNL1        0.0493
@<TRIPOS>BOND
     1     3     4    1
     2     4     8    1
     3     2    14    1
     4    14    15    2
     5    14    16    1
     6     9    17    1
     7    16    18    1
     8    23    24    1
     9    24    25   ar
    10    24    26   ar
    11    22    27    1
    12    20    28    1
    13    28    29    2
    14    28    30   am
    15    30    31    1
    16    31    32    2
    17    32    33    1
    18    33    34    2
    19    31    35    1
    20    18    19   ar
    21    19    22   ar
    22    22    23   ar
    23    23    21   ar
    24    21    20   ar
    25    20    18   ar
    26     1     2   ar
    27     2     5   ar
    28     5     6   ar
    29     6     7   ar
    30     7     3   ar
    31     3     1   ar
    32     8     9   ar
    33     9    10   ar
    34    10    11   ar
    35    11    13   ar
    36    13    12   ar
    37    12     8   ar
