@<TRIPOS>MOLECULE
No_3037-gen_results/8p0m/2024-11-26-14-13-15/
 34 36 0 0 0
SMALL
GASTEIGER

@<TRIPOS>ATOM
      1 C         -28.0162   -0.8135   28.8779 C.ar    1  UNL1        0.0438
      2 C         -28.4690   -0.7850   29.8287 C.ar    1  UNL1        0.1400
      3 C         -27.0871    0.2903   28.6377 C.ar    1  UNL1        0.0438
      4 C         -26.8317    1.2487   29.5869 C.ar    1  UNL1        0.0824
      5 C         -28.3914    0.0801   31.0065 C.ar    1  UNL1        0.0372
      6 C         -27.4940    1.1521   30.7841 C.ar    1  UNL1        0.0101
      7 BR        -26.1256    0.4052   27.0167 Br      1  UNL1       -0.0487
      8 C         -25.9021    2.3595   29.3644 C.2     1  UNL1        0.3462
      9 O         -26.2487    3.3991   29.5984 O.2     1  UNL1       -0.2445
     10 O         -24.6591    2.0261   28.9748 O.3     1  UNL1       -0.4214
     11 C         -23.7792    1.4417   29.8377 C.ar    1  UNL1        0.1444
     12 C         -22.6344    0.7609   29.2066 C.ar    1  UNL1        0.0128
     13 C         -22.4025   -0.5805   29.6917 C.ar    1  UNL1       -0.0016
     14 C         -23.3747   -1.0178   30.4918 C.ar    1  UNL1       -0.0044
     15 C         -24.0204   -0.2107   31.3751 C.ar    1  UNL1       -0.0188
     16 C         -23.9271    1.2878   31.1561 C.ar    1  UNL1        0.0330
     17 C         -22.0870    1.2561   27.9843 C.3     1  UNL1        0.0342
     18 C         -24.5834   -0.6300   32.6937 C.3     1  UNL1        0.0311
     19 O         -29.4174   -1.8817   30.1286 O.3     1  UNL1       -0.4668
     20 C         -29.0263   -3.1160   30.5866 C.3     1  UNL1        0.2520
     21 C         -27.8261   -3.3691   30.9300 C.2     1  UNL1        0.2553
     22 C         -30.0892   -4.0781   30.5229 C.ar    1  UNL1        0.0251
     23 O         -27.4608   -4.7193   30.9849 O.2     1  UNL1       -0.2839
     24 C         -31.0791   -3.9925   29.6259 C.ar    1  UNL1       -0.0004
     25 C         -31.8982   -5.1658   29.3961 C.ar    1  UNL1       -0.0003
     26 C         -31.7250   -6.2922   30.2387 C.ar    1  UNL1        0.0065
     27 C         -30.7192   -6.3538   31.1671 C.ar    1  UNL1        0.0796
     28 C         -29.8367   -5.2760   31.3374 C.ar    1  UNL1        0.0062
     29 C         -30.5527   -7.5605   31.9974 C.2     1  UNL1        0.3877
     30 O         -30.5970   -8.7118   31.5076 O.co2   1  UNL1       -0.2406
     31 O         -30.1190   -7.4167   33.2201 O.co2   1  UNL1       -0.2406
     32 C         -32.9413   -5.0743   28.4335 C.2     1  UNL1       -0.0046
     33 C         -32.9228   -5.0351   27.4244 C.2     1  UNL1       -0.0258
     34 C         -33.9884   -4.9066   26.3794 C.3     1  UNL1        0.0307
@<TRIPOS>BOND
     1     3     7    1
     2     4     8    1
     3     8     9    2
     4     8    10    1
     5    10    11    1
     6    12    17    1
     7    15    18    1
     8     2    19    1
     9    19    20    1
    10    20    21    1
    11    20    22    1
    12    21    23    2
    13    27    29    1
    14    29    30   ar
    15    29    31   ar
    16    25    32    1
    17    32    33    2
    18    33    34    1
    19    11    12   ar
    20    12    13   ar
    21    13    14   ar
    22    14    15   ar
    23    15    16   ar
    24    16    11   ar
    25    22    24   ar
    26    24    25   ar
    27    25    26   ar
    28    26    27   ar
    29    27    28   ar
    30    28    22   ar
    31     1     2   ar
    32     2     5   ar
    33     5     6   ar
    34     6     4   ar
    35     4     3   ar
    36     3     1   ar
