@<TRIPOS>MOLECULE
No_3039-gen_results/8p0m/2024-11-26-14-13-15/
 11 12 0 0 0
SMALL
GASTEIGER

@<TRIPOS>ATOM
      1 C         -28.0162   -0.8135   28.8779 C.ar    1  UNL1        0.0000
      2 C         -27.0636   -0.1189   28.6079 C.ar    1  UNL1        0.0001
      3 C         -25.7923   -0.4302   29.0761 C.ar    1  UNL1        0.0022
      4 C         -25.5756   -1.5654   29.9363 C.ar    1  UNL1        0.0001
      5 C         -26.7354   -2.3004   30.2173 C.ar    1  UNL1        0.0000
      6 C         -27.9184   -1.9537   29.7629 C.ar    1  UNL1        0.0000
      7 C         -27.1057    1.1023   27.7593 C.ar    1  UNL1        0.0023
      8 C         -26.1219    1.4820   27.0232 C.ar    1  UNL1        0.0296
      9 C         -24.7142    1.1299   27.4889 C.ar    1  UNL1        0.1401
     10 C         -24.5718    0.0966   28.4066 C.ar    1  UNL1        0.0296
     11 F         -23.6686    1.7020   26.9491 F       1  UNL1       -0.2042
@<TRIPOS>BOND
     1     9    11    1
     2     1     2   ar
     3     3     4   ar
     4     4     5   ar
     5     5     6   ar
     6     6     1   ar
     7     2     3   ar
     8     3    10   ar
     9    10     9   ar
    10     9     8   ar
    11     8     7   ar
    12     7     2   ar
