@<TRIPOS>MOLECULE
No_304-gen_results/8p0m/2024-11-26-14-13-15/
 16 17 0 0 0
SMALL
GASTEIGER

@<TRIPOS>ATOM
      1 C         -28.0162   -0.8135   28.8779 C.ar    1  UNL1        0.0275
      2 C         -27.0636   -0.1189   28.6079 C.ar    1  UNL1        0.0022
      3 C         -26.8756    1.1325   28.9134 C.ar    1  UNL1        0.0002
      4 C         -25.6883    1.9515   28.5672 C.ar    1  UNL1        0.0046
      5 C         -24.6394    1.2834   27.8753 C.ar    1  UNL1        0.0567
      6 C         -23.4556    1.9996   27.5653 C.2     1  UNL1        0.2842
      7 C         -25.8432   -0.7373   27.9210 C.ar    1  UNL1        0.0002
      8 C         -24.6903   -0.0521   27.5832 C.ar    1  UNL1        0.0046
      9 N         -22.3011    1.5871   27.3680 N.am    1  UNL1       -0.0837
     10 O         -23.6362    3.3055   27.2766 O.2     1  UNL1       -0.2667
     11 C         -27.9318   -1.2276   30.3795 C.ar    1  UNL1        0.0022
     12 C         -28.8132   -1.2885   31.1651 C.ar    1  UNL1        0.0001
     13 C         -30.1272   -0.9096   30.7928 C.ar    1  UNL1        0.0023
     14 C         -30.3356   -0.6630   29.4920 C.ar    1  UNL1        0.0296
     15 C         -29.2894   -0.4614   28.6399 C.ar    1  UNL1        0.1401
     16 F         -29.5264   -0.0409   27.4230 F       1  UNL1       -0.2042
@<TRIPOS>BOND
     1     5     6    1
     2     6     9   am
     3     6    10    2
     4    15    16    1
     5     2     1    1
     6     2     3   ar
     7     3     4   ar
     8     4     5   ar
     9     5     8   ar
    10     8     7   ar
    11     7     2   ar
    12     1    11   ar
    13    11    12   ar
    14    12    13   ar
    15    13    14   ar
    16    14    15   ar
    17    15     1   ar
