@<TRIPOS>MOLECULE
No_3040-gen_results/8p0m/2024-11-26-14-13-15/
 6 5 0 0 0
SMALL
GASTEIGER

@<TRIPOS>ATOM
      1 CL        -28.1493   -0.8198   28.9079 Cl      1  UNL1       -0.0709
      2 C         -27.8339    0.4961   29.0598 C.3     1  UNL1        0.3056
      3 F         -27.8833    1.0376   30.1944 F       1  UNL1       -0.2131
      4 C         -27.4481    1.3047   27.9430 C.3     1  UNL1        0.3660
      5 F         -27.4807    0.8076   26.9405 F       1  UNL1       -0.1938
      6 F         -26.1709    1.7612   28.2381 F       1  UNL1       -0.1938
@<TRIPOS>BOND
     1     1     2    1
     2     2     3    1
     3     2     4    1
     4     4     5    1
     5     4     6    1
