@<TRIPOS>MOLECULE
No_3041-gen_results/8p0m/2024-11-26-14-13-15/
 33 36 0 0 0
SMALL
GASTEIGER

@<TRIPOS>ATOM
      1 C         -28.0162   -0.8135   28.8779 C.ar    1  UNL1        0.1071
      2 C         -27.0636   -0.1189   28.6079 C.ar    1  UNL1        0.1514
      3 C         -25.7647   -0.3897   29.0360 C.ar    1  UNL1        0.0350
      4 C         -25.5296   -1.5302   29.9014 C.ar    1  UNL1        0.0053
      5 C         -26.6577   -2.2915   30.2035 C.ar    1  UNL1        0.0300
      6 C         -27.8548   -1.9555   29.7630 C.ar    1  UNL1        0.1471
      7 C         -24.4274    0.2189   28.7748 C.ar    1  UNL1        0.0060
      8 C         -23.2556   -0.1087   29.1633 C.ar    1  UNL1        0.0003
      9 C         -22.0642    0.5997   28.8225 C.ar    1  UNL1        0.0031
     10 C         -22.0229    1.5757   27.8809 C.ar    1  UNL1        0.0369
     11 C         -24.3583    1.3838   27.8033 C.ar    1  UNL1        0.0370
     12 C         -23.2203    2.0164   27.4454 C.ar    1  UNL1        0.1387
     13 F         -28.9083   -2.7018   30.1005 F       1  UNL1       -0.2039
     14 O         -23.3010    3.0627   26.5750 O.3     1  UNL1       -0.4714
     15 C         -24.1224    3.3846   25.9376 C.3     1  UNL1        0.2525
     16 O         -27.1678    0.9639   27.7409 O.3     1  UNL1       -0.4531
     17 C         -28.4208    1.4740   27.5530 C.ar    1  UNL1        0.1493
     18 C         -28.5010    2.3980   26.7483 C.ar    1  UNL1        0.0377
     19 C         -29.7524    2.9817   26.4526 C.ar    1  UNL1        0.0031
     20 C         -30.8823    2.5370   26.9614 C.ar    1  UNL1        0.0004
     21 C         -30.7542    1.4723   27.8420 C.ar    1  UNL1        0.0073
     22 C         -29.5671    0.9665   28.1746 C.ar    1  UNL1        0.0798
     23 P         -29.3539   -0.5304   29.1371 P.3     1  UNL1        0.2117
     24 O         -30.6585   -1.2546   28.9619 O.3     1  UNL1       -0.2908
     25 O         -29.7126    0.4179   30.4597 O.3     1  UNL1       -0.1766
     26 C         -31.3895   -1.6714   29.8936 C.3     1  UNL1        0.2919
     27 C         -32.1987   -2.7720   29.3985 C.3     1  UNL1        0.3687
     28 F         -32.2697   -2.9473   28.2503 F       1  UNL1       -0.1933
     29 F         -33.4601   -2.5641   29.8752 F       1  UNL1       -0.1933
     30 N         -32.3170   -0.6619   30.4593 N.2     1  UNL1       -0.2468
     31 C         -33.5837   -1.0738   30.5578 C.2     1  UNL1        0.0350
     32 C         -34.1271   -1.2517   31.8848 C.3     1  UNL1        0.0469
     33 C         -34.4569   -0.3806   29.5663 C.3     1  UNL1        0.0469
@<TRIPOS>BOND
     1     3     7    1
     2     6    13    1
     3    12    14    1
     4    14    15    1
     5     2    16    1
     6    16    17    1
     7     1    23    1
     8    22    23    1
     9    23    24    1
    10    23    25    1
    11    24    26    1
    12    26    27    1
    13    27    28    1
    14    27    29    1
    15    26    30    1
    16    30    31    2
    17    31    32    1
    18    31    33    1
    19     7     8   ar
    20     8     9   ar
    21     9    10   ar
    22    10    12   ar
    23    12    11   ar
    24    11     7   ar
    25     1     2   ar
    26     2     3   ar
    27     3     4   ar
    28     4     5   ar
    29     5     6   ar
    30     6     1   ar
    31    17    18   ar
    32    18    19   ar
    33    19    20   ar
    34    20    21   ar
    35    21    22   ar
    36    22    17   ar
