@<TRIPOS>MOLECULE
No_3044-gen_results/8p0m/2024-11-26-14-13-15/
 26 28 0 0 0
SMALL
GASTEIGER

@<TRIPOS>ATOM
      1 C         -28.0162   -0.8135   28.8779 C.ar    1  UNL1        0.0046
      2 C         -28.4690   -0.7850   29.8287 C.ar    1  UNL1        0.0554
      3 C         -26.5042   -0.7777   28.8766 C.ar    1  UNL1        0.0001
      4 C         -25.6540   -0.6597   27.7191 C.ar    1  UNL1        0.0001
      5 C         -27.9180   -0.9374   31.1824 C.ar    1  UNL1        0.0046
      6 C         -26.5424   -0.9399   31.2606 C.ar    1  UNL1        0.0001
      7 C         -25.7832   -0.8935   30.1201 C.ar    1  UNL1        0.0001
      8 C         -24.3096   -0.3015   27.8531 C.ar    1  UNL1        0.0046
      9 C         -23.6669   -0.4595   29.0986 C.ar    1  UNL1        0.0567
     10 C         -24.3700   -0.6645   30.2027 C.ar    1  UNL1        0.0046
     11 C         -22.1946   -0.2290   29.1314 C.2     1  UNL1        0.2842
     12 N         -21.2882    0.5665   28.7716 N.am    1  UNL1       -0.0837
     13 O         -21.6347   -1.3705   29.7205 O.2     1  UNL1       -0.2667
     14 C         -30.0671   -0.8830   29.8766 C.2     1  UNL1        0.2690
     15 O         -30.6995   -1.7285   30.2619 O.2     1  UNL1       -0.2680
     16 N         -30.6125    0.3875   29.6539 N.am    1  UNL1       -0.1754
     17 C         -29.9635    1.5620   29.2972 C.ar    1  UNL1        0.0738
     18 C         -30.8094    2.5019   28.8149 C.ar    1  UNL1        0.0166
     19 C         -30.2779    3.7556   28.5780 C.ar    1  UNL1        0.0015
     20 C         -28.8859    4.0516   28.6983 C.ar    1  UNL1        0.0046
     21 C         -28.0598    2.9935   29.1682 C.ar    1  UNL1        0.0563
     22 C         -28.6301    1.7505   29.5089 C.ar    1  UNL1        0.0212
     23 C         -26.6262    3.3393   29.3737 C.2     1  UNL1        0.2649
     24 N         -25.7498    2.3472   29.3267 N.am    1  UNL1       -0.1998
     25 C         -24.3617    2.7434   29.4581 C.3     1  UNL1        0.1388
     26 O         -26.3220    4.5167   29.5417 O.2     1  UNL1       -0.2684
@<TRIPOS>BOND
     1     9    11    1
     2    11    12   am
     3    11    13    2
     4     2    14    1
     5    14    15    2
     6    14    16   am
     7    16    17    1
     8    21    23    1
     9    23    24   am
    10    24    25    1
    11    23    26    2
    12    17    18   ar
    13    18    19   ar
    14    19    20   ar
    15    20    21   ar
    16    21    22   ar
    17    22    17   ar
    18     1     2   ar
    19     2     5   ar
    20     5     6   ar
    21     6     7   ar
    22     3     1   ar
    23     3     4   ar
    24     4     8   ar
    25     8     9   ar
    26     9    10   ar
    27    10     7   ar
    28     7     3   ar
