@<TRIPOS>MOLECULE
No_3047-gen_results/8p0m/2024-11-26-14-13-15/
 17 19 0 0 0
SMALL
GASTEIGER

@<TRIPOS>ATOM
      1 C         -28.0162   -0.8135   28.8779 C.ar    1  UNL1        0.0074
      2 C         -28.4690   -0.7850   29.8287 C.ar    1  UNL1        0.0002
      3 C         -27.1356    0.2359   28.5352 C.ar    1  UNL1        0.0822
      4 C         -26.8745    1.2825   29.3982 C.ar    1  UNL1        0.0074
      5 C         -28.3613    0.1987   30.9244 C.ar    1  UNL1        0.0000
      6 C         -27.5277    1.2234   30.6356 C.ar    1  UNL1        0.0002
      7 C         -26.3987    0.2949   27.2279 C.2     1  UNL1        0.3229
      8 N         -25.1481    0.1287   27.3794 N.pl3   1  UNL1       -0.1660
      9 N         -26.9663    0.4125   26.1001 N.2     1  UNL1       -0.0603
     10 C         -25.8684    0.2839   25.2081 C.3     1  UNL1        0.3139
     11 C         -24.3048   -0.0531   28.4221 C.ar    1  UNL1        0.1389
     12 C         -24.7328    0.1196   25.9412 C.3     1  UNL1        0.2653
     13 C         -23.2929    1.0116   28.6219 C.ar    1  UNL1        0.0403
     14 C         -24.2640   -1.1990   29.1678 C.ar    1  UNL1        0.0403
     15 C         -22.3002    0.7376   29.6410 C.ar    1  UNL1        0.0035
     16 C         -23.3250   -1.3789   30.1906 C.ar    1  UNL1        0.0035
     17 C         -22.3595   -0.3756   30.4136 C.ar    1  UNL1        0.0002
@<TRIPOS>BOND
     1     3     7    1
     2     7     8    1
     3     7     9    2
     4     9    10    1
     5     8    11    1
     6     8    12    1
     7    10    12    1
     8     1     2   ar
     9     2     5   ar
    10     5     6   ar
    11     6     4   ar
    12     4     3   ar
    13     3     1   ar
    14    11    13   ar
    15    13    15   ar
    16    15    17   ar
    17    17    16   ar
    18    16    14   ar
    19    14    11   ar
