@<TRIPOS>MOLECULE
No_3048-gen_results/8p0m/2024-11-26-14-13-15/
 25 25 0 0 0
SMALL
GASTEIGER

@<TRIPOS>ATOM
      1 C         -28.0162   -0.8135   28.8779 C.ar    1  UNL1        0.0182
      2 C         -28.4690   -0.7850   29.8287 C.ar    1  UNL1        0.0806
      3 C         -26.5042   -0.7777   28.8766 C.ar    1  UNL1        0.0639
      4 C         -25.8103   -0.8531   30.1028 C.ar    1  UNL1        0.0799
      5 C         -27.9906   -0.8916   31.2257 C.ar    1  UNL1        0.0069
      6 C         -26.6042   -0.8676   31.2652 C.ar    1  UNL1        0.0074
      7 C         -30.0739   -0.8360   29.8615 C.2     1  UNL1        0.3878
      8 O         -30.6825   -0.0696   30.6918 O.co2   1  UNL1       -0.2406
      9 O         -30.6262   -1.5652   29.0172 O.co2   1  UNL1       -0.2406
     10 CL        -25.5363   -0.7204   27.4838 Cl      1  UNL1       -0.0820
     11 P         -24.0485   -0.8018   30.2254 P.3     1  UNL1        0.3293
     12 O         -23.4784    0.2538   29.5674 O.3     1  UNL1       -0.2966
     13 O         -23.7409   -0.5667   31.7099 O.3     1  UNL1       -0.1487
     14 O         -23.5677   -2.1667   29.8479 O.3     1  UNL1       -0.1487
     15 C         -22.3891    0.1184   28.7540 C.3     1  UNL1        0.1826
     16 C         -22.0567    1.3955   27.8984 C.3     1  UNL1        0.1746
     17 O         -23.0514    2.0294   27.5924 O.3     1  UNL1       -0.3507
     18 C         -23.4753    2.2096   26.2743 C.3     1  UNL1        0.1469
     19 C         -24.8105    1.7116   26.1437 C.3     1  UNL1        0.0581
     20 C         -25.8695    2.4387   26.5590 C.2     1  UNL1       -0.0235
     21 C         -27.2115    2.1248   26.1565 C.2     1  UNL1       -0.0045
     22 C         -28.3286    2.5717   26.8826 C.2     1  UNL1       -0.0003
     23 C         -29.6169    2.1832   26.5325 C.2     1  UNL1       -0.0000
     24 C         -29.7411    1.3239   25.4210 C.2     1  UNL1       -0.0000
     25 C         -28.6900    0.8629   24.7132 C.2     1  UNL1       -0.0000
@<TRIPOS>BOND
     1     2     7    1
     2     7     8   ar
     3     7     9   ar
     4     3    10    1
     5     4    11    1
     6    11    12    1
     7    11    13    1
     8    11    14    1
     9    12    15    1
    10    15    16    1
    11    16    17    1
    12    17    18    1
    13    18    19    1
    14    19    20    1
    15    20    21    2
    16    21    22    1
    17    22    23    2
    18    23    24    1
    19    24    25    2
    20     1     2   ar
    21     2     5   ar
    22     5     6   ar
    23     6     4   ar
    24     4     3   ar
    25     3     1   ar
