@<TRIPOS>MOLECULE
No_3049-gen_results/8p0m/2024-11-26-14-13-15/
 13 14 0 0 0
SMALL
GASTEIGER

@<TRIPOS>ATOM
      1 C         -28.0162   -0.8135   28.8779 C.ar    1  UNL1        0.0296
      2 C         -28.4690   -0.7850   29.8287 C.ar    1  UNL1        0.1401
      3 C         -26.5042   -0.7777   28.8766 C.ar    1  UNL1        0.0023
      4 C         -25.8103   -0.8531   30.1028 C.ar    1  UNL1        0.0001
      5 C         -27.9906   -0.8916   31.2257 C.ar    1  UNL1        0.0296
      6 C         -26.6042   -0.8676   31.2652 C.ar    1  UNL1        0.0023
      7 C         -24.3894   -0.8050   30.1639 C.ar    1  UNL1        0.0000
      8 C         -23.6350   -0.8622   29.1472 C.ar    1  UNL1        0.0000
      9 C         -22.1747   -0.6734   29.2132 C.ar    1  UNL1        0.0000
     10 C         -23.7457   -0.7709   31.4942 C.ar    1  UNL1        0.0000
     11 C         -22.2897   -0.6581   31.5825 C.ar    1  UNL1        0.0000
     12 C         -21.5754   -0.5908   30.3772 C.ar    1  UNL1        0.0000
     13 F         -29.9226   -0.8772   29.9605 F       1  UNL1       -0.2042
@<TRIPOS>BOND
     1     4     7    1
     2     2    13    1
     3     1     2   ar
     4     2     5   ar
     5     5     6   ar
     6     6     4   ar
     7     4     3   ar
     8     3     1   ar
     9     7     8   ar
    10     8     9   ar
    11     9    12   ar
    12    12    11   ar
    13    11    10   ar
    14    10     7   ar
