@<TRIPOS>MOLECULE
No_305-gen_results/8p0m/2024-11-26-14-13-15/
 24 26 0 0 0
SMALL
GASTEIGER

@<TRIPOS>ATOM
      1 C         -28.0162   -0.8135   28.8779 C.ar    1  UNL1        0.0359
      2 C         -28.4690   -0.7850   29.8287 C.ar    1  UNL1        0.0820
      3 C         -26.5455   -0.8762   28.8500 C.ar    1  UNL1        0.1367
      4 C         -25.8041   -1.0324   30.0571 C.ar    1  UNL1        0.0095
      5 C         -24.3697   -1.0998   30.0718 C.3     1  UNL1        0.0539
      6 C         -27.9902   -1.0051   31.2092 C.ar    1  UNL1        0.0064
      7 C         -26.5616   -1.1368   31.2600 C.ar    1  UNL1       -0.0015
      8 C         -23.7274    0.1713   30.0259 C.2     1  UNL1       -0.0015
      9 C         -24.0505    1.2537   30.5567 C.2     1  UNL1        0.1314
     10 C         -23.4331    2.5222   30.2587 C.2     1  UNL1        0.0320
     11 C         -22.6074    2.4539   29.1384 C.2     1  UNL1       -0.0186
     12 C         -22.7124    0.4942   28.9360 C.3     1  UNL1        0.0515
     13 F         -25.8836   -0.6620   27.7104 F       1  UNL1       -0.2045
     14 C         -30.0920   -0.7316   29.8783 C.2     1  UNL1        0.3878
     15 O         -30.6191    0.2722   30.4436 O.co2   1  UNL1       -0.2406
     16 O         -30.7148   -1.6141   29.3108 O.co2   1  UNL1       -0.2406
     17 O         -24.9038    1.3086   31.6956 O.2     1  UNL1       -0.4713
     18 C         -25.0689    2.5000   32.4038 C.3     1  UNL1        0.2320
     19 C         -26.5340    2.8666   32.5479 C.ar    1  UNL1        0.0212
     20 C         -27.4399    2.0096   32.4927 C.ar    1  UNL1       -0.0007
     21 C         -28.8274    2.4236   32.4777 C.ar    1  UNL1       -0.0002
     22 C         -29.0865    3.7320   32.7058 C.ar    1  UNL1       -0.0000
     23 C         -26.9665    4.2891   32.7937 C.ar    1  UNL1       -0.0007
     24 C         -28.1648    4.6707   32.8706 C.ar    1  UNL1       -0.0002
@<TRIPOS>BOND
     1     4     5    1
     2     5     8    1
     3     8     9    2
     4     9    10    1
     5    10    11    2
     6     8    12    1
     7    11    12    1
     8     3    13    1
     9     2    14    1
    10    14    15   ar
    11    14    16   ar
    12     9    17    1
    13    17    18    1
    14    18    19    1
    15     1     2   ar
    16     2     6   ar
    17     6     7   ar
    18     7     4   ar
    19     4     3   ar
    20     3     1   ar
    21    19    20   ar
    22    20    21   ar
    23    21    22   ar
    24    22    24   ar
    25    24    23   ar
    26    23    19   ar
