@<TRIPOS>MOLECULE
No_3052-gen_results/8p0m/2024-11-26-14-13-15/
 19 20 0 0 0
SMALL
GASTEIGER

@<TRIPOS>ATOM
      1 C         -28.0162   -0.8135   28.8779 C.ar    1  UNL1        0.0001
      2 C         -27.0636   -0.1190   28.6079 C.ar    1  UNL1        0.0044
      3 C         -27.0010    0.6913   27.4910 C.ar    1  UNL1        0.0535
      4 C         -25.8548    1.4825   27.0830 C.ar    1  UNL1        0.0084
      5 C         -24.6901    1.4526   27.8807 C.ar    1  UNL1        0.0716
      6 C         -24.7379    0.6010   29.0416 C.ar    1  UNL1        0.0039
      7 C         -25.8234   -0.1688   29.3887 C.ar    1  UNL1        0.0001
      8 C         -28.0376   -1.5350   30.2052 C.ar    1  UNL1        0.0000
      9 C         -26.8442   -1.7371   30.8935 C.ar    1  UNL1       -0.0000
     10 C         -25.7143   -0.9991   30.5312 C.ar    1  UNL1       -0.0000
     11 C         -23.5086    2.2476   27.5581 C.3     1  UNL1        0.4186
     12 F         -23.1310    2.9169   28.5238 F       1  UNL1       -0.1659
     13 F         -22.4331    1.4360   27.1454 F       1  UNL1       -0.1659
     14 F         -23.7699    3.1258   26.5858 F       1  UNL1       -0.1659
     15 C         -28.1297    0.7676   26.5482 C.2     1  UNL1        0.2491
     16 O         -29.1533    0.7736   26.8025 O.2     1  UNL1       -0.2699
     17 N         -27.7610    0.3452   25.2092 N.am    1  UNL1       -0.2726
     18 C         -26.4861    0.2490   24.7701 C.3     1  UNL1        0.1152
     19 C         -28.7632    0.2712   24.2498 C.3     1  UNL1        0.1152
@<TRIPOS>BOND
     1     5    11    1
     2    11    12    1
     3    11    13    1
     4    11    14    1
     5     3    15    1
     6    15    16    2
     7    15    17   am
     8    17    18    1
     9    17    19    1
    10     2     3   ar
    11     3     4   ar
    12     4     5   ar
    13     5     6   ar
    14     6     7   ar
    15     1     2   ar
    16     2     7   ar
    17     7    10   ar
    18    10     9   ar
    19     9     8   ar
    20     8     1   ar
