@<TRIPOS>MOLECULE
No_3053-gen_results/8p0m/2024-11-26-14-13-15/
 20 23 0 0 0
SMALL
GASTEIGER

@<TRIPOS>ATOM
      1 C         -28.0162   -0.8135   28.8779 C.ar    1  UNL1        0.0000
      2 C         -27.0636   -0.1190   28.6079 C.ar    1  UNL1        0.0000
      3 C         -25.7923   -0.4302   29.0761 C.ar    1  UNL1        0.0000
      4 C         -24.5456    0.3494   28.8225 C.ar    1  UNL1        0.0010
      5 C         -24.6586    1.4196   27.8878 C.ar    1  UNL1        0.0128
      6 C         -25.9471    1.6811   27.3792 C.ar    1  UNL1        0.0009
      7 C         -27.0439    0.9739   27.6871 C.ar    1  UNL1        0.0000
      8 C         -29.2364   -0.0611   29.2668 C.ar    1  UNL1        0.0000
      9 C         -30.3061   -0.7528   29.8072 C.ar    1  UNL1        0.0000
     10 C         -31.5322   -0.1475   29.9148 C.ar    1  UNL1        0.0000
     11 C         -31.6092    1.2362   29.6071 C.ar    1  UNL1        0.0000
     12 C         -30.5597    1.8969   29.0849 C.ar    1  UNL1        0.0000
     13 C         -29.3516    1.2625   28.8439 C.ar    1  UNL1        0.0000
     14 C         -28.1792    1.8569   28.1433 C.ar    1  UNL1        0.0000
     15 C         -23.4230    2.1127   27.4996 C.ar    1  UNL1        0.0850
     16 CL        -23.5784    3.5210   26.8173 Cl      1  UNL1       -0.0799
     17 C         -22.1180    1.6487   27.7993 C.ar    1  UNL1        0.1506
     18 F         -21.1327    2.3963   27.5607 F       1  UNL1       -0.2033
     19 C         -21.9574    0.4245   28.5112 C.ar    1  UNL1        0.0305
     20 C         -23.2280   -0.2184   29.1105 C.ar    1  UNL1        0.0024
@<TRIPOS>BOND
     1    15    16    1
     2    17    18    1
     3     2     3   ar
     4     3     4   ar
     5     5     6   ar
     6     6     7   ar
     7     8     9   ar
     8     9    10   ar
     9    10    11   ar
    10    11    12   ar
    11    12    13   ar
    12     1     2   ar
    13     2     7   ar
    14     7    14   ar
    15    14    13   ar
    16    13     8   ar
    17     8     1   ar
    18     4     5   ar
    19     5    15   ar
    20    15    17   ar
    21    17    19   ar
    22    19    20   ar
    23    20     4   ar
