@<TRIPOS>MOLECULE
No_3055-gen_results/8p0m/2024-11-26-14-13-15/
 13 13 0 0 0
SMALL
GASTEIGER

@<TRIPOS>ATOM
      1 C         -28.0162   -0.8135   28.8779 C.ar    1  UNL1       -0.0037
      2 C         -28.4690   -0.7850   29.8287 C.ar    1  UNL1       -0.0003
      3 C         -27.1356    0.2359   28.5352 C.ar    1  UNL1       -0.0100
      4 C         -26.8745    1.2825   29.3982 C.ar    1  UNL1       -0.0037
      5 C         -27.5070    1.2380   30.6295 C.ar    1  UNL1       -0.0003
      6 C         -28.3293    0.1745   30.9350 C.ar    1  UNL1       -0.0000
      7 C         -26.4077    0.3070   27.2259 C.3     1  UNL1        0.1430
      8 P         -25.4688    1.5820   26.7868 P.3     1  UNL1        0.3576
      9 O         -26.0649    2.4804   26.0414 O.2     1  UNL1       -0.2566
     10 O         -24.0371    1.3279   26.7463 O.3     1  UNL1       -0.2906
     11 O         -25.4000    2.4255   28.3367 O.3     1  UNL1       -0.2276
     12 C         -23.2529    0.9419   27.8640 C.3     1  UNL1        0.1839
     13 BR        -25.8243    2.6856   29.0383 Br      1  UNL1        0.1083
@<TRIPOS>BOND
     1     3     7    1
     2     7     8    1
     3     8     9    2
     4     8    10    1
     5     8    11    1
     6    10    12    1
     7    11    13    1
     8     1     2   ar
     9     2     6   ar
    10     6     5   ar
    11     5     4   ar
    12     4     3   ar
    13     3     1   ar
