@<TRIPOS>MOLECULE
No_3056-gen_results/8p0m/2024-11-26-14-13-15/
 15 16 0 0 0
SMALL
GASTEIGER

@<TRIPOS>ATOM
      1 C         -28.0162   -0.8135   28.8779 C.ar    1  UNL1        0.0159
      2 C         -27.0636   -0.1190   28.6079 C.ar    1  UNL1        0.0544
      3 C         -25.7923   -0.4302   29.0761 C.ar    1  UNL1        0.0046
      4 C         -25.5756   -1.5654   29.9363 C.ar    1  UNL1        0.0010
      5 C         -26.7354   -2.3004   30.2173 C.ar    1  UNL1        0.0114
      6 C         -27.9184   -1.9537   29.7629 C.ar    1  UNL1        0.0578
      7 C         -27.3243    1.0850   27.8190 C.2     1  UNL1        0.2490
      8 N         -27.6406    1.1118   26.7083 N.am    1  UNL1       -0.2761
      9 C         -27.9924   -0.0062   26.0870 C.3     1  UNL1        0.0937
     10 C         -28.3769    0.1683   24.6428 C.3     1  UNL1        0.0216
     11 C         -27.7739    2.3324   25.8882 C.3     1  UNL1        0.0937
     12 C         -28.2620    2.4463   24.6613 C.3     1  UNL1        0.0216
     13 C         -28.4671    1.2781   23.9652 C.3     1  UNL1        0.0035
     14 O         -26.8828    2.1946   28.4378 O.2     1  UNL1       -0.2699
     15 CL        -29.2957   -2.8450   30.1989 Cl      1  UNL1       -0.0822
@<TRIPOS>BOND
     1     2     7    1
     2     7     8   am
     3     8     9    1
     4     8    11    1
     5    10    13    1
     6    12    13    1
     7     7    14    2
     8     6    15    1
     9     9    10    1
    10    12    11    1
    11     1     2   ar
    12     2     3   ar
    13     3     4   ar
    14     4     5   ar
    15     5     6   ar
    16     6     1   ar
