@<TRIPOS>MOLECULE
No_3057-gen_results/8p0m/2024-11-26-14-13-15/
 13 13 0 0 0
SMALL
GASTEIGER

@<TRIPOS>ATOM
      1 C         -28.0162   -0.8135   28.8779 C.3     1  UNL1        0.4186
      2 C         -27.0636   -0.1189   28.6079 C.ar    1  UNL1        0.0714
      3 C         -27.0010    0.6913   27.4910 C.ar    1  UNL1        0.0040
      4 C         -25.8548    1.4825   27.0830 C.ar    1  UNL1        0.0046
      5 C         -24.6901    1.4526   27.8807 C.ar    1  UNL1        0.0566
      6 C         -23.4878    2.1451   27.6011 C.2     1  UNL1        0.2842
      7 C         -25.8122   -0.1656   29.4298 C.ar    1  UNL1        0.0040
      8 C         -24.6457    0.5887   29.0806 C.ar    1  UNL1        0.0046
      9 F         -27.7065   -1.9553   29.3346 F       1  UNL1       -0.1659
     10 F         -28.8415   -1.0215   27.8866 F       1  UNL1       -0.1659
     11 F         -28.7567   -0.1980   29.8745 F       1  UNL1       -0.1659
     12 N         -22.3161    1.8492   28.1511 N.am    1  UNL1       -0.0837
     13 O         -23.4830    2.9692   26.5907 O.2     1  UNL1       -0.2667
@<TRIPOS>BOND
     1     1     2    1
     2     5     6    1
     3     1     9    1
     4     1    10    1
     5     1    11    1
     6     6    12   am
     7     6    13    2
     8     2     3   ar
     9     3     4   ar
    10     4     5   ar
    11     5     8   ar
    12     8     7   ar
    13     7     2   ar
