@<TRIPOS>MOLECULE
No_3058-gen_results/8p0m/2024-11-26-14-13-15/
 15 16 0 0 0
SMALL
GASTEIGER

@<TRIPOS>ATOM
      1 C         -28.0162   -0.8135   28.8779 C.3     1  UNL1        0.0356
      2 C         -28.4690   -0.7850   29.8287 C.3     1  UNL1        0.1821
      3 C         -26.5042   -0.7777   28.8766 C.3     1  UNL1        0.0031
      4 C         -25.8305   -1.6807   29.6849 C.3     1  UNL1        0.0070
      5 C         -28.1490   -1.8854   30.9031 C.3     1  UNL1        0.1821
      6 C         -26.6460   -1.9561   31.0330 C.3     1  UNL1        0.0359
      7 O         -28.6274   -1.7308   32.1858 O.3     1  UNL1       -0.2204
      8 O         -28.3743    0.3791   30.6885 O.3     1  UNL1       -0.2204
      9 C         -24.3919   -1.3803   29.9350 C.3     1  UNL1        0.0264
     10 C         -24.0297   -0.5847   31.0024 C.ar    1  UNL1       -0.0222
     11 C         -24.8355    0.1390   31.8067 C.ar    1  UNL1       -0.0043
     12 C         -24.8042    1.6493   31.9005 C.ar    1  UNL1       -0.0003
     13 C         -23.9840    2.3224   30.9295 C.ar    1  UNL1       -0.0000
     14 C         -23.1966    1.5092   30.1091 C.ar    1  UNL1       -0.0003
     15 C         -23.1893    0.1529   30.1192 C.ar    1  UNL1       -0.0043
@<TRIPOS>BOND
     1     1     2    1
     2     1     3    1
     3     3     4    1
     4     2     5    1
     5     4     6    1
     6     5     6    1
     7     5     7    1
     8     2     8    1
     9     4     9    1
    10     9    10    1
    11    10    11   ar
    12    11    12   ar
    13    12    13   ar
    14    13    14   ar
    15    14    15   ar
    16    15    10   ar
