@<TRIPOS>MOLECULE
No_306-gen_results/8p0m/2024-11-26-14-13-15/
 24 26 0 0 0
SMALL
GASTEIGER

@<TRIPOS>ATOM
      1 C         -28.0162   -0.8135   28.8779 C.ar    1  UNL1       -0.0002
      2 C         -27.0636   -0.1189   28.6079 C.ar    1  UNL1        0.0000
      3 C         -26.9716    0.7139   27.5060 C.ar    1  UNL1       -0.0002
      4 C         -28.1053    0.7744   26.6421 C.ar    1  UNL1       -0.0007
      5 C         -29.2008    0.1044   27.0527 C.ar    1  UNL1        0.0202
      6 C         -29.2096   -0.6029   28.1853 C.ar    1  UNL1       -0.0007
      7 C         -30.3702    0.2264   26.1604 C.3     1  UNL1        0.2176
      8 CL        -30.4773    0.3993   24.5926 Cl      1  UNL1       -0.0773
      9 O         -31.5757   -0.0377   26.7857 O.3     1  UNL1       -0.3321
     10 C         -25.6991   -0.2231   29.4289 C.ar    1  UNL1        0.0007
     11 C         -24.5321   -0.1565   28.8556 C.ar    1  UNL1        0.0103
     12 C         -23.2966   -0.1420   29.5966 C.ar    1  UNL1        0.0684
     13 C         -23.3745   -0.6138   30.9080 C.ar    1  UNL1        0.0103
     14 C         -24.6187   -0.7741   31.5487 C.ar    1  UNL1        0.0007
     15 C         -25.8022   -0.6193   30.8001 C.ar    1  UNL1        0.0000
     16 C         -22.0456    0.0568   28.9381 C.1     1  UNL1        0.1004
     17 N         -21.2180    0.7862   28.5176 N.1     1  UNL1       -0.1908
     18 C         -32.5901   -0.6079   26.2507 C.3     1  UNL1        0.1704
     19 C         -32.6631   -1.9511   26.2510 C.ar    1  UNL1        0.0073
     20 C         -33.5312   -2.6455   25.5426 C.ar    1  UNL1       -0.0019
     21 C         -33.5257   -4.1144   25.5494 C.ar    1  UNL1       -0.0002
     22 C         -32.5639   -4.7889   26.3115 C.ar    1  UNL1       -0.0000
     23 C         -31.6816   -4.0645   27.0882 C.ar    1  UNL1       -0.0002
     24 C         -31.7123   -2.7172   27.0495 C.ar    1  UNL1       -0.0019
@<TRIPOS>BOND
     1     5     7    1
     2     7     8    1
     3     7     9    1
     4     2    10    1
     5    12    16    1
     6    16    17    3
     7     9    18    1
     8    18    19    1
     9     1     2   ar
    10     2     3   ar
    11     3     4   ar
    12     4     5   ar
    13     5     6   ar
    14     6     1   ar
    15    10    11   ar
    16    11    12   ar
    17    12    13   ar
    18    13    14   ar
    19    14    15   ar
    20    15    10   ar
    21    19    20   ar
    22    20    21   ar
    23    21    22   ar
    24    22    23   ar
    25    23    24   ar
    26    24    19   ar
