@<TRIPOS>MOLECULE
No_3060-gen_results/8p0m/2024-11-26-14-13-15/
 22 25 0 0 0
SMALL
GASTEIGER

@<TRIPOS>ATOM
      1 C         -28.0162   -0.8135   28.8779 C.ar    1  UNL1        0.0002
      2 C         -27.0636   -0.1190   28.6079 C.ar    1  UNL1        0.0290
      3 C         -26.9716    0.7139   27.5060 C.ar    1  UNL1        0.0657
      4 C         -28.1053    0.7744   26.6421 C.ar    1  UNL1        0.0849
      5 C         -29.2041    0.1179   27.0477 C.ar    1  UNL1        0.0697
      6 C         -29.2127   -0.6088   28.1281 C.ar    1  UNL1        0.0057
      7 N         -25.7992    1.4100   27.1551 N.pl3   1  UNL1       -0.2844
      8 C         -24.6487    1.1359   27.7450 C.ar    1  UNL1        0.0505
      9 C         -24.2636    0.1587   28.4692 C.ar    1  UNL1        0.0278
     10 C         -23.0051   -0.0889   29.0877 C.ar    1  UNL1       -0.0001
     11 C         -22.0900    0.5451   28.7419 C.ar    1  UNL1       -0.0001
     12 C         -23.4062    1.8919   27.2856 C.ar    1  UNL1        0.0146
     13 C         -22.1340    1.5913   27.8216 C.ar    1  UNL1        0.0013
     14 C         -25.6261   -0.4190   29.2646 C.3     1  UNL1        0.2080
     15 F         -25.4400   -1.2729   30.1193 F       1  UNL1       -0.2274
     16 C         -30.4329    0.2985   26.2373 C.2     1  UNL1        0.2516
     17 O         -31.4581    0.0337   26.5801 O.2     1  UNL1       -0.2698
     18 N         -30.2579    0.7120   24.9062 N.am    1  UNL1       -0.2556
     19 C         -25.8304    2.1024   25.8546 C.3     1  UNL1        0.1173
     20 C         -31.3457    0.8153   23.9600 C.3     1  UNL1        0.1169
     21 C         -29.0010    1.1129   24.2492 C.3     1  UNL1        0.2087
     22 N         -27.9840    1.3267   25.3626 N.pl3   1  UNL1       -0.2141
@<TRIPOS>BOND
     1     3     7    1
     2     7     8    1
     3     2    14    1
     4     9    14    1
     5    14    15    1
     6     5    16    1
     7    16    17    2
     8    16    18   am
     9     7    19    1
    10    18    20    1
    11    18    21    1
    12    21    22    1
    13     4    22    1
    14     1     2   ar
    15     2     3   ar
    16     3     4   ar
    17     4     5   ar
    18     5     6   ar
    19     6     1   ar
    20     8    12   ar
    21    12    13   ar
    22    13    11   ar
    23    11    10   ar
    24    10     9   ar
    25     9     8   ar
