@<TRIPOS>MOLECULE
No_3061-gen_results/8p0m/2024-11-26-14-13-15/
 15 16 0 0 0
SMALL
GASTEIGER

@<TRIPOS>ATOM
      1 C         -28.0162   -0.8135   28.8779 C.ar    1  UNL1       -0.0000
      2 C         -27.0636   -0.1189   28.6079 C.ar    1  UNL1       -0.0003
      3 C         -26.9287    1.1713   29.0083 C.ar    1  UNL1       -0.0043
      4 C         -25.7702    2.0341   28.6884 C.2     1  UNL1       -0.0258
      5 C         -24.7141    1.4431   27.9188 C.2     1  UNL1       -0.0258
      6 C         -23.5566    2.1673   27.5933 C.2     1  UNL1       -0.0046
      7 C         -29.0912   -0.2748   29.7317 C.ar    1  UNL1       -0.0000
      8 C         -29.0503    0.9872   30.1426 C.ar    1  UNL1       -0.0000
      9 C         -27.9501    1.7660   29.8118 C.ar    1  UNL1       -0.0003
     10 C         -24.9591    2.6142   29.7975 C.3     1  UNL1        0.0307
     11 C         -22.4291    1.8188   27.6842 C.2     1  UNL1       -0.0007
     12 C         -22.0659    0.5977   28.3282 C.2     1  UNL1       -0.0046
     13 C         -23.1219   -0.3680   28.5206 C.2     1  UNL1       -0.0258
     14 C         -24.7897    0.2741   26.9498 C.3     1  UNL1        0.0307
     15 C         -24.2555   -0.3419   28.2485 C.3     1  UNL1        0.0307
@<TRIPOS>BOND
     1     3     4    1
     2     4     5    2
     3     5     6    1
     4     4    10    1
     5     6    11    2
     6    11    12    1
     7    12    13    2
     8     5    14    1
     9    13    15    1
    10    14    15    1
    11     1     2   ar
    12     2     3   ar
    13     3     9   ar
    14     9     8   ar
    15     8     7   ar
    16     7     1   ar
