@<TRIPOS>MOLECULE
No_3062-gen_results/8p0m/2024-11-26-14-13-15/
 35 38 0 0 0
SMALL
GASTEIGER

@<TRIPOS>ATOM
      1 C         -28.0162   -0.8135   28.8779 C.ar    1  UNL1       -0.0044
      2 C         -27.0636   -0.1190   28.6079 C.ar    1  UNL1       -0.0256
      3 C         -26.8756    1.1325   28.9134 C.ar    1  UNL1       -0.0152
      4 C         -25.6883    1.9515   28.5672 C.3     1  UNL1        0.1320
      5 C         -24.6394    1.2834   27.8753 C.3     1  UNL1        0.1183
      6 C         -23.4556    1.9996   27.5653 C.2     1  UNL1        0.3652
      7 C         -25.8432   -0.7373   27.9210 C.3     1  UNL1        0.0266
      8 C         -24.6903   -0.0521   27.5833 C.3     1  UNL1        0.0168
      9 O         -22.7440    2.4040   28.1606 O.co2   1  UNL1       -0.2456
     10 O         -23.2839    2.0859   26.1628 O.co2   1  UNL1       -0.2456
     11 C         -28.5475   -0.5479   30.2756 C.ar    1  UNL1        0.0062
     12 C         -28.7137    0.7795   30.6377 C.ar    1  UNL1        0.0795
     13 C         -27.7181    1.6572   30.0069 C.ar    1  UNL1        0.0025
     14 C         -25.5574    3.3799   28.8831 C.2     1  UNL1        0.3257
     15 O         -24.7564    4.1101   28.5241 O.2     1  UNL1       -0.2493
     16 O         -26.7084    3.9635   29.3504 O.3     1  UNL1       -0.4207
     17 C         -29.5380    1.2104   31.6887 C.2     1  UNL1        0.3877
     18 O         -30.2722    1.9638   31.6080 O.co2   1  UNL1       -0.2406
     19 O         -29.0057    0.8485   32.8975 O.co2   1  UNL1       -0.2406
     20 C         -26.9592    5.2625   29.0310 C.ar    1  UNL1        0.1828
     21 C         -26.6564    6.0791   29.9265 C.ar    1  UNL1        0.1840
     22 O         -26.7506    5.7775   31.1462 O.3     1  UNL1       -0.4503
     23 C         -27.7932    5.8155   31.8961 C.ar    1  UNL1        0.1454
     24 C         -27.5755    6.2431   33.2565 C.ar    1  UNL1        0.0375
     25 C         -28.5235    6.0643   34.0514 C.ar    1  UNL1        0.0031
     26 C         -28.5283    4.4853   32.0267 C.ar    1  UNL1        0.0375
     27 C         -29.7189    4.4124   32.7751 C.ar    1  UNL1        0.0031
     28 C         -29.3031    4.8071   34.2043 C.ar    1  UNL1        0.0002
     29 C         -27.8569    5.4673   27.9922 C.ar    1  UNL1        0.0408
     30 C         -27.1620    7.5497   29.6818 C.ar    1  UNL1        0.0942
     31 C         -27.6984    7.8097   28.5161 C.ar    1  UNL1        0.0079
     32 C         -28.3885    6.7684   27.7862 C.ar    1  UNL1        0.0035
     33 C         -26.6612    8.6443   30.5819 C.2     1  UNL1        0.2872
     34 O         -27.3839    8.9991   31.4466 O.2     1  UNL1       -0.2666
     35 N         -25.4365    9.0753   30.4317 N.am    1  UNL1       -0.0836
@<TRIPOS>BOND
     1     3     4    1
     2     4     5    1
     3     5     6    1
     4     2     7    1
     5     5     8    1
     6     7     8    1
     7     6     9   ar
     8     6    10   ar
     9     4    14    1
    10    14    15    2
    11    14    16    1
    12    12    17    1
    13    17    18   ar
    14    17    19   ar
    15    16    20    1
    16    21    22    1
    17    22    23    1
    18    30    33    1
    19    33    34    2
    20    33    35   am
    21    23    24   ar
    22    24    25   ar
    23    25    28   ar
    24    28    27   ar
    25    27    26   ar
    26    26    23   ar
    27    20    21   ar
    28    21    30   ar
    29    30    31   ar
    30    31    32   ar
    31    32    29   ar
    32    29    20   ar
    33     1     2   ar
    34     2     3   ar
    35     3    13   ar
    36    13    12   ar
    37    12    11   ar
    38    11     1   ar
