@<TRIPOS>MOLECULE
No_3064-gen_results/8p0m/2024-11-26-14-13-15/
 27 28 0 0 0
SMALL
GASTEIGER

@<TRIPOS>ATOM
      1 C         -28.0162   -0.8135   28.8779 C.ar    1  UNL1        0.0620
      2 C         -27.0636   -0.1189   28.6079 C.ar    1  UNL1        0.0850
      3 C         -26.9716    0.7139   27.5060 C.ar    1  UNL1        0.0418
      4 C         -28.1053    0.7744   26.6421 C.ar    1  UNL1        0.1449
      5 C         -29.2008    0.1044   27.0527 C.ar    1  UNL1        0.1103
      6 C         -29.2096   -0.6029   28.1853 C.ar    1  UNL1        0.0208
      7 C         -30.3702    0.2264   26.1604 C.2     1  UNL1        0.3440
      8 O         -31.2210   -0.4630   26.3096 O.3     1  UNL1       -0.4526
      9 O         -30.5607    1.2740   25.4131 O.2     1  UNL1       -0.2448
     10 C         -25.6972   -0.2253   29.4237 C.3     1  UNL1        0.4195
     11 F         -25.5583   -1.1937   30.0916 F       1  UNL1       -0.1658
     12 F         -25.6402    0.8680   30.2961 F       1  UNL1       -0.1658
     13 F         -24.6085   -0.0024   28.6393 F       1  UNL1       -0.1658
     14 CL        -28.1549   -1.8534   30.3081 Cl      1  UNL1       -0.0823
     15 O         -27.9820    1.5687   25.6214 O.3     1  UNL1       -0.4712
     16 C         -27.1429    1.1643   24.7372 C.3     1  UNL1        0.2525
     17 C         -31.9103   -1.1510   25.2250 C.3     1  UNL1        0.1368
     18 C         -33.2505   -1.5293   25.5559 C.3     1  UNL1        0.0448
     19 C         -33.3944   -1.5530   27.0107 C.3     1  UNL1        0.0299
     20 C         -33.7126   -0.4258   27.6246 C.ar    1  UNL1       -0.0221
     21 C         -34.2930    0.6281   26.9915 C.ar    1  UNL1       -0.0043
     22 C         -34.4781    1.8926   27.6729 C.ar    1  UNL1       -0.0003
     23 C         -34.0724    1.9330   29.0501 C.ar    1  UNL1       -0.0000
     24 C         -33.4972    1.1104   29.4946 C.ar    1  UNL1       -0.0003
     25 C         -33.1928   -0.2215   28.9553 C.ar    1  UNL1       -0.0043
     26 C         -30.9698   -2.3310   24.8866 C.3     1  UNL1        0.0437
     27 C         -31.9617   -0.2088   23.9939 C.3     1  UNL1        0.0437
@<TRIPOS>BOND
     1     5     7    1
     2     7     8    1
     3     7     9    2
     4     2    10    1
     5    10    11    1
     6    10    12    1
     7    10    13    1
     8     1    14    1
     9     4    15    1
    10    15    16    1
    11     8    17    1
    12    17    18    1
    13    18    19    1
    14    17    26    1
    15    17    27    1
    16    19    20    1
    17     1     2   ar
    18     2     3   ar
    19     3     4   ar
    20     4     5   ar
    21     5     6   ar
    22     6     1   ar
    23    20    21   ar
    24    21    22   ar
    25    22    23   ar
    26    23    24   ar
    27    24    25   ar
    28    25    20   ar
