@<TRIPOS>MOLECULE
No_3065-gen_results/8p0m/2024-11-26-14-13-15/
 28 30 0 0 0
SMALL
GASTEIGER

@<TRIPOS>ATOM
      1 C         -28.0162   -0.8135   28.8779 C.ar    1  UNL1        0.0708
      2 C         -28.4690   -0.7850   29.8287 C.3     1  UNL1        0.4186
      3 C         -28.1816    0.4277   28.1134 C.ar    1  UNL1       -0.0001
      4 C         -27.4498    0.6435   26.8500 C.ar    1  UNL1       -0.0185
      5 C         -26.1815    0.0357   26.7145 C.ar    1  UNL1       -0.0082
      6 C         -25.7800   -0.9326   27.6938 C.ar    1  UNL1       -0.0222
      7 C         -24.4665   -1.4639   27.6888 C.3     1  UNL1        0.0307
      8 C         -26.6651   -1.2379   28.7939 C.ar    1  UNL1       -0.0004
      9 F         -28.4617   -2.0283   30.4760 F       1  UNL1       -0.1659
     10 F         -29.9618   -0.7283   29.7364 F       1  UNL1       -0.1659
     11 F         -28.2498    0.0296   30.8270 F       1  UNL1       -0.1659
     12 C         -23.4612   -0.6479   28.5312 C.3     1  UNL1        0.0270
     13 C         -23.0961    0.5904   28.1647 C.2     1  UNL1       -0.0395
     14 C         -22.1563    1.0832   27.8683 C.2     1  UNL1       -0.0085
     15 C         -21.9658    2.4943   27.4646 C.2     1  UNL1       -0.0049
     16 C         -23.2430    3.0646   27.2946 C.2     1  UNL1       -0.0218
     17 C         -24.2324    1.6178   27.8396 C.3     1  UNL1        0.0480
     18 C         -27.8823    1.6784   25.9763 C.3     1  UNL1        0.0483
     19 C         -28.2168    1.1966   24.7736 C.3     1  UNL1        0.0350
     20 C         -29.3417    0.4417   24.6976 C.ar    1  UNL1       -0.0215
     21 C         -29.5538   -0.5580   23.9598 C.ar    1  UNL1       -0.0042
     22 C         -30.1112   -1.8076   24.0007 C.ar    1  UNL1       -0.0003
     23 C         -31.0833   -1.8841   25.0797 C.ar    1  UNL1       -0.0000
     24 C         -31.1435   -0.7374   25.9768 C.ar    1  UNL1       -0.0003
     25 C         -30.2407    0.3194   25.8683 C.ar    1  UNL1       -0.0042
     26 C         -27.9177    3.0424   26.2850 C.2     1  UNL1       -0.0263
     27 C         -26.8988    3.6392   26.8569 C.2     1  UNL1       -0.0300
     28 C         -26.8422    5.0194   27.1958 C.3     1  UNL1        0.0304
@<TRIPOS>BOND
     1     1     2    1
     2     6     7    1
     3     2     9    1
     4     2    10    1
     5     2    11    1
     6     7    12    1
     7    12    13    1
     8    13    14    2
     9    14    15    1
    10    15    16    2
    11    13    17    1
    12    16    17    1
    13     4    18    1
    14    18    19    1
    15    19    20    1
    16    18    26    1
    17    26    27    2
    18    27    28    1
    19     1     3   ar
    20     3     4   ar
    21     4     5   ar
    22     5     6   ar
    23     6     8   ar
    24     8     1   ar
    25    20    21   ar
    26    21    22   ar
    27    22    23   ar
    28    23    24   ar
    29    24    25   ar
    30    25    20   ar
