@<TRIPOS>MOLECULE
No_3066-gen_results/8p0m/2024-11-26-14-13-15/
 18 19 0 0 0
SMALL
GASTEIGER

@<TRIPOS>ATOM
      1 C         -28.0162   -0.8135   28.8779 C.3     1  UNL1        0.1175
      2 C         -27.0636   -0.1189   28.6079 C.ar    1  UNL1       -0.0026
      3 C         -26.9287    1.1713   29.0083 C.ar    1  UNL1       -0.0029
      4 C         -25.7702    2.0341   28.6884 C.ar    1  UNL1       -0.0032
      5 C         -24.7141    1.4431   27.9188 C.ar    1  UNL1       -0.0050
      6 C         -24.8590    0.0783   27.5836 C.ar    1  UNL1       -0.0032
      7 C         -25.9647   -0.6606   27.9164 C.ar    1  UNL1       -0.0029
      8 N         -29.1701   -0.2984   28.9471 N.am    1  UNL1       -0.2027
      9 C         -30.1841   -0.8920   29.7048 C.2     1  UNL1        0.2416
     10 C         -23.5181    2.1584   27.5785 C.3     1  UNL1        0.1140
     11 N         -23.1355    2.8056   26.8607 N.3     1  UNL1       -0.2120
     12 C         -22.2944    1.6172   28.4347 C.3     1  UNL1        0.1310
     13 C         -29.8595   -2.0675   30.3683 C.3     1  UNL1        0.0869
     14 C         -28.5718   -2.5775   30.4274 C.3     1  UNL1        0.0117
     15 C         -27.6242   -1.8779   29.8489 C.3     1  UNL1        0.0267
     16 O         -31.3822   -0.5149   29.5841 O.2     1  UNL1       -0.2733
     17 C         -22.4671    2.5163   25.8273 C.3     1  UNL1        0.1078
     18 N         -22.4701    0.7334   29.4314 N.3     1  UNL1       -0.1295
@<TRIPOS>BOND
     1     1     2    1
     2     1     8    1
     3     8     9   am
     4     5    10    1
     5    10    11    1
     6    10    12    1
     7     9    13    1
     8     1    15    1
     9    14    15    1
    10     9    16    2
    11    11    17    1
    12    12    18    1
    13    14    13    1
    14     2     3   ar
    15     3     4   ar
    16     4     5   ar
    17     5     6   ar
    18     6     7   ar
    19     7     2   ar
