@<TRIPOS>MOLECULE
No_3067-gen_results/8p0m/2024-11-26-14-13-15/
 17 18 0 0 0
SMALL
GASTEIGER

@<TRIPOS>ATOM
      1 C         -28.0162   -0.8135   28.8779 C.ar    1  UNL1        0.0026
      2 C         -28.4690   -0.7850   29.8287 C.ar    1  UNL1        0.0795
      3 C         -26.5042   -0.7777   28.8766 C.ar    1  UNL1       -0.0176
      4 C         -25.8103   -0.8531   30.1028 C.ar    1  UNL1       -0.0039
      5 C         -30.0136   -0.8410   29.8508 C.2     1  UNL1        0.3877
      6 C         -26.5670   -0.8850   31.2517 C.ar    1  UNL1       -0.0001
      7 C         -27.9411   -0.9069   31.1850 C.ar    1  UNL1        0.0066
      8 O         -30.6493   -0.0573   30.6757 O.co2   1  UNL1       -0.2406
      9 O         -30.5985   -1.8622   29.3538 O.co2   1  UNL1       -0.2406
     10 C         -25.6448   -0.7150   27.6689 C.3     1  UNL1        0.0526
     11 C         -25.9238    0.3602   26.7521 C.ar    1  UNL1       -0.0181
     12 C         -24.9941    0.6795   25.8518 C.ar    1  UNL1       -0.0082
     13 C         -24.1879    1.6299   25.7163 C.ar    1  UNL1       -0.0222
     14 C         -22.8805    1.6915   25.2200 C.3     1  UNL1        0.0310
     15 C         -24.5893    2.9778   26.4250 C.ar    1  UNL1       -0.0043
     16 C         -25.5118    3.0049   27.3638 C.ar    1  UNL1       -0.0006
     17 C         -26.1912    1.6185   27.6095 C.ar    1  UNL1       -0.0040
@<TRIPOS>BOND
     1     2     5    1
     2     5     8   ar
     3     5     9   ar
     4     3    10    1
     5    10    11    1
     6    14    13    1
     7    11    12   ar
     8    12    13   ar
     9    13    15   ar
    10    15    16   ar
    11    16    17   ar
    12    17    11   ar
    13     1     2   ar
    14     2     7   ar
    15     7     6   ar
    16     6     4   ar
    17     4     3   ar
    18     3     1   ar
