@<TRIPOS>MOLECULE
No_3068-gen_results/8p0m/2024-11-26-14-13-15/
 14 15 0 0 0
SMALL
GASTEIGER

@<TRIPOS>ATOM
      1 C         -28.0162   -0.8135   28.8779 C.ar    1  UNL1       -0.0000
      2 C         -27.0636   -0.1189   28.6079 C.ar    1  UNL1       -0.0000
      3 C         -26.9287    1.1713   29.0083 C.ar    1  UNL1       -0.0001
      4 C         -27.9560    1.7411   29.7840 C.ar    1  UNL1       -0.0000
      5 C         -29.0569   -0.3271   29.7466 C.ar    1  UNL1       -0.0000
      6 C         -28.9828    0.9722   30.1516 C.ar    1  UNL1       -0.0000
      7 C         -25.8907   -0.6263   27.7857 C.ar    1  UNL1       -0.0001
      8 C         -24.5687   -0.1994   28.1996 C.ar    1  UNL1        0.0039
      9 C         -24.3831    1.1808   28.3462 C.ar    1  UNL1        0.0714
     10 C         -25.6030    1.8144   29.0598 C.ar    1  UNL1        0.0039
     11 C         -23.1198    1.7971   28.3702 C.3     1  UNL1        0.4186
     12 F         -22.0842    1.3299   28.2495 F       1  UNL1       -0.1659
     13 F         -23.2560    2.7731   27.1967 F       1  UNL1       -0.1659
     14 F         -23.0222    2.6944   29.3872 F       1  UNL1       -0.1659
@<TRIPOS>BOND
     1     9    11    1
     2    11    12    1
     3    11    13    1
     4    11    14    1
     5     1     2   ar
     6     3     4   ar
     7     4     6   ar
     8     6     5   ar
     9     5     1   ar
    10     2     3   ar
    11     3    10   ar
    12    10     9   ar
    13     9     8   ar
    14     8     7   ar
    15     7     2   ar
