@<TRIPOS>MOLECULE
No_3069-gen_results/8p0m/2024-11-26-14-13-15/
 22 23 0 0 0
SMALL
GASTEIGER

@<TRIPOS>ATOM
      1 C         -28.0162   -0.8135   28.8779 C.ar    1  UNL1        0.0134
      2 C         -27.0636   -0.1189   28.6079 C.ar    1  UNL1        0.1073
      3 C         -25.7923   -0.4302   29.0761 C.ar    1  UNL1        0.1465
      4 C         -25.5756   -1.5654   29.9363 C.ar    1  UNL1        0.0300
      5 C         -26.7354   -2.3004   30.2173 C.ar    1  UNL1        0.0069
      6 C         -27.9184   -1.9537   29.7629 C.ar    1  UNL1        0.0558
      7 C         -27.1057    1.1023   27.7593 C.2     1  UNL1        0.3899
      8 O         -26.3366    1.3955   26.9835 O.co2   1  UNL1       -0.2405
      9 O         -28.2625    1.8032   27.9135 O.co2   1  UNL1       -0.2405
     10 C         -29.0504   -2.7857   30.2222 C.2     1  UNL1        0.2716
     11 N         -28.9429   -4.0558   30.5472 N.am    1  UNL1       -0.1371
     12 O         -30.1273   -2.2281   30.5790 O.2     1  UNL1       -0.2679
     13 C         -29.9711   -4.9729   30.9034 C.2     1  UNL1        0.2716
     14 C         -30.8115   -5.2603   29.8591 C.ar    1  UNL1        0.0555
     15 C         -30.6160   -5.0358   28.6427 C.ar    1  UNL1        0.0054
     16 C         -31.3917   -5.4779   27.5381 C.ar    1  UNL1        0.0115
     17 C         -32.5160   -6.2412   27.7825 C.ar    1  UNL1        0.0577
     18 C         -32.7463   -6.6286   29.1270 C.ar    1  UNL1        0.0115
     19 C         -31.9187   -6.1975   30.1607 C.ar    1  UNL1        0.0054
     20 CL        -33.4938   -6.7427   26.5259 Cl      1  UNL1       -0.0822
     21 O         -29.9405   -5.3395   32.1236 O.2     1  UNL1       -0.2679
     22 F         -24.6727    0.2407   28.7675 F       1  UNL1       -0.2040
@<TRIPOS>BOND
     1     2     7    1
     2     7     8   ar
     3     7     9   ar
     4     6    10    1
     5    10    11   am
     6    10    12    2
     7    11    13   am
     8    13    14    1
     9    17    20    1
    10    13    21    2
    11     3    22    1
    12     1     2   ar
    13     2     3   ar
    14     3     4   ar
    15     4     5   ar
    16     5     6   ar
    17     6     1   ar
    18    14    15   ar
    19    15    16   ar
    20    16    17   ar
    21    17    18   ar
    22    18    19   ar
    23    19    14   ar
