@<TRIPOS>MOLECULE
No_307-gen_results/8p0m/2024-11-26-14-13-15/
 18 17 0 0 0
SMALL
GASTEIGER

@<TRIPOS>ATOM
      1 P         -27.9505   -0.5786   29.0402 P.3     1  UNL1        0.2555
      2 O         -27.2401    0.0613   28.4283 O.3     1  UNL1       -0.2802
      3 O         -27.2444   -1.9817   29.3768 O.3     1  UNL1       -0.1337
      4 O         -28.1843   -0.0275   30.5202 O.3     1  UNL1       -0.4353
      5 O         -29.3836   -0.9386   28.6565 O.2     1  UNL1       -0.5154
      6 C         -27.1637    1.4277   28.3029 C.3     1  UNL1        0.3167
      7 C         -26.5095    2.1488   28.9531 C.3     1  UNL1        0.2514
      8 C         -25.2565    1.7192   29.5563 C.3     1  UNL1        0.2218
      9 C         -24.7543    0.5239   29.1180 C.3     1  UNL1        0.2305
     10 C         -23.4346    0.0961   29.8581 C.3     1  UNL1        0.2629
     11 O         -27.2765    2.8801   30.0066 O.3     1  UNL1       -0.1737
     12 CL        -22.8616   -1.3233   29.4783 Cl      1  UNL1       -0.0762
     13 O         -24.2868    2.7798   29.3373 O.3     1  UNL1       -0.2173
     14 F         -28.4827    1.6952   28.0050 F       1  UNL1       -0.2007
     15 O         -24.0125    0.6772   27.8298 O.3     1  UNL1       -0.2162
     16 O         -23.8330   -0.1677   31.2756 O.3     1  UNL1       -0.2023
     17 F         -26.4934   -2.6796   29.2437 F       1  UNL1       -0.0411
     18 F         -27.0315    2.9257   31.1570 F       1  UNL1       -0.0467
@<TRIPOS>BOND
     1     1     2    1
     2     1     3    1
     3     1     4    1
     4     1     5    2
     5     2     6    1
     6     6     7    1
     7     7     8    1
     8     8     9    1
     9     9    10    1
    10     7    11    1
    11    10    12    1
    12     8    13    1
    13     6    14    1
    14     9    15    1
    15    10    16    1
    16     3    17    1
    17    11    18    1
