@<TRIPOS>MOLECULE
No_3070-gen_results/8p0m/2024-11-26-14-13-15/
 35 38 0 0 0
SMALL
GASTEIGER

@<TRIPOS>ATOM
      1 C         -28.0162   -0.8135   28.8779 C.ar    1  UNL1        0.0045
      2 C         -27.0636   -0.1189   28.6079 C.ar    1  UNL1        0.0002
      3 C         -26.8756    1.1325   28.9134 C.ar    1  UNL1        0.0027
      4 C         -27.9014    1.8066   29.6436 C.ar    1  UNL1        0.0002
      5 C         -28.9449    1.0388   30.0360 C.ar    1  UNL1        0.0045
      6 C         -29.0273   -0.2890   29.7051 C.ar    1  UNL1        0.0536
      7 C         -25.6959    1.9505   28.4764 C.ar    1  UNL1        0.0319
      8 C         -25.0886    1.8635   27.5900 C.ar    1  UNL1        0.0001
      9 C         -23.8419    2.6359   27.2476 C.ar    1  UNL1       -0.0026
     10 C         -24.6969    2.4583   29.5080 C.ar    1  UNL1        0.1391
     11 N         -23.5690    3.0087   29.3508 N.ar    1  UNL1       -0.2289
     12 C         -23.0507    3.0611   28.1530 C.ar    1  UNL1        0.0960
     13 C         -30.1476   -1.1765   30.0789 C.2     1  UNL1        0.2491
     14 O         -31.1196   -1.1573   29.5895 O.2     1  UNL1       -0.2699
     15 N         -29.8377   -2.0875   31.1379 N.am    1  UNL1       -0.2726
     16 C         -28.5713   -2.2516   31.8728 C.3     1  UNL1        0.1152
     17 C         -30.9031   -2.9781   31.6040 C.3     1  UNL1        0.1152
     18 N         -25.2358    2.5054   30.9054 N.pl3   1  UNL1       -0.2511
     19 C         -25.0863    1.2878   31.6427 C.ar    1  UNL1        0.0569
     20 C         -24.2627    0.2967   31.5715 C.ar    1  UNL1        0.0152
     21 C         -25.8246    1.3600   32.9401 C.ar    1  UNL1        0.0152
     22 C         -24.1696   -0.8011   32.3325 C.ar    1  UNL1        0.0013
     23 C         -25.7827    0.2562   33.7821 C.ar    1  UNL1        0.0013
     24 C         -24.9614   -0.7980   33.5083 C.ar    1  UNL1        0.0001
     25 C         -25.7196    3.7026   31.3484 C.ar    1  UNL1        0.0566
     26 C         -24.8966    4.4494   32.0543 C.ar    1  UNL1        0.0152
     27 C         -25.2260    5.8359   32.4873 C.ar    1  UNL1        0.0010
     28 C         -26.4131    6.3246   32.0550 C.ar    1  UNL1       -0.0039
     29 C         -27.2472    5.4902   31.2673 C.ar    1  UNL1       -0.0172
     30 C         -26.8573    4.2815   30.9012 C.ar    1  UNL1        0.0112
     31 C         -23.3475    2.5482   25.7764 C.3     1  UNL1        0.0327
     32 C         -28.5310    6.1244   30.7836 C.3     1  UNL1        0.0443
     33 C         -29.4398    6.2372   31.4928 C.2     1  UNL1       -0.0221
     34 C         -30.7130    6.8060   31.0795 C.2     1  UNL1       -0.0046
     35 C         -28.4985    6.8725   29.6371 C.3     1  UNL1        0.0094
@<TRIPOS>BOND
     1     3     7    1
     2     6    13    1
     3    13    14    2
     4    13    15   am
     5    15    16    1
     6    15    17    1
     7    10    18    1
     8    18    19    1
     9    18    25    1
    10     9    31    1
    11    29    32    1
    12    32    33    1
    13    33    34    2
    14    32    35    1
    15    19    20   ar
    16    20    22   ar
    17    22    24   ar
    18    24    23   ar
    19    23    21   ar
    20    21    19   ar
    21     1     2   ar
    22     2     3   ar
    23     3     4   ar
    24     4     5   ar
    25     5     6   ar
    26     6     1   ar
    27    25    26   ar
    28    26    27   ar
    29    27    28   ar
    30    28    29   ar
    31    29    30   ar
    32    30    25   ar
    33     7     8   ar
    34     8     9   ar
    35     9    12   ar
    36    12    11   ar
    37    11    10   ar
    38    10     7   ar
