@<TRIPOS>MOLECULE
No_3071-gen_results/8p0m/2024-11-26-14-13-15/
 10 10 0 0 0
SMALL
GASTEIGER

@<TRIPOS>ATOM
      1 C         -28.0162   -0.8135   28.8779 C.3     1  UNL1        0.1649
      2 C         -27.0636   -0.1190   28.6079 C.ar    1  UNL1        0.0029
      3 C         -26.9287    1.1713   29.0083 C.ar    1  UNL1       -0.0023
      4 C         -25.7702    2.0341   28.6884 C.ar    1  UNL1       -0.0003
      5 C         -24.7141    1.4431   27.9188 C.ar    1  UNL1       -0.0000
      6 C         -24.8590    0.0783   27.5836 C.ar    1  UNL1       -0.0003
      7 C         -25.9647   -0.6606   27.9164 C.ar    1  UNL1       -0.0023
      8 N         -28.6995   -0.6441   30.0766 N.2     1  UNL1       -0.1881
      9 C         -29.4717   -1.1161   30.6970 C.1     1  UNL1        0.2356
     10 O         -30.0027   -2.2144   30.2952 O.2     1  UNL1       -0.2102
@<TRIPOS>BOND
     1     1     2    1
     2     1     8    1
     3     8     9    2
     4     9    10    2
     5     2     3   ar
     6     3     4   ar
     7     4     5   ar
     8     5     6   ar
     9     6     7   ar
    10     7     2   ar
