@<TRIPOS>MOLECULE
No_3072-gen_results/8p0m/2024-11-26-14-13-15/
 9 9 0 0 0
SMALL
GASTEIGER

@<TRIPOS>ATOM
      1 C         -28.0162   -0.8135   28.8779 C.ar    1  UNL1       -0.0000
      2 C         -28.4690   -0.7850   29.8287 C.ar    1  UNL1       -0.0000
      3 C         -28.1960    0.3478   28.0550 C.ar    1  UNL1       -0.0003
      4 C         -27.4421    0.5100   26.7946 C.2     1  UNL1       -0.0046
      5 C         -27.8427    1.3330   25.8056 C.2     1  UNL1       -0.0258
      6 C         -29.4716    0.1210   30.3515 C.ar    1  UNL1       -0.0000
      7 C         -29.7075    1.1848   29.5963 C.ar    1  UNL1       -0.0000
      8 C         -29.0356    1.3672   28.4021 C.ar    1  UNL1       -0.0000
      9 C         -27.1530    1.4256   24.6236 C.3     1  UNL1        0.0307
@<TRIPOS>BOND
     1     3     4    1
     2     4     5    2
     3     5     9    1
     4     1     2   ar
     5     2     6   ar
     6     6     7   ar
     7     7     8   ar
     8     8     3   ar
     9     3     1   ar
