@<TRIPOS>MOLECULE
No_3073-gen_results/8p0m/2024-11-26-14-13-15/
 20 21 0 0 0
SMALL
GASTEIGER

@<TRIPOS>ATOM
      1 C         -28.0162   -0.8135   28.8779 C.ar    1  UNL1        0.0369
      2 C         -27.0636   -0.1189   28.6079 C.ar    1  UNL1        0.0031
      3 C         -25.7923   -0.4302   29.0761 C.ar    1  UNL1        0.0002
      4 C         -25.5756   -1.5654   29.9363 C.ar    1  UNL1        0.0031
      5 C         -26.7354   -2.3004   30.2173 C.ar    1  UNL1        0.0369
      6 C         -27.9184   -1.9537   29.7629 C.ar    1  UNL1        0.1397
      7 O         -29.0001   -2.7012   30.1151 O.3     1  UNL1       -0.4632
      8 C         -24.5290    0.3490   28.7998 C.ar    1  UNL1        0.0000
      9 C         -24.4808    1.2113   27.7998 C.ar    1  UNL1        0.0000
     10 C         -23.2478    1.8974   27.4951 C.ar    1  UNL1        0.0000
     11 C         -22.0497    1.5890   28.1642 C.ar    1  UNL1        0.0000
     12 C         -23.3072    0.0149   29.4618 C.ar    1  UNL1        0.0000
     13 C         -22.0852    0.6899   29.1374 C.ar    1  UNL1        0.0000
     14 C         -30.1270   -2.1323   30.5815 C.3     1  UNL1        0.2894
     15 C         -31.1983   -2.7137   30.1241 C.2     1  UNL1        0.4084
     16 O         -31.9869   -2.1645   29.4672 O.co2   1  UNL1       -0.2412
     17 O         -31.4547   -3.9963   30.3871 O.co2   1  UNL1       -0.2412
     18 C         -30.0232   -2.1656   32.1629 C.2     1  UNL1        0.0237
     19 C         -30.0261   -3.0141   32.8524 C.2     1  UNL1       -0.0262
     20 C         -30.1737   -4.3715   32.3663 C.3     1  UNL1        0.0305
@<TRIPOS>BOND
     1     6     7    1
     2     3     8    1
     3     7    14    1
     4    14    15    1
     5    15    16   ar
     6    15    17   ar
     7    14    18    1
     8    18    19    2
     9    19    20    1
    10     1     2   ar
    11     2     3   ar
    12     3     4   ar
    13     4     5   ar
    14     5     6   ar
    15     6     1   ar
    16     8     9   ar
    17     9    10   ar
    18    10    11   ar
    19    11    13   ar
    20    13    12   ar
    21    12     8   ar
