@<TRIPOS>MOLECULE
No_3074-gen_results/8p0m/2024-11-26-14-13-15/
 21 23 0 0 0
SMALL
GASTEIGER

@<TRIPOS>ATOM
      1 C         -28.0162   -0.8135   28.8779 C.ar    1  UNL1       -0.0000
      2 C         -27.0636   -0.1189   28.6079 C.ar    1  UNL1       -0.0003
      3 C         -25.7647   -0.3897   29.0360 C.ar    1  UNL1        0.0000
      4 C         -25.5296   -1.5302   29.9014 C.ar    1  UNL1        0.0000
      5 C         -26.6888   -2.2893   30.1810 C.ar    1  UNL1        0.0000
      6 C         -27.8727   -1.9508   29.7373 C.ar    1  UNL1       -0.0000
      7 C         -24.5491    0.4100   28.7341 C.ar    1  UNL1        0.0014
      8 C         -24.0931    1.3779   29.5761 C.ar    1  UNL1        0.0176
      9 C         -22.9779    2.1400   29.2464 C.ar    1  UNL1        0.0015
     10 C         -22.2677    1.9029   28.0361 C.ar    1  UNL1        0.0000
     11 C         -22.7430    0.9704   27.1898 C.ar    1  UNL1        0.0000
     12 C         -23.8526    0.2276   27.4988 C.ar    1  UNL1        0.0000
     13 C         -24.7481    1.6171   30.9103 C.ar    1  UNL1        0.0813
     14 N         -24.8646    0.8279   31.8444 N.ar    1  UNL1       -0.2438
     15 C         -25.6629    1.0787   32.9689 C.ar    1  UNL1        0.0988
     16 C         -25.3289    2.9438   31.0699 C.ar    1  UNL1        0.0191
     17 C         -25.9887    3.3096   32.1805 C.ar    1  UNL1        0.0031
     18 C         -26.1472    2.3391   33.1984 C.ar    1  UNL1        0.0207
     19 C         -27.2100    1.1118   27.7231 C.2     1  UNL1       -0.0046
     20 C         -27.3205    2.2322   28.1821 C.2     1  UNL1       -0.0258
     21 C         -27.5052    3.4331   27.4390 C.3     1  UNL1        0.0307
@<TRIPOS>BOND
     1     3     7    1
     2     8    13    1
     3     2    19    1
     4    19    20    2
     5    20    21    1
     6     1     2   ar
     7     2     3   ar
     8     3     4   ar
     9     4     5   ar
    10     5     6   ar
    11     6     1   ar
    12    13    14   ar
    13    14    15   ar
    14    15    18   ar
    15    18    17   ar
    16    17    16   ar
    17    16    13   ar
    18     7     8   ar
    19     8     9   ar
    20     9    10   ar
    21    10    11   ar
    22    11    12   ar
    23    12     7   ar
