@<TRIPOS>MOLECULE
No_3075-gen_results/8p0m/2024-11-26-14-13-15/
 24 25 0 0 0
SMALL
GASTEIGER

@<TRIPOS>ATOM
      1 C         -28.0162   -0.8135   28.8779 C.ar    1  UNL1        0.0568
      2 C         -27.0636   -0.1189   28.6079 C.ar    1  UNL1        0.0191
      3 C         -26.9716    0.7139   27.5060 C.ar    1  UNL1        0.0481
      4 C         -28.1053    0.7744   26.6421 C.ar    1  UNL1        0.0191
      5 C         -29.2041    0.1179   27.0477 C.ar    1  UNL1        0.0580
      6 C         -29.2127   -0.6088   28.1281 C.ar    1  UNL1        0.0093
      7 N         -25.6860    1.2756   27.3185 N.pl3   1  UNL1       -0.3075
      8 C         -25.0510    1.9027   28.1959 C.3     1  UNL1        0.0908
      9 C         -24.3115    3.1233   27.7980 C.3     1  UNL1        0.0215
     10 C         -25.1053    1.2631   26.0301 C.3     1  UNL1        0.0908
     11 C         -24.0119    1.7400   25.9498 C.3     1  UNL1        0.0215
     12 C         -23.5575    2.9226   26.6225 C.3     1  UNL1        0.0035
     13 C         -30.5119    0.2001   26.3832 C.2     1  UNL1        0.2842
     14 N         -30.5720    0.2732   25.1385 N.am    1  UNL1       -0.0837
     15 O         -31.5978    0.1428   26.9673 O.2     1  UNL1       -0.2667
     16 C         -28.0482   -1.6804   30.1022 C.2     1  UNL1        0.2690
     17 N         -28.6578   -1.5584   31.0954 N.am    1  UNL1       -0.1745
     18 O         -27.2903   -2.7517   29.9691 O.2     1  UNL1       -0.2680
     19 C         -29.5363   -0.4404   31.4946 C.2     1  UNL1        0.0847
     20 C         -30.2723   -0.6033   32.6025 C.2     1  UNL1       -0.0035
     21 C         -30.9100    0.3706   33.1550 C.3     1  UNL1        0.0531
     22 C         -31.6835    0.2461   34.3476 C.2     1  UNL1       -0.0259
     23 C         -31.7556   -1.0128   34.8914 C.2     1  UNL1       -0.0300
     24 C         -31.0995   -2.0772   34.3214 C.3     1  UNL1        0.0304
@<TRIPOS>BOND
     1     3     7    1
     2     7     8    1
     3     7    10    1
     4     9    12    1
     5    11    12    1
     6     5    13    1
     7    13    14   am
     8    13    15    2
     9     1    16    1
    10    16    17   am
    11    16    18    2
    12    17    19    1
    13    19    20    2
    14    20    21    1
    15    21    22    1
    16    22    23    2
    17    23    24    1
    18     8     9    1
    19    11    10    1
    20     1     2   ar
    21     2     3   ar
    22     3     4   ar
    23     4     5   ar
    24     5     6   ar
    25     6     1   ar
