@<TRIPOS>MOLECULE
No_3076-gen_results/8p0m/2024-11-26-14-13-15/
 24 27 0 0 0
SMALL
GASTEIGER

@<TRIPOS>ATOM
      1 C         -28.0162   -0.8135   28.8779 C.ar    1  UNL1        0.0254
      2 C         -28.4690   -0.7850   29.8287 C.ar    1  UNL1        0.1398
      3 C         -26.5455   -0.8762   28.8500 C.ar    1  UNL1       -0.0192
      4 C         -25.8041   -1.0324   30.0571 C.ar    1  UNL1       -0.0216
      5 C         -27.9437   -0.9869   31.2075 C.ar    1  UNL1        0.0293
      6 C         -26.5825   -1.0386   31.2231 C.ar    1  UNL1       -0.0019
      7 F         -29.9086   -0.7397   29.8642 F       1  UNL1       -0.2042
      8 C         -24.3889   -1.2010   30.2805 C.3     1  UNL1        0.0483
      9 C         -23.6903   -0.2688   31.1558 C.3     1  UNL1        0.0350
     10 C         -23.5646   -2.0196   29.4473 C.2     1  UNL1       -0.0218
     11 C         -24.3661    0.7042   31.8689 C.ar    1  UNL1       -0.0215
     12 C         -24.2618    2.1564   31.4309 C.ar    1  UNL1       -0.0042
     13 C         -24.9864    3.1288   32.1599 C.ar    1  UNL1       -0.0003
     14 C         -25.8664    2.7949   33.1823 C.ar    1  UNL1       -0.0000
     15 C         -25.9192    1.4438   33.5594 C.ar    1  UNL1       -0.0003
     16 C         -25.2169    0.4928   32.9308 C.ar    1  UNL1       -0.0042
     17 C         -25.6964   -0.8104   27.6134 C.3     1  UNL1        0.0524
     18 C         -24.6460    0.1532   27.6002 C.ar    1  UNL1       -0.0178
     19 C         -24.7492    1.2083   26.6223 C.ar    1  UNL1       -0.0039
     20 C         -23.6322    2.0184   26.5285 C.ar    1  UNL1       -0.0003
     21 C         -22.4559    1.8574   27.2746 C.ar    1  UNL1       -0.0000
     22 C         -22.4171    0.8563   28.2587 C.ar    1  UNL1       -0.0003
     23 C         -23.4838    0.0618   28.3613 C.ar    1  UNL1       -0.0040
     24 C         -22.9434   -1.0937   29.1630 C.2     1  UNL1       -0.0045
@<TRIPOS>BOND
     1     2     7    1
     2     4     8    1
     3     8     9    1
     4     8    10    1
     5     9    11    1
     6     3    17    1
     7    17    18    1
     8    10    24    2
     9    23    24    1
    10    18    19   ar
    11    19    20   ar
    12    20    21   ar
    13    21    22   ar
    14    22    23   ar
    15    23    18   ar
    16    11    12   ar
    17    12    13   ar
    18    13    14   ar
    19    14    15   ar
    20    15    16   ar
    21    16    11   ar
    22     1     2   ar
    23     2     5   ar
    24     5     6   ar
    25     6     4   ar
    26     4     3   ar
    27     3     1   ar
