@<TRIPOS>MOLECULE
No_3077-gen_results/8p0m/2024-11-26-14-13-15/
 17 18 0 0 0
SMALL
GASTEIGER

@<TRIPOS>ATOM
      1 C         -28.0162   -0.8135   28.8779 C.ar    1  UNL1        0.0335
      2 C         -28.4690   -0.7850   29.8287 C.ar    1  UNL1        0.1388
      3 C         -26.5042   -0.7777   28.8766 C.ar    1  UNL1       -0.0077
      4 C         -25.6540   -0.6597   27.7191 C.3     1  UNL1        0.0939
      5 C         -27.9180   -0.9374   31.1824 C.ar    1  UNL1        0.0369
      6 C         -26.5423   -0.9399   31.2606 C.ar    1  UNL1        0.0028
      7 C         -25.7832   -0.8935   30.1201 C.ar    1  UNL1       -0.0032
      8 BR        -24.5266    0.5319   27.6708 Br      1  UNL1       -0.0756
      9 O         -29.9145   -0.7533   29.7306 O.3     1  UNL1       -0.4707
     10 C         -30.5831    0.3384   30.1495 C.3     1  UNL1        0.2317
     11 C         -31.4103    0.8212   29.3762 C.ar    1  UNL1        0.0172
     12 C         -31.7782    0.2292   28.1627 C.ar    1  UNL1       -0.0010
     13 C         -32.6235    0.8169   27.1705 C.ar    1  UNL1       -0.0002
     14 C         -33.1821    2.0748   27.5250 C.ar    1  UNL1       -0.0003
     15 C         -32.9030    2.7413   28.6399 C.ar    1  UNL1       -0.0045
     16 C         -31.9923    2.1654   29.5624 C.ar    1  UNL1       -0.0223
     17 C         -31.6477    2.8795   30.8020 C.3     1  UNL1        0.0308
@<TRIPOS>BOND
     1     3     4    1
     2     4     8    1
     3     2     9    1
     4     9    10    1
     5    16    17    1
     6    10    11    1
     7    11    12   ar
     8    12    13   ar
     9    13    14   ar
    10    14    15   ar
    11    15    16   ar
    12    16    11   ar
    13     1     2   ar
    14     2     5   ar
    15     5     6   ar
    16     6     7   ar
    17     7     3   ar
    18     3     1   ar
