@<TRIPOS>MOLECULE
No_3078-gen_results/8p0m/2024-11-26-14-13-15/
 15 16 0 0 0
SMALL
GASTEIGER

@<TRIPOS>ATOM
      1 C         -28.0162   -0.8135   28.8779 C.ar    1  UNL1        0.0114
      2 C         -28.4690   -0.7850   29.8287 C.ar    1  UNL1        0.0009
      3 C         -28.1960    0.3478   28.0550 C.ar    1  UNL1        0.0577
      4 C         -29.0191    1.3501   28.3782 C.ar    1  UNL1        0.0114
      5 C         -29.4107    0.1803   30.3782 C.ar    1  UNL1        0.0001
      6 C         -29.6059    1.2495   29.6193 C.ar    1  UNL1        0.0009
      7 CL        -27.3467    0.3759   26.5145 Cl      1  UNL1       -0.0822
      8 C         -30.0268   -0.0284   31.7609 C.2     1  UNL1        0.0000
      9 C         -29.9889    0.9520   32.5726 C.2     1  UNL1        0.0000
     10 C         -29.1416    2.0784   32.3580 C.ar    1  UNL1        0.0000
     11 C         -28.6628    2.6695   33.3316 C.ar    1  UNL1        0.0000
     12 C         -27.7435    3.8230   33.0919 C.ar    1  UNL1        0.0000
     13 C         -27.3997    4.1780   31.7680 C.ar    1  UNL1        0.0000
     14 C         -27.9062    3.4092   30.8048 C.ar    1  UNL1        0.0000
     15 C         -28.6795    2.4023   31.0622 C.ar    1  UNL1        0.0000
@<TRIPOS>BOND
     1     3     7    1
     2     5     8    1
     3     8     9    2
     4     9    10    1
     5     1     2   ar
     6     2     5   ar
     7     5     6   ar
     8     6     4   ar
     9     4     3   ar
    10     3     1   ar
    11    10    11   ar
    12    11    12   ar
    13    12    13   ar
    14    13    14   ar
    15    14    15   ar
    16    15    10   ar
