@<TRIPOS>MOLECULE
No_308-gen_results/8p0m/2024-11-26-14-13-15/
 28 31 0 0 0
SMALL
GASTEIGER

@<TRIPOS>ATOM
      1 C         -28.0162   -0.8135   28.8779 C.ar    1  UNL1        0.0114
      2 C         -27.0636   -0.1189   28.6079 C.ar    1  UNL1        0.0005
      3 C         -25.7923   -0.4302   29.0761 C.ar    1  UNL1        0.0000
      4 C         -25.5756   -1.5654   29.9363 C.ar    1  UNL1        0.0009
      5 C         -26.7354   -2.3004   30.2173 C.ar    1  UNL1        0.0114
      6 C         -27.9184   -1.9537   29.7629 C.ar    1  UNL1        0.0577
      7 C         -27.1057    1.1023   27.7593 C.ar    1  UNL1       -0.0034
      8 C         -26.7157    2.2350   27.9945 C.ar    1  UNL1       -0.0119
      9 C         -27.6806    0.8547   26.4259 C.ar    1  UNL1       -0.0003
     10 C         -26.0318    2.5935   29.1910 C.3     1  UNL1        0.1219
     11 C         -26.8615    3.3798   27.0755 C.ar    1  UNL1       -0.0037
     12 C         -27.4568    3.2690   25.8921 C.ar    1  UNL1       -0.0003
     13 C         -27.7384    1.7583   25.6376 C.ar    1  UNL1       -0.0000
     14 C         -24.6234    2.4357   29.3160 C.2     1  UNL1        0.3206
     15 C         -26.4740    3.8343   29.9246 C.3     1  UNL1        0.0284
     16 C         -26.1203    3.8435   31.2657 C.3     1  UNL1        0.1212
     17 C         -24.6307    3.7844   31.4926 C.3     1  UNL1        0.2174
     18 O         -24.1977    2.4782   30.8748 O.3     1  UNL1       -0.4478
     19 C         -26.6265    5.0881   32.0762 C.2     1  UNL1        0.2289
     20 O         -26.3368    6.1133   31.7037 O.2     1  UNL1       -0.2748
     21 N         -26.9953    4.8048   33.3808 N.am    1  UNL1       -0.2794
     22 C         -27.2629    3.5365   33.9718 C.3     1  UNL1        0.0934
     23 C         -27.4024    3.5058   35.2406 C.3     1  UNL1        0.0216
     24 C         -27.3813    4.6395   36.0563 C.3     1  UNL1        0.0035
     25 C         -27.0567    5.8801   35.5103 C.3     1  UNL1        0.0216
     26 C         -26.8100    5.9401   34.2072 C.3     1  UNL1        0.0934
     27 O         -23.7502    2.0805   28.6255 O.2     1  UNL1       -0.2498
     28 CL        -29.3722   -2.7295   30.1213 Cl      1  UNL1       -0.0822
@<TRIPOS>BOND
     1     2     7    1
     2     8    10    1
     3    10    14    1
     4    10    15    1
     5    15    16    1
     6    16    17    1
     7    14    18    1
     8    17    18    1
     9    16    19    1
    10    19    20    2
    11    19    21   am
    12    21    22    1
    13    23    24    1
    14    21    26    1
    15    25    26    1
    16    14    27    2
    17     6    28    1
    18    22    23    1
    19    24    25    1
    20     1     2   ar
    21     2     3   ar
    22     3     4   ar
    23     4     5   ar
    24     5     6   ar
    25     6     1   ar
    26     7     8   ar
    27     8    11   ar
    28    11    12   ar
    29    12    13   ar
    30    13     9   ar
    31     9     7   ar
