@<TRIPOS>MOLECULE
No_3080-gen_results/8p0m/2024-11-26-14-13-15/
 20 21 0 0 0
SMALL
GASTEIGER

@<TRIPOS>ATOM
      1 C         -28.0162   -0.8135   28.8779 C.ar    1  UNL1       -0.0000
      2 C         -28.4690   -0.7850   29.8287 C.ar    1  UNL1       -0.0000
      3 C         -28.1816    0.4277   28.1134 C.ar    1  UNL1       -0.0003
      4 C         -27.4498    0.6435   26.8500 C.2     1  UNL1       -0.0039
      5 C         -26.4529    0.9939   26.6681 C.2     1  UNL1       -0.0212
      6 C         -25.1812    0.8624   26.8165 C.2     1  UNL1        0.0047
      7 C         -24.2036    1.0464   27.4866 C.2     1  UNL1        0.0515
      8 C         -29.4367    0.0780   30.4436 C.ar    1  UNL1       -0.0000
      9 C         -23.2068    1.1720   27.8982 C.1     1  UNL1       -0.0292
     10 C         -29.6775    1.1885   29.7341 C.ar    1  UNL1       -0.0000
     11 C         -29.0585    1.3972   28.5508 C.ar    1  UNL1       -0.0000
     12 C         -22.2474    1.2464   28.7000 C.1     1  UNL1        0.1107
     13 C         -28.4987    0.5588   25.8328 C.ar    1  UNL1       -0.0003
     14 C         -29.3704   -0.2224   25.6067 C.ar    1  UNL1       -0.0000
     15 C         -30.1642   -0.3032   24.4078 C.ar    1  UNL1       -0.0000
     16 C         -29.8302    0.5898   23.4030 C.ar    1  UNL1       -0.0000
     17 C         -28.2954    1.3738   24.6134 C.ar    1  UNL1       -0.0000
     18 C         -28.8462    1.4193   23.5486 C.ar    1  UNL1       -0.0000
     19 C         -26.4108    2.6583   26.5750 C.3     1  UNL1        0.0310
     20 F         -22.2896    1.2407   29.8743 F       1  UNL1       -0.1429
@<TRIPOS>BOND
     1     3     4    1
     2     4     5    2
     3     5     6    1
     4     6     7    2
     5     7     9    1
     6     9    12    3
     7     4    13    1
     8     5    19    1
     9    12    20    1
    10    13    14   ar
    11    14    15   ar
    12    15    16   ar
    13    16    18   ar
    14    18    17   ar
    15    17    13   ar
    16     1     2   ar
    17     2     8   ar
    18     8    10   ar
    19    10    11   ar
    20    11     3   ar
    21     3     1   ar
