@<TRIPOS>MOLECULE
No_3081-gen_results/8p0m/2024-11-26-14-13-15/
 26 27 0 0 0
SMALL
GASTEIGER

@<TRIPOS>ATOM
      1 C         -28.0162   -0.8135   28.8779 C.3     1  UNL1        0.0307
      2 C         -27.0636   -0.1189   28.6079 C.ar    1  UNL1       -0.0254
      3 C         -26.9716    0.7139   27.5060 C.ar    1  UNL1       -0.0188
      4 C         -25.8205    1.4909   27.1160 C.ar    1  UNL1        0.0038
      5 C         -24.6562    1.4242   27.9180 C.ar    1  UNL1        0.0972
      6 C         -24.6847    0.5901   29.0659 C.ar    1  UNL1        0.0077
      7 C         -25.8099   -0.1265   29.3338 C.ar    1  UNL1       -0.0043
      8 C         -28.6943   -0.4734   30.1587 C.3     1  UNL1        0.0307
      9 C         -29.7865   -1.3251   30.6371 C.2     1  UNL1       -0.0258
     10 C         -23.4524    2.1889   27.6083 C.2     1  UNL1        0.4766
     11 N         -22.4679    1.8497   27.3090 N.pl3   1  UNL1        0.2047
     12 N         -23.8098    3.4631   27.0736 N.pl3   1  UNL1        0.2047
     13 C         -30.0270   -2.2416   30.0854 C.2     1  UNL1       -0.0046
     14 C         -31.2239   -3.0205   30.5852 C.ar    1  UNL1       -0.0001
     15 C         -31.5920   -4.2480   29.9300 C.ar    1  UNL1       -0.0000
     16 C         -32.6573   -4.6169   29.6313 C.ar    1  UNL1        0.0002
     17 C         -33.7434   -3.8338   29.8649 C.ar    1  UNL1        0.0066
     18 C         -33.5926   -2.6785   30.5853 C.ar    1  UNL1        0.0798
     19 C         -32.3036   -2.1957   30.7845 C.ar    1  UNL1        0.0066
     20 C         -34.7877   -1.8710   30.9444 C.2     1  UNL1        0.3878
     21 O         -35.7116   -2.3082   31.3641 O.co2   1  UNL1       -0.2406
     22 O         -34.6657   -0.5627   30.4906 O.co2   1  UNL1       -0.2406
     23 C         -28.1219    0.7688   26.6095 C.3     1  UNL1        0.0868
     24 C         -27.8767    0.8845   25.3118 C.3     1  UNL1        0.0130
     25 C         -29.4147    0.6862   27.0761 C.2     1  UNL1        0.2113
     26 O         -29.8243    1.0392   28.2099 O.2     1  UNL1       -0.2880
@<TRIPOS>BOND
     1     1     8    1
     2     8     9    1
     3     5    10    1
     4    10    11    2
     5    10    12    1
     6     9    13    2
     7    13    14    1
     8    18    20    1
     9    20    21   ar
    10    20    22   ar
    11     3    23    1
    12    23    24    1
    13    23    25    1
    14    25    26    2
    15     1     2    1
    16     2     3   ar
    17     3     4   ar
    18     4     5   ar
    19     5     6   ar
    20     6     7   ar
    21     7     2   ar
    22    14    15   ar
    23    15    16   ar
    24    16    17   ar
    25    17    18   ar
    26    18    19   ar
    27    19    14   ar
