@<TRIPOS>MOLECULE
No_3082-gen_results/8p0m/2024-11-26-14-13-15/
 26 28 0 0 0
SMALL
GASTEIGER

@<TRIPOS>ATOM
      1 C         -28.0162   -0.8135   28.8779 C.ar    1  UNL1        0.0799
      2 C         -27.0636   -0.1189   28.6079 C.ar    1  UNL1        0.0071
      3 C         -26.9716    0.7139   27.5060 C.ar    1  UNL1        0.0066
      4 C         -28.1053    0.7744   26.6421 C.ar    1  UNL1        0.0390
      5 C         -29.2041    0.1179   27.0477 C.ar    1  UNL1        0.0618
      6 C         -29.2127   -0.6088   28.1281 C.ar    1  UNL1        0.0116
      7 C         -25.7106    1.4518   27.1380 C.ar    1  UNL1        0.0005
      8 C         -25.2074    2.4128   27.9320 C.ar    1  UNL1        0.0000
      9 C         -24.2878    2.8213   28.1828 C.ar    1  UNL1        0.0000
     10 C         -23.0796    2.2449   27.3693 C.ar    1  UNL1        0.0000
     11 C         -23.4280    1.2098   26.5252 C.ar    1  UNL1        0.0000
     12 C         -24.6823    0.7243   26.4558 C.ar    1  UNL1        0.0000
     13 BR        -27.9730    1.8468   25.1145 Br      1  UNL1       -0.0489
     14 C         -28.0857   -1.6947   30.1196 C.2     1  UNL1        0.3878
     15 O         -27.0959   -2.1799   30.4726 O.co2   1  UNL1       -0.2406
     16 O         -29.1719   -1.9236   30.6446 O.co2   1  UNL1       -0.2406
     17 C         -30.5150    0.2216   26.3445 C.2     1  UNL1        0.2695
     18 N         -31.3152    0.8084   26.5100 N.am    1  UNL1       -0.1732
     19 O         -30.5251   -0.5664   25.2436 O.2     1  UNL1       -0.2680
     20 C         -31.4661    1.7278   27.6632 C.ar    1  UNL1        0.1010
     21 C         -32.0420    2.5116   28.1106 C.ar    1  UNL1        0.0189
     22 C         -31.9530    3.2981   29.3167 C.ar    1  UNL1        0.0015
     23 C         -30.8539    3.0314   30.1326 C.ar    1  UNL1        0.0024
     24 C         -29.9716    2.0384   29.7488 C.ar    1  UNL1        0.0310
     25 C         -30.2162    1.4694   28.6193 C.ar    1  UNL1        0.1553
     26 F         -30.3543    0.4638   28.9657 F       1  UNL1       -0.2028
@<TRIPOS>BOND
     1     3     7    1
     2     4    13    1
     3     1    14    1
     4    14    15   ar
     5    14    16   ar
     6     5    17    1
     7    17    18   am
     8    17    19    2
     9    18    20    1
    10    25    26    1
    11    20    21   ar
    12    21    22   ar
    13    22    23   ar
    14    23    24   ar
    15    24    25   ar
    16    25    20   ar
    17     1     2   ar
    18     2     3   ar
    19     3     4   ar
    20     4     5   ar
    21     5     6   ar
    22     6     1   ar
    23     7     8   ar
    24     8     9   ar
    25     9    10   ar
    26    10    11   ar
    27    11    12   ar
    28    12     7   ar
