@<TRIPOS>MOLECULE
No_3083-gen_results/8p0m/2024-11-26-14-13-15/
 22 24 0 0 0
SMALL
GASTEIGER

@<TRIPOS>ATOM
      1 C         -28.0162   -0.8135   28.8779 C.ar    1  UNL1        0.0238
      2 C         -28.4690   -0.7850   29.8287 C.ar    1  UNL1        0.0565
      3 C         -26.5455   -0.8762   28.8500 C.ar    1  UNL1        0.0847
      4 C         -25.8041   -1.0324   30.0571 C.ar    1  UNL1        0.0179
      5 C         -24.3697   -1.0998   30.0718 C.ar    1  UNL1        0.0061
      6 C         -27.9902   -1.0051   31.2092 C.ar    1  UNL1        0.0047
      7 C         -26.4318   -1.0480   31.2503 C.ar    1  UNL1        0.0016
      8 C         -23.7222   -1.3222   30.8206 C.ar    1  UNL1        0.0002
      9 C         -22.1958   -1.2091   30.8664 C.ar    1  UNL1        0.0000
     10 C         -21.6728   -0.8291   29.6449 C.ar    1  UNL1        0.0002
     11 C         -23.7495   -0.6442   28.7600 C.ar    1  UNL1        0.0579
     12 C         -22.4430   -0.4955   28.6373 C.ar    1  UNL1        0.0048
     13 C         -30.0644   -0.6932   29.9242 C.2     1  UNL1        0.2650
     14 O         -30.5227   -0.2549   28.9658 O.2     1  UNL1       -0.2684
     15 N         -30.7656   -1.0852   31.0210 N.am    1  UNL1       -0.1973
     16 C         -32.1996   -0.9719   31.0372 C.3     1  UNL1        0.1676
     17 C         -32.7630   -1.6626   31.8521 C.3     1  UNL1        0.2608
     18 CL        -32.7017   -2.6455   32.5342 Cl      1  UNL1       -0.0747
     19 F         -34.1265   -1.0274   32.0118 F       1  UNL1       -0.2174
     20 N         -25.8477   -0.7893   27.6900 N.ar    1  UNL1       -0.2079
     21 C         -24.6675   -0.4840   27.6438 C.ar    1  UNL1        0.2791
     22 O         -24.1764    0.0465   26.5546 O.2     1  UNL1       -0.2652
@<TRIPOS>BOND
     1     4     5   ar
     2     2    13    1
     3    13    14    2
     4    13    15   am
     5    15    16    1
     6    16    17    1
     7    17    18    1
     8    17    19    1
     9    11    21   ar
    10    20    21   ar
    11    21    22    2
    12     3    20   ar
    13     1     2   ar
    14     2     6   ar
    15     6     7   ar
    16     7     4   ar
    17     4     3   ar
    18     3     1   ar
    19     5     8   ar
    20     8     9   ar
    21     9    10   ar
    22    10    12   ar
    23    12    11   ar
    24    11     5   ar
