@<TRIPOS>MOLECULE
No_3084-gen_results/8p0m/2024-11-26-14-13-15/
 14 15 0 0 0
SMALL
GASTEIGER

@<TRIPOS>ATOM
      1 C         -28.0162   -0.8135   28.8779 C.ar    1  UNL1        0.0031
      2 C         -27.0636   -0.1189   28.6079 C.ar    1  UNL1        0.0002
      3 C         -27.0010    0.6913   27.4910 C.ar    1  UNL1        0.0031
      4 C         -28.1373    0.7363   26.6350 C.ar    1  UNL1        0.0369
      5 C         -29.2360    0.0765   27.0690 C.ar    1  UNL1        0.1387
      6 C         -29.2177   -0.6429   28.1747 C.ar    1  UNL1        0.0369
      7 O         -30.3423    0.1617   26.2790 O.3     1  UNL1       -0.4714
      8 C         -25.7291   -0.2038   29.3995 C.ar    1  UNL1        0.0000
      9 C         -25.4247   -1.0366   30.0536 C.ar    1  UNL1        0.0000
     10 C         -24.3485   -1.3063   30.5193 C.ar    1  UNL1        0.0000
     11 C         -23.1990   -0.3972   30.4474 C.ar    1  UNL1        0.0000
     12 C         -23.4703    0.7005   29.6769 C.ar    1  UNL1        0.0000
     13 C         -24.7470    0.8341   29.0321 C.ar    1  UNL1        0.0000
     14 C         -30.2874   -0.3264   25.0636 C.3     1  UNL1        0.2525
@<TRIPOS>BOND
     1     5     7    1
     2     2     8    1
     3     7    14    1
     4     1     2   ar
     5     2     3   ar
     6     3     4   ar
     7     4     5   ar
     8     5     6   ar
     9     6     1   ar
    10     8     9   ar
    11     9    10   ar
    12    10    11   ar
    13    11    12   ar
    14    12    13   ar
    15    13     8   ar
