@<TRIPOS>MOLECULE
No_3086-gen_results/8p0m/2024-11-26-14-13-15/
 13 14 0 0 0
SMALL
GASTEIGER

@<TRIPOS>ATOM
      1 C         -28.0162   -0.8135   28.8779 C.ar    1  UNL1        0.0119
      2 C         -27.0636   -0.1189   28.6079 C.ar    1  UNL1        0.0538
      3 C         -26.9287    1.1713   29.0083 C.ar    1  UNL1       -0.0087
      4 C         -27.9560    1.7411   29.7840 C.ar    1  UNL1        0.0071
      5 C         -29.0569   -0.3271   29.7466 C.ar    1  UNL1        0.0120
      6 C         -28.9828    0.9722   30.1516 C.ar    1  UNL1        0.0551
      7 CL        -25.7249   -0.7275   27.6731 Cl      1  UNL1       -0.0826
      8 CL        -30.2534    1.4201   31.2318 Cl      1  UNL1       -0.0825
      9 C         -27.8109    3.1704   30.1854 C.3     1  UNL1        0.1391
     10 N         -27.2270    3.9778   29.4621 N.pl3   1  UNL1       -0.2318
     11 C         -26.4927    3.7982   28.5150 C.2     1  UNL1        0.0762
     12 C         -25.7798    3.0543   27.8455 C.2     1  UNL1       -0.0040
     13 C         -26.0581    1.6804   27.9481 C.3     1  UNL1        0.0543
@<TRIPOS>BOND
     1     2     7    1
     2     6     8    1
     3     4     9    1
     4     9    10    1
     5    10    11    1
     6    11    12    2
     7     3    13    1
     8    12    13    1
     9     1     2   ar
    10     2     3   ar
    11     3     4   ar
    12     4     6   ar
    13     6     5   ar
    14     5     1   ar
