@<TRIPOS>MOLECULE
No_3087-gen_results/8p0m/2024-11-26-14-13-15/
 35 38 0 0 0
SMALL
GASTEIGER

@<TRIPOS>ATOM
      1 O         -28.1229   -1.3353   28.4874 O.2     1  UNL1       -0.2695
      2 C         -27.4806   -0.4044   28.7094 C.2     1  UNL1        0.2548
      3 C         -26.3804   -0.0867   27.9394 C.2     1  UNL1        0.0364
      4 N         -27.6664    0.4468   29.8988 N.am    1  UNL1       -0.2046
      5 C         -26.4087    0.8567   26.8802 C.2     1  UNL1        0.0004
      6 C         -27.5818    1.4877   26.5909 C.2     1  UNL1        0.0006
      7 C         -28.6544    1.3606   27.2050 C.2     1  UNL1        0.0420
      8 C         -28.3559    1.6294   29.6144 C.2     1  UNL1        0.2399
      9 C         -28.8808    1.9425   28.4848 C.3     1  UNL1        0.1169
     10 C         -25.1222   -0.8629   28.1979 C.3     1  UNL1        0.0572
     11 C         -23.9630   -0.1481   28.6364 C.ar    1  UNL1       -0.0176
     12 C         -23.7206    1.2271   28.4867 C.ar    1  UNL1       -0.0039
     13 C         -22.5400    1.7913   28.7634 C.ar    1  UNL1       -0.0003
     14 C         -21.4568    0.8789   29.0182 C.ar    1  UNL1       -0.0000
     15 C         -21.5834   -0.4777   29.2025 C.ar    1  UNL1       -0.0003
     16 C         -22.8255   -0.9896   28.9299 C.ar    1  UNL1       -0.0039
     17 C         -27.2504   -0.1153   31.1288 C.ar    1  UNL1        0.0609
     18 C         -27.6991   -1.1931   31.5690 C.ar    1  UNL1        0.0141
     19 C         -26.3081    0.7196   31.8265 C.ar    1  UNL1        0.0153
     20 C         -25.6312    0.1425   32.9221 C.ar    1  UNL1        0.0013
     21 C         -28.6741   -2.0047   30.8752 C.ar    1  UNL1        0.0012
     22 C         -26.1529   -0.9648   33.4873 C.ar    1  UNL1        0.0001
     23 C         -27.0665   -1.7114   32.7594 C.ar    1  UNL1        0.0012
     24 C         -29.9733   -1.8887   31.0469 C.ar    1  UNL1        0.0000
     25 C         -30.8993   -2.5714   30.3465 C.ar    1  UNL1        0.0000
     26 C         -30.6055   -3.8992   30.0037 C.ar    1  UNL1        0.0000
     27 C         -29.1695   -4.2915   30.0360 C.ar    1  UNL1        0.0000
     28 C         -28.1740   -3.3755   30.5827 C.ar    1  UNL1        0.0000
     29 O         -28.7772    2.1392   30.8044 O.2     1  UNL1       -0.2738
     30 C         -29.7704    0.6932   26.5703 C.2     1  UNL1        0.2616
     31 O         -29.8401   -0.1360   25.8317 O.2     1  UNL1       -0.2687
     32 N         -31.0889    1.0755   27.1239 N.am    1  UNL1       -0.1971
     33 C         -32.3026    0.4045   26.6614 C.3     1  UNL1        0.1415
     34 C         -33.2568    0.3780   27.6163 C.2     1  UNL1       -0.0029
     35 C         -34.1302   -0.5743   27.7047 C.2     1  UNL1       -0.0031
@<TRIPOS>BOND
     1     1     2    2
     2     2     3    1
     3     2     4   am
     4     3     5    2
     5     5     6    1
     6     6     7    2
     7     4     8   am
     8     7     9    1
     9     8     9    1
    10     3    10    1
    11     4    17    1
    12    18    21    1
    13     8    29    2
    14     7    30    1
    15    30    31    2
    16    30    32   am
    17    32    33    1
    18    33    34    1
    19    34    35    2
    20    10    11    1
    21    17    18   ar
    22    18    23   ar
    23    23    22   ar
    24    22    20   ar
    25    20    19   ar
    26    19    17   ar
    27    11    12   ar
    28    12    13   ar
    29    13    14   ar
    30    14    15   ar
    31    15    16   ar
    32    16    11   ar
    33    21    24   ar
    34    24    25   ar
    35    25    26   ar
    36    26    27   ar
    37    27    28   ar
    38    28    21   ar
