@<TRIPOS>MOLECULE
No_3088-gen_results/8p0m/2024-11-26-14-13-15/
 23 24 0 0 0
SMALL
GASTEIGER

@<TRIPOS>ATOM
      1 C         -28.0162   -0.8135   28.8779 C.2     1  UNL1        0.0741
      2 C         -27.0636   -0.1189   28.6079 C.2     1  UNL1       -0.0340
      3 C         -26.9716    0.7139   27.5060 C.3     1  UNL1        0.0413
      4 C         -25.8205    1.4909   27.1160 C.3     1  UNL1        0.0197
      5 C         -24.6562    1.4242   27.9180 C.3     1  UNL1        0.1044
      6 C         -24.6847    0.5901   29.0659 C.3     1  UNL1        0.0156
      7 C         -25.8099   -0.1265   29.3338 C.3     1  UNL1        0.0231
      8 C         -28.7093   -0.4588   30.1754 C.2     1  UNL1        0.3454
      9 O         -28.6701    0.3803   30.7522 O.2     1  UNL1       -0.2445
     10 O         -29.1715   -1.6919   30.7342 O.3     1  UNL1       -0.4183
     11 C         -23.4688    2.2085   27.6043 C.2     1  UNL1        0.3643
     12 O         -22.5672    2.2307   28.4770 O.co2   1  UNL1       -0.2457
     13 O         -23.3292    2.7665   26.4703 O.co2   1  UNL1       -0.2457
     14 C         -28.0765    0.8022   26.5510 C.ar    1  UNL1       -0.0179
     15 C         -27.9350    0.6857   25.2422 C.ar    1  UNL1       -0.0039
     16 C         -28.9658    0.6655   24.3160 C.ar    1  UNL1        0.0006
     17 C         -29.9987    0.5487   24.6310 C.ar    1  UNL1        0.0114
     18 C         -30.4366    0.5864   26.0527 C.ar    1  UNL1        0.0574
     19 C         -29.4332    0.6912   27.0311 C.ar    1  UNL1        0.0074
     20 CL        -32.0696    0.5095   26.5307 Cl      1  UNL1       -0.0823
     21 C         -30.4289   -1.6411   31.2990 C.2     1  UNL1        0.1785
     22 C         -31.1045   -0.8743   31.6412 C.2     1  UNL1        0.0149
     23 C         -32.4272   -0.9498   32.1817 C.3     1  UNL1        0.0341
@<TRIPOS>BOND
     1     1     2    2
     2     2     3    1
     3     3     4    1
     4     4     5    1
     5     5     6    1
     6     2     7    1
     7     6     7    1
     8     1     8    1
     9     8     9    2
    10     8    10    1
    11     5    11    1
    12    11    12   ar
    13    11    13   ar
    14     3    14    1
    15    18    20    1
    16    10    21    1
    17    21    22    2
    18    22    23    1
    19    14    15   ar
    20    15    16   ar
    21    16    17   ar
    22    17    18   ar
    23    18    19   ar
    24    19    14   ar
