@<TRIPOS>MOLECULE
No_309-gen_results/8p0m/2024-11-26-14-13-15/
 9 9 0 0 0
SMALL
GASTEIGER

@<TRIPOS>ATOM
      1 C         -28.0162   -0.8135   28.8779 C.ar    1  UNL1       -0.0000
      2 C         -28.4690   -0.7850   29.8287 C.ar    1  UNL1       -0.0000
      3 C         -26.5042   -0.7777   28.8766 C.ar    1  UNL1       -0.0000
      4 C         -25.7898   -0.9321   30.0949 C.ar    1  UNL1       -0.0003
      5 C         -28.0297   -0.9980   31.2385 C.ar    1  UNL1       -0.0000
      6 C         -26.6084   -0.9801   31.2756 C.ar    1  UNL1       -0.0000
      7 C         -24.3763   -0.9313   30.1970 C.2     1  UNL1       -0.0046
      8 C         -23.7681   -0.6680   31.2289 C.2     1  UNL1       -0.0258
      9 C         -22.3271   -0.5757   31.2931 C.3     1  UNL1        0.0307
@<TRIPOS>BOND
     1     4     7    1
     2     7     8    2
     3     8     9    1
     4     1     2   ar
     5     2     5   ar
     6     5     6   ar
     7     6     4   ar
     8     4     3   ar
     9     3     1   ar
