@<TRIPOS>MOLECULE
No_3090-gen_results/8p0m/2024-11-26-14-13-15/
 18 19 0 0 0
SMALL
GASTEIGER

@<TRIPOS>ATOM
      1 C         -28.0162   -0.8135   28.8779 C.ar    1  UNL1        0.1017
      2 C         -28.4690   -0.7850   29.8287 C.2     1  UNL1        0.3364
      3 C         -28.1816    0.4277   28.1134 C.ar    1  UNL1        0.0100
      4 C         -27.4498    0.6435   26.8500 C.ar    1  UNL1        0.0169
      5 C         -26.1815    0.0357   26.7145 C.ar    1  UNL1        0.0735
      6 C         -25.7800   -0.9326   27.6938 C.ar    1  UNL1        0.0536
      7 C         -26.5568   -1.2134   28.7413 C.ar    1  UNL1        0.1454
      8 O         -28.5318   -1.9487   30.6145 O.2     1  UNL1       -0.2540
      9 F         -28.9374    0.1498   30.5861 F       1  UNL1       -0.1585
     10 N         -25.3507    0.2980   25.6633 N.pl3   1  UNL1       -0.2124
     11 C         -24.7118    1.4570   25.4656 C.ar    1  UNL1        0.0705
     12 C         -23.2784    1.4323   25.4061 C.ar    1  UNL1        0.0165
     13 C         -25.4289    2.6275   25.7548 C.ar    1  UNL1        0.0165
     14 C         -24.7171    3.9014   25.9268 C.ar    1  UNL1        0.0013
     15 C         -22.5636    2.7057   25.4575 C.ar    1  UNL1        0.0013
     16 C         -23.3042    3.8782   25.7109 C.ar    1  UNL1        0.0001
     17 O         -26.0662   -2.2323   29.5203 O.3     1  UNL1       -0.4712
     18 C         -24.7030   -2.4997   29.3885 C.3     1  UNL1        0.2525
@<TRIPOS>BOND
     1     1     2    1
     2     2     8    2
     3     2     9    1
     4     5    10    1
     5    10    11    1
     6     7    17    1
     7    17    18    1
     8    11    12   ar
     9    12    15   ar
    10    15    16   ar
    11    16    14   ar
    12    14    13   ar
    13    13    11   ar
    14     1     3   ar
    15     3     4   ar
    16     4     5   ar
    17     5     6   ar
    18     6     7   ar
    19     7     1   ar
