@<TRIPOS>MOLECULE
No_3091-gen_results/8p0m/2024-11-26-14-13-15/
 16 17 0 0 0
SMALL
GASTEIGER

@<TRIPOS>ATOM
      1 C         -28.0162   -0.8135   28.8779 C.ar    1  UNL1        0.0114
      2 C         -27.0636   -0.1189   28.6079 C.ar    1  UNL1        0.0577
      3 C         -26.8756    1.1325   28.9134 C.ar    1  UNL1        0.0114
      4 C         -27.9014    1.8066   29.6436 C.ar    1  UNL1        0.0008
      5 C         -29.0458   -0.2316   29.7181 C.ar    1  UNL1        0.0009
      6 C         -27.7521    3.2005   30.0171 C.ar    1  UNL1        0.0000
      7 C         -28.9510    1.0411   30.0482 C.ar    1  UNL1        0.0001
      8 C         -27.2119    3.9647   29.4058 C.ar    1  UNL1       -0.0000
      9 C         -26.8719    5.4065   29.8021 C.ar    1  UNL1       -0.0003
     10 C         -27.3548    5.7823   31.0472 C.ar    1  UNL1       -0.0000
     11 C         -28.3482    3.5414   31.3120 C.ar    1  UNL1        0.0000
     12 C         -28.0803    4.8644   31.8152 C.ar    1  UNL1       -0.0000
     13 CL        -25.7261   -0.8606   27.6603 Cl      1  UNL1       -0.0822
     14 C         -26.0995    6.3385   28.9853 C.2     1  UNL1       -0.0046
     15 C         -25.3725    7.2635   29.5592 C.2     1  UNL1       -0.0258
     16 C         -25.7109    7.6131   30.9650 C.3     1  UNL1        0.0307
@<TRIPOS>BOND
     1     4     6    1
     2     2    13    1
     3     9    14    1
     4    14    15    2
     5    15    16    1
     6     1     2   ar
     7     2     3   ar
     8     3     4   ar
     9     4     7   ar
    10     7     5   ar
    11     5     1   ar
    12     6     8   ar
    13     8     9   ar
    14     9    10   ar
    15    10    12   ar
    16    12    11   ar
    17    11     6   ar
