@<TRIPOS>MOLECULE
No_3092-gen_results/8p0m/2024-11-26-14-13-15/
 23 25 0 0 0
SMALL
GASTEIGER

@<TRIPOS>ATOM
      1 O         -28.1229   -1.3353   28.4874 O.2     1  UNL1       -0.2699
      2 C         -27.4806   -0.4044   28.7094 C.2     1  UNL1        0.2490
      3 C         -26.3804   -0.0867   27.9394 C.ar    1  UNL1        0.0536
      4 N         -27.6664    0.4468   29.8988 N.am    1  UNL1       -0.2755
      5 C         -25.1773   -0.4388   28.3946 C.ar    1  UNL1        0.0045
      6 C         -26.5259    0.6036   26.6867 C.ar    1  UNL1        0.0044
      7 C         -23.9372    0.0372   27.6524 C.ar    1  UNL1        0.0001
      8 C         -25.3818    0.9698   25.9434 C.ar    1  UNL1        0.0001
      9 C         -24.1031    0.7250   26.4412 C.ar    1  UNL1        0.0000
     10 C         -28.7588    0.1102   30.7851 C.3     1  UNL1        0.0937
     11 C         -26.8485    1.5208   30.1933 C.3     1  UNL1        0.1049
     12 C         -27.0657    2.4540   30.6331 C.3     1  UNL1        0.1232
     13 C         -27.7791    2.4576   31.8028 C.3     1  UNL1        0.0147
     14 C         -28.9636    1.4063   31.6605 C.3     1  UNL1        0.0221
     15 C         -27.8112    0.8885   26.0995 C.ar    1  UNL1        0.0001
     16 C         -28.3876    2.0405   26.5120 C.ar    1  UNL1        0.0000
     17 C         -28.3346    0.1106   25.1220 C.ar    1  UNL1        0.0000
     18 C         -29.7439    2.3512   26.2028 C.ar    1  UNL1        0.0000
     19 C         -29.6252    0.3669   24.6481 C.ar    1  UNL1        0.0000
     20 C         -30.3163    1.5309   25.1367 C.ar    1  UNL1        0.0000
     21 C         -25.7730    3.3646   31.0589 C.2     1  UNL1        0.3660
     22 O         -24.7151    3.0932   30.4812 O.co2   1  UNL1       -0.2456
     23 O         -25.8451    4.3789   31.8623 O.co2   1  UNL1       -0.2456
@<TRIPOS>BOND
     1     1     2    2
     2     2     3    1
     3     2     4   am
     4     4    10    1
     5     4    11    1
     6    12    13    1
     7    13    14    1
     8     6    15    1
     9    12    21    1
    10    21    22   ar
    11    21    23   ar
    12    10    14    1
    13    12    11    1
    14    15    16   ar
    15    16    18   ar
    16    18    20   ar
    17    20    19   ar
    18    19    17   ar
    19    17    15   ar
    20     3     5   ar
    21     5     7   ar
    22     7     9   ar
    23     9     8   ar
    24     8     6   ar
    25     6     3   ar
