@<TRIPOS>MOLECULE
No_3093-gen_results/8p0m/2024-11-26-14-13-15/
 10 11 0 0 0
SMALL
GASTEIGER

@<TRIPOS>ATOM
      1 C         -28.0162   -0.8135   28.8779 C.ar    1  UNL1        0.0000
      2 C         -28.4690   -0.7850   29.8287 C.ar    1  UNL1        0.0000
      3 C         -27.1356    0.2359   28.5352 C.ar    1  UNL1        0.0000
      4 C         -26.8050    1.0509   29.2763 C.ar    1  UNL1        0.0000
      5 C         -27.3158    1.1492   30.6054 C.ar    1  UNL1        0.0000
      6 C         -28.1917    0.1430   30.9488 C.ar    1  UNL1        0.0000
      7 C         -26.4831    0.2096   27.1281 C.ar    1  UNL1        0.0000
      8 C         -25.1459    0.4400   27.0687 C.ar    1  UNL1        0.0000
      9 C         -24.5533    1.3378   28.0204 C.ar    1  UNL1        0.0000
     10 C         -25.3149    1.5247   29.2710 C.ar    1  UNL1        0.0000
@<TRIPOS>BOND
     1     4    10   ar
     2    10     9   ar
     3     9     8   ar
     4     8     7   ar
     5     7     3   ar
     6     1     2   ar
     7     2     6   ar
     8     6     5   ar
     9     5     4   ar
    10     4     3   ar
    11     3     1   ar
