@<TRIPOS>MOLECULE
No_3094-gen_results/8p0m/2024-11-26-14-13-15/
 35 38 0 0 0
SMALL
GASTEIGER

@<TRIPOS>ATOM
      1 O         -28.1229   -1.3353   28.4874 O.2     1  UNL1       -0.2694
      2 C         -27.0637   -0.8242   28.8687 C.2     1  UNL1        0.2577
      3 C         -26.4017   -0.0623   28.6224 C.ar    1  UNL1        0.0837
      4 N         -26.3805   -1.7991   29.9619 N.am    1  UNL1       -0.2186
      5 C         -26.7771    1.0571   27.7896 C.ar    1  UNL1        0.1430
      6 C         -25.9129    1.9788   27.2177 C.ar    1  UNL1        0.0368
      7 C         -24.5242    2.0312   27.6989 C.ar    1  UNL1       -0.0001
      8 C         -24.1056    1.0476   28.5575 C.ar    1  UNL1       -0.0097
      9 C         -24.9060    0.0666   28.9860 C.ar    1  UNL1       -0.0158
     10 C         -25.2752   -1.5559   30.5959 C.3     1  UNL1        0.1063
     11 C         -24.3947   -0.7661   30.0325 C.3     1  UNL1        0.0483
     12 C         -22.6433    1.1228   28.9216 C.3     1  UNL1        0.0989
     13 N         -21.9392    0.4524   28.5624 N.3     1  UNL1       -0.2665
     14 C         -21.5462   -0.6610   28.6469 C.3     1  UNL1        0.0899
     15 C         -20.9496    1.1882   27.6126 C.3     1  UNL1        0.0899
     16 C         -27.3326   -2.8971   30.4692 C.2     1  UNL1        0.3120
     17 C         -26.9633   -4.1467   30.0138 C.2     1  UNL1        0.3384
     18 O         -25.9478   -4.3303   29.3025 O.2     1  UNL1       -0.2616
     19 N         -27.8150   -5.1686   30.3061 N.am    1  UNL1       -0.0797
     20 O         -28.2427   -2.5889   31.2510 O.2     1  UNL1       -0.2644
     21 O         -28.0107    1.0182   27.2772 O.3     1  UNL1       -0.4705
     22 C         -28.8830    1.9557   27.8592 C.3     1  UNL1        0.2320
     23 C         -30.0905    1.5125   28.1106 C.ar    1  UNL1        0.0212
     24 C         -30.5713    0.2651   27.7867 C.ar    1  UNL1       -0.0007
     25 C         -31.8875   -0.2360   28.1028 C.ar    1  UNL1       -0.0002
     26 C         -32.2951   -1.5193   27.7767 C.ar    1  UNL1       -0.0000
     27 C         -32.8764   -2.3279   28.6366 C.ar    1  UNL1       -0.0000
     28 C         -33.5542   -1.7751   29.7744 C.ar    1  UNL1       -0.0000
     29 C         -33.2360   -0.4569   30.1167 C.ar    1  UNL1       -0.0000
     30 C         -32.3785    0.1826   29.4244 C.ar    1  UNL1       -0.0000
     31 C         -32.0375    1.4825   30.0207 C.ar    1  UNL1       -0.0002
     32 C         -30.7657    2.1031   29.3676 C.ar    1  UNL1       -0.0008
     33 C         -30.3046    3.3692   29.8889 C.2     1  UNL1       -0.0048
     34 C         -30.9283    4.2626   30.1770 C.2     1  UNL1       -0.0258
     35 C         -32.3673    4.3563   30.1028 C.3     1  UNL1        0.0307
@<TRIPOS>BOND
     1     1     2    2
     2     2     3    1
     3     2     4   am
     4     4    10    1
     5     9    11    1
     6     8    12    1
     7    12    13    1
     8    13    14    1
     9    13    15    1
    10     4    16   am
    11    16    17    1
    12    17    18    2
    13    17    19   am
    14    16    20    2
    15     5    21    1
    16    21    22    1
    17    32    33    1
    18    33    34    2
    19    34    35    1
    20    22    23    1
    21    11    10    1
    22    23    24   ar
    23    24    25   ar
    24    30    31   ar
    25    31    32   ar
    26    32    23   ar
    27     3     5   ar
    28     5     6   ar
    29     6     7   ar
    30     7     8   ar
    31     8     9   ar
    32     9     3   ar
    33    25    26   ar
    34    26    27   ar
    35    27    28   ar
    36    28    29   ar
    37    29    30   ar
    38    30    25   ar
