@<TRIPOS>MOLECULE
No_3095-gen_results/8p0m/2024-11-26-14-13-15/
 12 12 0 0 0
SMALL
GASTEIGER

@<TRIPOS>ATOM
      1 C         -28.0162   -0.8135   28.8779 C.2     1  UNL1        0.0095
      2 C         -28.4690   -0.7850   29.8287 C.2     1  UNL1       -0.0022
      3 C         -26.5455   -0.8762   28.8500 C.3     1  UNL1        0.2159
      4 C         -25.8041   -1.0324   30.0571 C.3     1  UNL1        0.2699
      5 C         -26.5373   -1.0386   31.2171 C.2     1  UNL1        0.0168
      6 C         -27.8843   -0.9532   31.1862 C.2     1  UNL1       -0.0019
      7 C         -24.3655   -1.1134   30.0483 C.3     1  UNL1        0.4309
      8 F         -23.9722   -1.9246   30.7322 F       1  UNL1       -0.1668
      9 F         -23.8378    0.0875   30.5213 F       1  UNL1       -0.1668
     10 F         -23.8243   -1.1741   28.7995 F       1  UNL1       -0.1668
     11 F         -25.5265   -2.0611   29.7764 F       1  UNL1       -0.2236
     12 O         -25.9628   -1.4432   27.5753 O.3     1  UNL1       -0.2148
@<TRIPOS>BOND
     1     1     2    2
     2     1     3    1
     3     3     4    1
     4     4     5    1
     5     2     6    1
     6     5     6    2
     7     4     7    1
     8     7     8    1
     9     7     9    1
    10     7    10    1
    11     4    11    1
    12     3    12    1
