@<TRIPOS>MOLECULE
No_3096-gen_results/8p0m/2024-11-26-14-13-15/
 10 9 0 0 0
SMALL
GASTEIGER

@<TRIPOS>ATOM
      1 C         -28.0162   -0.8135   28.8779 C.3     1  UNL1        0.4259
      2 C         -27.0636   -0.1189   28.6079 C.3     1  UNL1        0.4688
      3 F         -27.0425    0.2440   27.4277 F       1  UNL1       -0.1641
      4 O         -27.8750   -1.6429   29.9472 O.3     1  UNL1       -0.4023
      5 F         -25.8157   -0.7309   28.8188 F       1  UNL1       -0.1641
      6 F         -26.9249    1.0507   29.3308 F       1  UNL1       -0.1641
      7 F         -29.1507   -0.7587   28.5206 F       1  UNL1       -0.1786
      8 C         -28.5890   -2.9032   30.1506 C.2     1  UNL1        0.4075
      9 CL        -29.9566   -2.9468   30.0830 Cl      1  UNL1        0.0018
     10 O         -27.7659   -3.9277   30.4163 O.2     1  UNL1       -0.2309
@<TRIPOS>BOND
     1     1     2    1
     2     2     3    1
     3     1     4    1
     4     2     5    1
     5     2     6    1
     6     1     7    1
     7     4     8    1
     8     8     9    1
     9     8    10    2
