@<TRIPOS>MOLECULE
No_3097-gen_results/8p0m/2024-11-26-14-13-15/
 17 18 0 0 0
SMALL
GASTEIGER

@<TRIPOS>ATOM
      1 C         -28.0162   -0.8135   28.8779 C.ar    1  UNL1       -0.0016
      2 C         -27.0636   -0.1189   28.6079 C.ar    1  UNL1       -0.0180
      3 C         -26.9716    0.7139   27.5060 C.ar    1  UNL1       -0.0016
      4 C         -28.1053    0.7744   26.6421 C.ar    1  UNL1        0.0293
      5 C         -29.2008    0.1044   27.0527 C.ar    1  UNL1        0.1401
      6 C         -29.2096   -0.6029   28.1853 C.ar    1  UNL1        0.0293
      7 F         -30.2828    0.2138   26.2960 F       1  UNL1       -0.2042
      8 C         -25.7134   -0.2153   29.4104 C.3     1  UNL1        0.0486
      9 C         -25.0723    0.9657   29.8007 C.3     1  UNL1        0.0351
     10 C         -24.0746    1.3715   28.7583 C.ar    1  UNL1       -0.0215
     11 C         -22.8055    1.1430   28.9515 C.ar    1  UNL1       -0.0042
     12 C         -21.8360    1.4220   27.9061 C.ar    1  UNL1       -0.0003
     13 C         -22.2854    2.0261   26.7401 C.ar    1  UNL1       -0.0000
     14 C         -23.6347    2.3527   26.6229 C.ar    1  UNL1       -0.0003
     15 C         -24.5296    2.0439   27.6217 C.ar    1  UNL1       -0.0042
     16 C         -25.1423   -1.4775   29.6930 C.2     1  UNL1       -0.0217
     17 C         -24.7920   -1.6737   30.9338 C.2     1  UNL1       -0.0046
@<TRIPOS>BOND
     1     5     7    1
     2     2     8    1
     3     8     9    1
     4     9    10    1
     5     8    16    1
     6    16    17    2
     7     1     2   ar
     8     2     3   ar
     9     3     4   ar
    10     4     5   ar
    11     5     6   ar
    12     6     1   ar
    13    10    11   ar
    14    11    12   ar
    15    12    13   ar
    16    13    14   ar
    17    14    15   ar
    18    15    10   ar
