@<TRIPOS>MOLECULE
No_3098-gen_results/8p0m/2024-11-26-14-13-15/
 12 12 0 0 0
SMALL
GASTEIGER

@<TRIPOS>ATOM
      1 C         -28.0162   -0.8135   28.8779 C.ar    1  UNL1        0.0279
      2 C         -27.0636   -0.1189   28.6079 C.ar    1  UNL1        0.0119
      3 C         -25.7923   -0.4302   29.0761 C.ar    1  UNL1        0.1366
      4 C         -25.5756   -1.5654   29.9363 C.ar    1  UNL1        0.0316
      5 C         -26.7354   -2.3004   30.2173 C.ar    1  UNL1        0.0319
      6 C         -27.9184   -1.9537   29.7629 C.ar    1  UNL1        0.1400
      7 F         -28.9649   -2.6957   30.0722 F       1  UNL1       -0.2042
      8 F         -24.6834    0.3106   28.8398 F       1  UNL1       -0.2045
      9 C         -27.1117    1.1168   27.7416 C.3     1  UNL1        0.0543
     10 C         -26.7276    1.0345   26.4455 C.2     1  UNL1       -0.0259
     11 C         -25.9766    0.0749   26.0236 C.2     1  UNL1       -0.0300
     12 C         -25.5443   -0.0144   24.6128 C.3     1  UNL1        0.0304
@<TRIPOS>BOND
     1     6     7    1
     2     3     8    1
     3     2     9    1
     4     9    10    1
     5    10    11    2
     6    11    12    1
     7     1     2   ar
     8     2     3   ar
     9     3     4   ar
    10     4     5   ar
    11     5     6   ar
    12     6     1   ar
