@<TRIPOS>MOLECULE
No_3099-gen_results/8p0m/2024-11-26-14-13-15/
 15 16 0 0 0
SMALL
GASTEIGER

@<TRIPOS>ATOM
      1 C         -28.0162   -0.8135   28.8779 C.ar    1  UNL1        0.0001
      2 C         -27.0636   -0.1190   28.6079 C.ar    1  UNL1        0.0045
      3 C         -26.9716    0.7139   27.5060 C.ar    1  UNL1        0.0563
      4 C         -25.8205    1.4909   27.1160 C.ar    1  UNL1        0.0004
      5 C         -24.6562    1.4242   27.9180 C.ar    1  UNL1       -0.0220
      6 C         -24.6847    0.5901   29.0659 C.ar    1  UNL1       -0.0043
      7 C         -25.8099   -0.1266   29.3338 C.ar    1  UNL1       -0.0002
      8 C         -28.0445   -1.5734   30.1690 C.ar    1  UNL1        0.0000
      9 C         -26.8173   -1.7595   30.8704 C.ar    1  UNL1       -0.0000
     10 C         -25.7143   -0.8511   30.6023 C.ar    1  UNL1       -0.0000
     11 C         -23.4496    2.2109   27.5602 C.3     1  UNL1        0.0264
     12 C         -22.3857    1.3489   26.9961 C.3     1  UNL1        0.0050
     13 C         -28.0901    0.7953   26.5358 C.2     1  UNL1        0.2842
     14 O         -29.1266    0.9069   26.7600 O.2     1  UNL1       -0.2667
     15 N         -27.7080    0.5622   25.1955 N.am    1  UNL1       -0.0837
@<TRIPOS>BOND
     1     5    11    1
     2    11    12    1
     3     3    13    1
     4    13    14    2
     5    13    15   am
     6     2     3   ar
     7     3     4   ar
     8     4     5   ar
     9     5     6   ar
    10     6     7   ar
    11     1     2   ar
    12     2     7   ar
    13     7    10   ar
    14    10     9   ar
    15     9     8   ar
    16     8     1   ar
