@<TRIPOS>MOLECULE
No_3100-gen_results/8p0m/2024-11-26-14-13-15/
 35 38 0 0 0
SMALL
GASTEIGER

@<TRIPOS>ATOM
      1 C         -28.0162   -0.8135   28.8779 C.3     1  UNL1        0.0528
      2 C         -27.0636   -0.1189   28.6079 C.ar    1  UNL1       -0.0117
      3 C         -27.0010    0.6913   27.4910 C.ar    1  UNL1        0.0761
      4 C         -25.8548    1.4825   27.0830 C.ar    1  UNL1        0.0060
      5 C         -24.9008    1.3894   27.5922 C.ar    1  UNL1       -0.0038
      6 C         -24.6783    0.5764   28.8299 C.ar    1  UNL1       -0.0186
      7 C         -25.7704   -0.2051   29.2800 C.ar    1  UNL1       -0.0077
      8 C         -28.6429   -0.4461   30.2385 C.ar    1  UNL1       -0.0181
      9 C         -29.6542   -0.5034   30.5380 C.ar    1  UNL1       -0.0040
     10 C         -30.1931   -0.1354   31.8946 C.ar    1  UNL1       -0.0006
     11 C         -29.2882    0.2689   32.8459 C.ar    1  UNL1       -0.0040
     12 C         -27.9300    0.2557   32.5094 C.ar    1  UNL1       -0.0193
     13 C         -27.5536   -0.0781   31.3033 C.ar    1  UNL1       -0.0079
     14 C         -23.3637    0.4897   29.5215 C.3     1  UNL1        0.0489
     15 C         -22.2813    0.2090   28.7368 C.2     1  UNL1        0.0382
     16 C         -21.3457    0.9471   28.6797 C.2     1  UNL1        0.2749
     17 C         -23.4350    0.4966   30.9201 C.3     1  UNL1        0.0095
     18 F         -21.4620    2.1732   28.8197 F       1  UNL1       -0.1724
     19 F         -20.2143    0.5426   29.3887 F       1  UNL1       -0.1724
     20 C         -28.2767    0.8026   26.6976 C.2     1  UNL1        0.3875
     21 O         -28.3205    0.6647   25.5769 O.co2   1  UNL1       -0.2406
     22 O         -29.3802    1.0048   27.3326 O.co2   1  UNL1       -0.2406
     23 C         -26.9270    0.6536   33.5205 C.3     1  UNL1        0.0377
     24 C         -25.6306    0.2771   33.3239 C.3     1  UNL1        0.0081
     25 C         -27.4130    0.2696   34.9484 C.3     1  UNL1        0.0075
     26 C         -26.9536    2.3077   33.5293 C.ar    1  UNL1       -0.0190
     27 C         -26.1887    2.8917   32.6141 C.ar    1  UNL1       -0.0040
     28 C         -26.2115    4.3910   32.5158 C.ar    1  UNL1       -0.0003
     29 C         -26.7794    4.9300   33.3279 C.ar    1  UNL1       -0.0000
     30 C         -27.5946    4.4246   34.3919 C.ar    1  UNL1       -0.0003
     31 C         -27.6196    3.0463   34.5158 C.ar    1  UNL1       -0.0040
     32 C         -26.7599   -0.5975   35.6347 C.3     1  UNL1        0.0006
     33 C         -24.9399   -0.7679   34.0579 C.3     1  UNL1        0.0007
     34 C         -25.4530   -1.0598   35.2651 C.3     1  UNL1        0.0000
     35 C         -28.6442    0.8138   35.4700 C.3     1  UNL1        0.0007
@<TRIPOS>BOND
     1     1     2    1
     2     1     8    1
     3     6    14    1
     4    14    15    1
     5    15    16    2
     6    14    17    1
     7    16    18    1
     8    16    19    1
     9     3    20    1
    10    20    21   ar
    11    20    22   ar
    12    12    23    1
    13    23    24    1
    14    23    25    1
    15    23    26    1
    16    32    34    1
    17    33    34    1
    18    25    35    1
    19    24    33    1
    20    32    25    1
    21    26    27   ar
    22    27    28   ar
    23    28    29   ar
    24    29    30   ar
    25    30    31   ar
    26    31    26   ar
    27     2     3   ar
    28     3     4   ar
    29     4     5   ar
    30     5     6   ar
    31     6     7   ar
    32     7     2   ar
    33     8     9   ar
    34     9    10   ar
    35    10    11   ar
    36    11    12   ar
    37    12    13   ar
    38    13     8   ar
