@<TRIPOS>MOLECULE
No_3102-gen_results/8p0m/2024-11-26-14-13-15/
 15 16 0 0 0
SMALL
GASTEIGER

@<TRIPOS>ATOM
      1 C         -28.0162   -0.8135   28.8779 C.2     1  UNL1       -0.0085
      2 C         -27.0636   -0.1189   28.6079 C.2     1  UNL1       -0.0442
      3 C         -26.9716    0.7139   27.5060 C.3     1  UNL1        0.0224
      4 C         -25.8206    1.4910   27.1160 C.3     1  UNL1        0.0104
      5 C         -24.8580    1.3421   27.6008 C.3     1  UNL1        0.0440
      6 C         -24.6224    0.5295   28.8144 C.3     1  UNL1        0.0104
      7 C         -25.7344   -0.1811   29.1908 C.3     1  UNL1        0.0224
      8 C         -28.6330   -0.4621   30.2455 C.ar    1  UNL1       -0.0006
      9 C         -29.6709   -0.4110   30.5321 C.ar    1  UNL1       -0.0000
     10 C         -30.2701   -0.0445   31.2685 C.ar    1  UNL1       -0.0000
     11 C         -29.5387    0.3988   32.5477 C.ar    1  UNL1       -0.0000
     12 C         -28.2033    0.2954   32.4881 C.ar    1  UNL1       -0.0000
     13 C         -27.6747   -0.1166   31.3325 C.ar    1  UNL1       -0.0000
     14 C         -23.5185    2.1198   27.2472 C.2     1  UNL1        0.0953
     15 N         -23.5420    3.2160   26.8015 N.2     1  UNL1       -0.1514
@<TRIPOS>BOND
     1     1     2    2
     2     2     3    1
     3     3     4    1
     4     4     5    1
     5     5     6    1
     6     2     7    1
     7     6     7    1
     8     1     8    1
     9     5    14    1
    10    14    15    2
    11     8     9   ar
    12     9    10   ar
    13    10    11   ar
    14    11    12   ar
    15    12    13   ar
    16    13     8   ar
