@<TRIPOS>MOLECULE
No_3103-gen_results/8p0m/2024-11-26-14-13-15/
 5 4 0 0 0
SMALL
GASTEIGER

@<TRIPOS>ATOM
      1 CL        -28.1493   -0.8198   28.9079 Cl      1  UNL1       -0.1086
      2 C         -26.9116   -0.0797   28.9452 C.3     1  UNL1        0.1205
      3 C         -25.9665   -0.2123   29.6235 C.2     1  UNL1       -0.0133
      4 C         -25.7583   -1.3810   30.4150 C.2     1  UNL1       -0.0291
      5 C         -26.9319   -2.2793   30.3894 C.3     1  UNL1        0.0304
@<TRIPOS>BOND
     1     1     2    1
     2     2     3    1
     3     3     4    2
     4     4     5    1
