@<TRIPOS>MOLECULE
No_3104-gen_results/8p0m/2024-11-26-14-13-15/
 11 11 0 0 0
SMALL
GASTEIGER

@<TRIPOS>ATOM
      1 C         -28.0162   -0.8135   28.8779 C.ar    1  UNL1       -0.0000
      2 C         -28.4690   -0.7850   29.8287 C.ar    1  UNL1        0.0022
      3 C         -26.5455   -0.8762   28.8500 C.ar    1  UNL1        0.0294
      4 C         -25.8041   -1.0324   30.0571 C.ar    1  UNL1        0.1401
      5 C         -26.5373   -1.0386   31.2171 C.ar    1  UNL1        0.0294
      6 C         -27.8843   -0.9532   31.1862 C.ar    1  UNL1       -0.0000
      7 F         -24.5255   -1.0850   30.0372 F       1  UNL1       -0.2042
      8 C         -30.0667   -0.7185   29.9317 C.3     1  UNL1        0.1515
      9 N         -30.7045   -1.7084   30.2676 N.2     1  UNL1       -0.2687
     10 C         -31.7687   -2.1599   29.6760 C.2     1  UNL1        0.0675
     11 C         -32.3697   -3.4396   30.0549 C.3     1  UNL1        0.0529
@<TRIPOS>BOND
     1     4     7    1
     2     2     8    1
     3     8     9    1
     4     9    10    2
     5    10    11    1
     6     1     2   ar
     7     2     6   ar
     8     6     5   ar
     9     5     4   ar
    10     4     3   ar
    11     3     1   ar
