@<TRIPOS>MOLECULE
No_3106-gen_results/8p0m/2024-11-26-14-13-15/
 5 4 0 0 0
SMALL
GASTEIGER

@<TRIPOS>ATOM
      1 P         -27.9505   -0.5786   29.0402 P.3     1  UNL1        0.5592
      2 O         -27.2401    0.0613   28.4283 O.2     1  UNL1       -0.2201
      3 O         -29.3549   -0.6223   28.6906 O.3     1  UNL1       -0.1130
      4 O         -27.8749   -0.0335   30.5795 O.3     1  UNL1       -0.1130
      5 O         -27.4929   -2.0533   29.4368 O.3     1  UNL1       -0.1130
@<TRIPOS>BOND
     1     1     2    2
     2     1     3    1
     3     1     4    1
     4     1     5    1
