@<TRIPOS>MOLECULE
No_3107-gen_results/8p0m/2024-11-26-14-13-15/
 30 33 0 0 0
SMALL
GASTEIGER

@<TRIPOS>ATOM
      1 C         -28.0162   -0.8135   28.8779 C.ar    1  UNL1        0.0181
      2 C         -28.4690   -0.7850   29.8287 C.ar    1  UNL1        0.0891
      3 C         -26.5042   -0.7777   28.8766 C.ar    1  UNL1        0.0014
      4 C         -25.8103   -0.8531   30.1028 C.ar    1  UNL1        0.0015
      5 C         -27.9906   -0.8916   31.2257 C.ar    1  UNL1        0.0181
      6 C         -26.6042   -0.8676   31.2652 C.ar    1  UNL1        0.0014
      7 N         -29.9538   -0.7893   29.6417 N.pl3   1  UNL1       -0.1281
      8 N         -30.4681   -0.1368   28.8174 N.pl3   1  UNL1       -0.1281
      9 C         -31.1506    0.8565   28.8483 C.ar    1  UNL1        0.0893
     10 C         -31.5669    1.3662   30.0921 C.ar    1  UNL1        0.0212
     11 C         -31.5280    1.5608   27.6111 C.ar    1  UNL1        0.0212
     12 C         -32.4028    2.5543   30.1504 C.ar    1  UNL1        0.0389
     13 C         -32.3560    2.7436   27.7697 C.ar    1  UNL1        0.0389
     14 C         -32.7380    3.2066   28.9946 C.ar    1  UNL1        0.1455
     15 O         -33.4850    4.3194   29.0345 O.3     1  UNL1       -0.4508
     16 C         -24.3871   -0.8326   30.1430 C.ar    1  UNL1        0.0178
     17 C         -23.6886   -1.3151   30.7916 C.ar    1  UNL1        0.0015
     18 C         -23.7722    0.0175   29.0408 C.ar    1  UNL1        0.0870
     19 C         -22.3774    0.1620   29.0078 C.ar    1  UNL1        0.0526
     20 C         -22.2335   -1.2271   30.9610 C.ar    1  UNL1        0.0002
     21 C         -21.6266   -0.4740   29.9122 C.ar    1  UNL1        0.0044
     22 C         -21.7628    1.0034   27.9510 C.ar    1  UNL1        0.1740
     23 N         -20.6727    1.6574   28.1834 N.pl3   1  UNL1       -0.1071
     24 N         -22.5190    1.3514   26.9289 N.ar    1  UNL1       -0.1928
     25 C         -23.8107    1.1664   26.8020 C.ar    1  UNL1        0.2578
     26 N         -24.4883    0.5232   27.9392 N.ar    1  UNL1       -0.2110
     27 N         -24.5281    1.6357   25.8578 N.pl3   1  UNL1       -0.0860
     28 C         -34.2731    4.7185   28.2930 C.2     1  UNL1        0.1750
     29 C         -34.3742    4.4298   27.1494 C.2     1  UNL1        0.0148
     30 C         -35.3960    5.0700   26.2699 C.3     1  UNL1        0.0341
@<TRIPOS>BOND
     1     2     7    1
     2     7     8    1
     3    14    15    1
     4     4    16    1
     5    22    23    1
     6    25    27    1
     7    15    28    1
     8    28    29    2
     9    29    30    1
    10     8     9    1
    11    19    22   ar
    12    22    24   ar
    13    24    25   ar
    14    25    26   ar
    15    26    18   ar
    16    16    17   ar
    17    17    20   ar
    18    20    21   ar
    19    21    19   ar
    20    19    18   ar
    21    18    16   ar
    22     9    10   ar
    23    10    12   ar
    24    12    14   ar
    25    14    13   ar
    26    13    11   ar
    27    11     9   ar
    28     1     2   ar
    29     2     5   ar
    30     5     6   ar
    31     6     4   ar
    32     4     3   ar
    33     3     1   ar
