@<TRIPOS>MOLECULE
No_3108-gen_results/8p0m/2024-11-26-14-13-15/
 13 14 0 0 0
SMALL
GASTEIGER

@<TRIPOS>ATOM
      1 C         -28.0162   -0.8135   28.8779 C.ar    1  UNL1        0.0025
      2 C         -28.4690   -0.7850   29.8287 C.ar    1  UNL1        0.0343
      3 C         -27.1356    0.2359   28.5352 C.ar    1  UNL1       -0.0189
      4 C         -26.8745    1.2825   29.3982 C.ar    1  UNL1        0.0308
      5 C         -28.3613    0.1987   30.9244 C.ar    1  UNL1        0.0068
      6 C         -27.5277    1.2234   30.6356 C.ar    1  UNL1        0.0030
      7 C         -26.3987    0.2949   27.2279 C.3     1  UNL1        0.0269
      8 C         -25.8882    1.5487   26.8334 C.3     1  UNL1        0.0124
      9 C         -25.5177    2.4958   27.7684 C.3     1  UNL1        0.0623
     10 C         -26.1831    2.4486   29.0453 C.2     1  UNL1        0.1723
     11 O         -25.9569    3.4700   29.8828 O.2     1  UNL1       -0.2914
     12 C         -24.7477    3.7114   27.3187 C.3     1  UNL1        0.0081
     13 BR        -29.5459   -2.4040   30.2719 Br      1  UNL1       -0.0490
@<TRIPOS>BOND
     1     3     7    1
     2     7     8    1
     3     4    10    1
     4     9    10    1
     5    10    11    2
     6     9    12    1
     7     2    13    1
     8     8     9    1
     9     1     2   ar
    10     2     5   ar
    11     5     6   ar
    12     6     4   ar
    13     4     3   ar
    14     3     1   ar
