@<TRIPOS>MOLECULE
No_3109-gen_results/8p0m/2024-11-26-14-13-15/
 13 13 0 0 0
SMALL
GASTEIGER

@<TRIPOS>ATOM
      1 C         -28.0162   -0.8135   28.8779 C.3     1  UNL1        0.3410
      2 C         -27.0636   -0.1189   28.6079 C.ar    1  UNL1        0.0436
      3 C         -26.9287    1.1713   29.0083 C.ar    1  UNL1        0.0011
      4 C         -25.7702    2.0341   28.6884 C.ar    1  UNL1        0.0037
      5 C         -24.7141    1.4431   27.9188 C.ar    1  UNL1        0.0714
      6 C         -24.8590    0.0783   27.5836 C.ar    1  UNL1        0.0037
      7 C         -25.9647   -0.6606   27.9164 C.ar    1  UNL1        0.0011
      8 F         -27.8152   -2.0223   29.4811 F       1  UNL1       -0.1933
      9 F         -29.2151   -0.5747   28.7340 F       1  UNL1       -0.1933
     10 C         -23.5407    2.1511   27.5672 C.3     1  UNL1        0.4186
     11 F         -22.6685    1.5851   27.1001 F       1  UNL1       -0.1659
     12 F         -23.0311    2.8006   28.6999 F       1  UNL1       -0.1659
     13 F         -23.9145    3.2243   26.7822 F       1  UNL1       -0.1659
@<TRIPOS>BOND
     1     1     2    1
     2     1     8    1
     3     1     9    1
     4     5    10    1
     5    10    11    1
     6    10    12    1
     7    10    13    1
     8     2     3   ar
     9     3     4   ar
    10     4     5   ar
    11     5     6   ar
    12     6     7   ar
    13     7     2   ar
