@<TRIPOS>MOLECULE
No_311-gen_results/8p0m/2024-11-26-14-13-15/
 17 17 0 0 0
SMALL
GASTEIGER

@<TRIPOS>ATOM
      1 C         -28.0162   -0.8135   28.8779 C.ar    1  UNL1        0.0420
      2 C         -27.0636   -0.1190   28.6079 C.ar    1  UNL1        0.0030
      3 C         -25.7923   -0.4302   29.0761 C.ar    1  UNL1       -0.0036
      4 C         -25.5756   -1.5654   29.9363 C.ar    1  UNL1        0.0030
      5 C         -26.7354   -2.3004   30.2173 C.ar    1  UNL1        0.0420
      6 C         -27.9184   -1.9537   29.7629 C.ar    1  UNL1        0.1957
      7 O         -29.0001   -2.7012   30.1151 O.3     1  UNL1       -0.2866
      8 C         -24.5290    0.3490   28.7998 C.2     1  UNL1       -0.0164
      9 C         -24.4808    1.2113   27.7998 C.2     1  UNL1        0.0006
     10 C         -23.2478    1.8974   27.4951 C.2     1  UNL1        0.0600
     11 C         -22.0497    1.5890   28.1642 C.2     1  UNL1        0.2788
     12 C         -23.3926    0.2168   29.6790 C.3     1  UNL1        0.0986
     13 C         -22.1330    0.8031   29.2514 C.3     1  UNL1        0.3229
     14 F         -20.9549    2.2094   27.9126 F       1  UNL1       -0.1720
     15 F         -21.7043    0.9518   27.3712 F       1  UNL1       -0.1720
     16 F         -21.1653    0.4461   30.0504 F       1  UNL1       -0.1981
     17 F         -22.0168    0.7855   30.2714 F       1  UNL1       -0.1981
@<TRIPOS>BOND
     1     6     7    1
     2     3     8    1
     3     8     9    2
     4     9    10    1
     5    10    11    2
     6     8    12    1
     7    12    13    1
     8    11    14    1
     9    11    15    1
    10    13    16    1
    11    13    17    1
    12     1     2   ar
    13     2     3   ar
    14     3     4   ar
    15     4     5   ar
    16     5     6   ar
    17     6     1   ar
