@<TRIPOS>MOLECULE
No_3110-gen_results/8p0m/2024-11-26-14-13-15/
 20 22 0 0 0
SMALL
GASTEIGER

@<TRIPOS>ATOM
      1 C         -28.0162   -0.8135   28.8779 C.ar    1  UNL1        0.0000
      2 C         -27.0636   -0.1189   28.6079 C.ar    1  UNL1        0.0000
      3 C         -26.9287    1.1713   29.0083 C.ar    1  UNL1        0.0000
      4 C         -27.9560    1.7411   29.7840 C.ar    1  UNL1        0.0000
      5 C         -29.0569   -0.3271   29.7466 C.ar    1  UNL1        0.0000
      6 C         -28.9828    0.9722   30.1516 C.ar    1  UNL1        0.0000
      7 C         -25.8815   -0.6260   27.7945 C.2     1  UNL1        0.0000
      8 C         -25.4215    0.1302   26.7096 C.2     1  UNL1        0.0000
      9 C         -25.4008    1.4536   26.6605 C.ar    1  UNL1        0.0000
     10 C         -24.3949    2.0228   26.9367 C.ar    1  UNL1        0.0000
     11 C         -24.2328    3.5142   26.8204 C.ar    1  UNL1        0.0000
     12 C         -25.4429    4.1951   26.6004 C.ar    1  UNL1        0.0000
     13 C         -26.4421    2.4762   26.4708 C.ar    1  UNL1        0.0000
     14 C         -26.4455    3.6769   26.3781 C.ar    1  UNL1        0.0000
     15 C         -27.7936    3.1709   30.2338 C.ar    1  UNL1        0.0000
     16 C         -26.5584    3.7400   30.1776 C.ar    1  UNL1        0.0000
     17 C         -26.3847    5.0800   30.6312 C.ar    1  UNL1        0.0000
     18 C         -27.4216    5.8588   30.9294 C.ar    1  UNL1        0.0000
     19 C         -28.6942    5.2742   30.9484 C.ar    1  UNL1        0.0000
     20 C         -28.8886    3.9481   30.5990 C.ar    1  UNL1        0.0000
@<TRIPOS>BOND
     1     2     7    1
     2     7     8    2
     3     8     9    1
     4     4    15    1
     5    15    16   ar
     6    16    17   ar
     7    17    18   ar
     8    18    19   ar
     9    19    20   ar
    10    20    15   ar
    11     1     2   ar
    12     2     3   ar
    13     3     4   ar
    14     4     6   ar
    15     6     5   ar
    16     5     1   ar
    17     9    10   ar
    18    10    11   ar
    19    11    12   ar
    20    12    14   ar
    21    14    13   ar
    22    13     9   ar
