@<TRIPOS>MOLECULE
No_3111-gen_results/8p0m/2024-11-26-14-13-15/
 25 28 0 0 0
SMALL
GASTEIGER

@<TRIPOS>ATOM
      1 O         -28.1229   -1.3353   28.4874 O.2     1  UNL1       -0.2726
      2 C         -27.0637   -0.8242   28.8687 C.2     1  UNL1        0.2494
      3 C         -26.4017   -0.0623   28.6224 C.3     1  UNL1        0.1221
      4 N         -26.5721   -1.5845   30.1172 N.am    1  UNL1       -0.2000
      5 C         -25.0209    0.3561   29.0444 C.ar    1  UNL1       -0.0120
      6 C         -24.1318    1.3392   28.5895 C.ar    1  UNL1       -0.0037
      7 C         -22.8500    1.5181   29.1406 C.ar    1  UNL1       -0.0003
      8 C         -22.4250    0.4794   29.9751 C.ar    1  UNL1       -0.0003
      9 C         -23.2352   -0.5066   30.4791 C.ar    1  UNL1       -0.0028
     10 C         -24.4496   -0.6297   29.9741 C.ar    1  UNL1       -0.0038
     11 C         -25.3584   -1.6040   30.5399 C.3     1  UNL1        0.1412
     12 C         -26.7645    0.8445   27.3626 C.ar    1  UNL1       -0.0122
     13 C         -26.4091    0.3883   26.1256 C.ar    1  UNL1       -0.0037
     14 C         -27.5324    1.9288   27.5785 C.ar    1  UNL1       -0.0065
     15 C         -26.9791    0.8876   24.9730 C.ar    1  UNL1       -0.0003
     16 C         -28.1255    1.3591   25.0675 C.ar    1  UNL1       -0.0003
     17 C         -28.3903    2.1758   26.3559 C.ar    1  UNL1       -0.0031
     18 C         -28.0781    2.3781   28.8179 C.3     1  UNL1        0.1241
     19 CL        -28.6396    2.1870   29.7916 Cl      1  UNL1       -0.1053
     20 C         -27.2960    3.8422   28.8010 C.ar    1  UNL1       -0.0003
     21 C         -26.6984    4.1531   29.9326 C.ar    1  UNL1        0.0179
     22 C         -25.8010    5.2850   29.8884 C.ar    1  UNL1        0.0986
     23 N         -25.6272    5.9772   28.7379 N.ar    1  UNL1       -0.2423
     24 C         -26.9676    4.6517   27.6668 C.ar    1  UNL1        0.0179
     25 C         -26.1849    5.6083   27.6326 C.ar    1  UNL1        0.0986
@<TRIPOS>BOND
     1     1     2    2
     2     2     3    1
     3     2     4   am
     4     4    11    1
     5    10    11    1
     6     3    12    1
     7    14    18    1
     8    18    19    1
     9    18    20    1
    10     3     5    1
    11    12    13   ar
    12    13    15   ar
    13    15    16   ar
    14    16    17   ar
    15    17    14   ar
    16    14    12   ar
    17     5     6   ar
    18     6     7   ar
    19     7     8   ar
    20     8     9   ar
    21     9    10   ar
    22    10     5   ar
    23    20    21   ar
    24    21    22   ar
    25    22    23   ar
    26    23    25   ar
    27    25    24   ar
    28    24    20   ar
