@<TRIPOS>MOLECULE
No_3113-gen_results/8p0m/2024-11-26-14-13-15/
 20 22 0 0 0
SMALL
GASTEIGER

@<TRIPOS>ATOM
      1 C         -28.0162   -0.8135   28.8779 C.ar    1  UNL1       -0.0003
      2 C         -27.0636   -0.1189   28.6079 C.ar    1  UNL1       -0.0042
      3 C         -25.7647   -0.3897   29.0360 C.ar    1  UNL1       -0.0003
      4 C         -25.5296   -1.5302   29.9014 C.ar    1  UNL1       -0.0000
      5 C         -26.6577   -2.2915   30.2035 C.ar    1  UNL1       -0.0000
      6 C         -27.8548   -1.9555   29.7630 C.ar    1  UNL1       -0.0000
      7 C         -24.5441    0.4126   28.7379 C.ar    1  UNL1       -0.0003
      8 C         -23.3231    0.0476   29.0499 C.ar    1  UNL1       -0.0000
      9 C         -22.1997    0.8411   28.7194 C.ar    1  UNL1       -0.0000
     10 C         -22.3632    1.8394   27.7172 C.ar    1  UNL1       -0.0000
     11 C         -24.6043    1.5165   27.8119 C.ar    1  UNL1       -0.0043
     12 C         -25.9335    1.8655   27.2908 C.ar    1  UNL1       -0.0258
     13 C         -23.5213    2.2253   27.3306 C.ar    1  UNL1       -0.0003
     14 C         -27.1566    1.0708   27.6664 C.ar    1  UNL1       -0.0251
     15 C         -28.4047    1.4113   27.0982 C.3     1  UNL1        0.0401
     16 C         -26.1032    3.0452   26.5044 C.3     1  UNL1        0.0307
     17 C         -29.0427    2.4017   27.8156 C.3     1  UNL1        0.0833
     18 C         -28.9714    2.8819   28.7755 C.1     1  UNL1       -0.0562
     19 C         -29.2745    3.6449   29.6221 C.1     1  UNL1        0.1060
     20 F         -30.3059    4.3470   29.3379 F       1  UNL1       -0.1432
@<TRIPOS>BOND
     1    14    15    1
     2    12    16    1
     3    15    17    1
     4    17    18    1
     5    18    19    3
     6    19    20    1
     7     1     2   ar
     8     3     4   ar
     9     4     5   ar
    10     5     6   ar
    11     6     1   ar
    12     2     3   ar
    13     3     7   ar
    14    11    12   ar
    15    12    14   ar
    16    14     2   ar
    17     7     8   ar
    18     8     9   ar
    19     9    10   ar
    20    10    13   ar
    21    13    11   ar
    22    11     7   ar
