@<TRIPOS>MOLECULE
No_3114-gen_results/8p0m/2024-11-26-14-13-15/
 13 14 0 0 0
SMALL
GASTEIGER

@<TRIPOS>ATOM
      1 C         -28.0162   -0.8135   28.8779 C.ar    1  UNL1       -0.0039
      2 C         -28.4690   -0.7850   29.8287 C.ar    1  UNL1       -0.0003
      3 C         -27.0871    0.2903   28.6377 C.ar    1  UNL1       -0.0178
      4 C         -26.8317    1.2487   29.5869 C.ar    1  UNL1       -0.0039
      5 C         -28.3292   -0.0396   30.8362 C.ar    1  UNL1       -0.0000
      6 C         -27.4945    1.0625   30.7933 C.ar    1  UNL1       -0.0003
      7 C         -26.3269    0.4372   27.3447 C.3     1  UNL1        0.0526
      8 C         -25.4302    0.8263   26.9029 C.ar    1  UNL1       -0.0178
      9 C         -24.4689    1.4399   27.8916 C.ar    1  UNL1       -0.0039
     10 C         -23.3952    2.1816   27.2943 C.ar    1  UNL1       -0.0003
     11 C         -23.3236    2.2694   25.9378 C.ar    1  UNL1       -0.0000
     12 C         -25.1279    1.1338   25.5890 C.ar    1  UNL1       -0.0039
     13 C         -24.0954    1.7686   25.0894 C.ar    1  UNL1       -0.0003
@<TRIPOS>BOND
     1     3     7    1
     2     7     8    1
     3     1     2   ar
     4     2     5   ar
     5     5     6   ar
     6     6     4   ar
     7     4     3   ar
     8     3     1   ar
     9     8     9   ar
    10     9    10   ar
    11    10    11   ar
    12    11    13   ar
    13    13    12   ar
    14    12     8   ar
