@<TRIPOS>MOLECULE
No_3115-gen_results/8p0m/2024-11-26-14-13-15/
 14 15 0 0 0
SMALL
GASTEIGER

@<TRIPOS>ATOM
      1 C         -28.0162   -0.8135   28.8779 C.ar    1  UNL1        0.0161
      2 C         -28.4690   -0.7850   29.8287 C.ar    1  UNL1        0.0657
      3 C         -26.5455   -0.8762   28.8500 C.ar    1  UNL1        0.0013
      4 C         -25.8041   -1.0324   30.0571 C.ar    1  UNL1        0.0001
      5 C         -27.9437   -0.9869   31.2075 C.ar    1  UNL1        0.0161
      6 C         -26.5825   -1.0386   31.2231 C.ar    1  UNL1        0.0013
      7 N         -29.9659   -0.7667   30.0780 N.pl3   1  UNL1       -0.2328
      8 C         -30.6257   -1.8500   30.2199 C.3     1  UNL1        0.1385
      9 C         -30.4201   -2.8509   30.4686 C.ar    1  UNL1       -0.0007
     10 C         -31.2633   -4.0794   30.5571 C.ar    1  UNL1       -0.0026
     11 C         -30.8981   -5.4090   30.7416 C.ar    1  UNL1       -0.0003
     12 C         -29.5508   -5.5857   31.0256 C.ar    1  UNL1       -0.0000
     13 C         -28.5786   -4.6403   30.9468 C.ar    1  UNL1       -0.0003
     14 C         -28.9223   -3.4316   30.7222 C.ar    1  UNL1       -0.0026
@<TRIPOS>BOND
     1     2     7    1
     2     7     8    1
     3     8     9    1
     4     9    10   ar
     5    10    11   ar
     6    11    12   ar
     7    12    13   ar
     8    13    14   ar
     9    14     9   ar
    10     1     2   ar
    11     2     5   ar
    12     5     6   ar
    13     6     4   ar
    14     4     3   ar
    15     3     1   ar
