@<TRIPOS>MOLECULE
No_3116-gen_results/8p0m/2024-11-26-14-13-15/
 35 39 0 0 0
SMALL
GASTEIGER

@<TRIPOS>ATOM
      1 C         -28.0162   -0.8135   28.8779 C.ar    1  UNL1        0.0806
      2 C         -27.0636   -0.1189   28.6079 C.ar    1  UNL1        0.0064
      3 C         -26.9716    0.7139   27.5060 C.ar    1  UNL1        0.0011
      4 C         -28.1053    0.7744   26.6421 C.ar    1  UNL1        0.0114
      5 C         -29.2008    0.1044   27.0527 C.ar    1  UNL1        0.0579
      6 C         -29.2096   -0.6029   28.1853 C.ar    1  UNL1        0.0180
      7 CL        -30.5651    0.2430   26.0493 Cl      1  UNL1       -0.0822
      8 C         -25.6106   -0.1345   29.2364 C.ar    1  UNL1        0.0002
      9 C         -25.2585    0.4704   30.0756 C.ar    1  UNL1        0.0000
     10 C         -26.0350    1.6372   30.6408 C.ar    1  UNL1        0.0000
     11 C         -25.3941    2.4407   31.6428 C.ar    1  UNL1        0.0000
     12 C         -26.0893    3.4602   32.3200 C.ar    1  UNL1       -0.0000
     13 C         -27.3967    3.7405   31.9039 C.ar    1  UNL1       -0.0000
     14 C         -27.9606    2.9780   30.9135 C.ar    1  UNL1       -0.0000
     15 C         -27.2957    1.9576   30.3133 C.ar    1  UNL1       -0.0000
     16 C         -24.7195   -1.0418   28.5904 C.ar    1  UNL1        0.0000
     17 C         -23.5163   -1.3034   29.1271 C.ar    1  UNL1        0.0000
     18 C         -23.0102   -0.4857   30.0953 C.ar    1  UNL1        0.0000
     19 C         -23.8811    0.4644   30.6668 C.ar    1  UNL1        0.0000
     20 C         -29.3615    3.3231   30.5120 C.ar    1  UNL1       -0.0003
     21 C         -30.0067    2.6995   29.5547 C.ar    1  UNL1       -0.0039
     22 C         -31.2730    3.0293   29.1215 C.ar    1  UNL1       -0.0178
     23 C         -31.8948    2.3538   28.1095 C.3     1  UNL1        0.0526
     24 C         -29.9810    4.4902   31.1495 C.ar    1  UNL1       -0.0000
     25 C         -31.2997    4.8138   30.7395 C.ar    1  UNL1       -0.0003
     26 C         -31.8600    4.1110   29.7551 C.ar    1  UNL1       -0.0039
     27 C         -32.6082    2.6815   27.2674 C.ar    1  UNL1       -0.0178
     28 C         -33.0057    1.9729   26.1884 C.ar    1  UNL1       -0.0039
     29 C         -33.4191    2.5665   25.0159 C.ar    1  UNL1       -0.0003
     30 C         -33.7727    3.9924   25.0183 C.ar    1  UNL1       -0.0000
     31 C         -33.4164    4.7560   26.0980 C.ar    1  UNL1       -0.0003
     32 C         -32.7917    4.2169   27.1036 C.ar    1  UNL1       -0.0039
     33 C         -28.0845   -1.6342   30.1631 C.2     1  UNL1        0.3878
     34 O         -28.2071   -1.1081   31.2949 O.co2   1  UNL1       -0.2406
     35 O         -27.6787   -2.8740   30.1081 O.co2   1  UNL1       -0.2406
@<TRIPOS>BOND
     1     5     7    1
     2     2     8    1
     3     9    10    1
     4    14    20    1
     5    22    23    1
     6     1    33    1
     7    33    34   ar
     8    33    35   ar
     9    23    27    1
    10     1     2   ar
    11     2     3   ar
    12     3     4   ar
    13     4     5   ar
    14     5     6   ar
    15     6     1   ar
    16    20    21   ar
    17    21    22   ar
    18    22    26   ar
    19    26    25   ar
    20    25    24   ar
    21    24    20   ar
    22     8     9   ar
    23     9    19   ar
    24    19    18   ar
    25    18    17   ar
    26    17    16   ar
    27    16     8   ar
    28    27    28   ar
    29    28    29   ar
    30    29    30   ar
    31    30    31   ar
    32    31    32   ar
    33    32    27   ar
    34    10    11   ar
    35    11    12   ar
    36    12    13   ar
    37    13    14   ar
    38    14    15   ar
    39    15    10   ar
