@<TRIPOS>MOLECULE
No_3117-gen_results/8p0m/2024-11-26-14-13-15/
 8 8 0 0 0
SMALL
GASTEIGER

@<TRIPOS>ATOM
      1 C         -28.0162   -0.8135   28.8779 C.ar    1  UNL1        0.0083
      2 C         -27.0636   -0.1189   28.6079 C.ar    1  UNL1        0.0426
      3 C         -25.7923   -0.4302   29.0761 C.ar    1  UNL1        0.0083
      4 C         -25.5756   -1.5654   29.9363 C.ar    1  UNL1        0.0006
      5 C         -26.7354   -2.3004   30.2173 C.ar    1  UNL1        0.0000
      6 C         -27.9184   -1.9537   29.7629 C.ar    1  UNL1        0.0006
      7 C         -27.1057    1.1023   27.7593 C.1     1  UNL1       -0.0512
      8 C         -26.7157    2.2350   27.9945 C.1     1  UNL1       -0.0092
@<TRIPOS>BOND
     1     2     7    1
     2     7     8    3
     3     1     2   ar
     4     2     3   ar
     5     3     4   ar
     6     4     5   ar
     7     5     6   ar
     8     6     1   ar
