@<TRIPOS>MOLECULE
No_3118-gen_results/8p0m/2024-11-26-14-13-15/
 18 19 0 0 0
SMALL
GASTEIGER

@<TRIPOS>ATOM
      1 C         -28.0162   -0.8135   28.8779 C.ar    1  UNL1        0.0341
      2 C         -28.4690   -0.7850   29.8287 C.ar    1  UNL1        0.0558
      3 C         -26.5042   -0.7777   28.8766 C.ar    1  UNL1        0.1403
      4 C         -25.8103   -0.8531   30.1028 C.ar    1  UNL1        0.0296
      5 C         -27.9906   -0.8916   31.2257 C.ar    1  UNL1        0.0047
      6 C         -26.6042   -0.8676   31.2652 C.ar    1  UNL1        0.0025
      7 C         -30.0773   -0.8857   30.0240 C.2     1  UNL1        0.2491
      8 O         -30.6821   -0.3163   29.2532 O.2     1  UNL1       -0.2699
      9 N         -30.6270   -1.7345   30.9655 N.am    1  UNL1       -0.2755
     10 C         -30.0753   -2.5500   31.8680 C.3     1  UNL1        0.1049
     11 C         -32.1236   -1.7400   30.9230 C.3     1  UNL1        0.0937
     12 F         -25.7667   -0.6901   27.7825 F       1  UNL1       -0.2042
     13 C         -32.6171   -2.8439   31.0786 C.3     1  UNL1        0.0221
     14 C         -30.7687   -3.8216   32.1959 C.3     1  UNL1        0.1232
     15 C         -32.1342   -3.7863   32.1062 C.3     1  UNL1        0.0147
     16 C         -30.0379   -4.8840   32.8790 C.2     1  UNL1        0.3660
     17 O         -29.6049   -4.7940   33.8883 O.co2   1  UNL1       -0.2456
     18 O         -29.9300   -5.9857   32.0749 O.co2   1  UNL1       -0.2456
@<TRIPOS>BOND
     1     2     7    1
     2     7     8    2
     3     7     9   am
     4     9    10    1
     5     9    11    1
     6     3    12    1
     7    10    14    1
     8    13    15    1
     9    14    15    1
    10    14    16    1
    11    16    17   ar
    12    16    18   ar
    13    13    11    1
    14     1     2   ar
    15     2     5   ar
    16     5     6   ar
    17     6     4   ar
    18     4     3   ar
    19     3     1   ar
