@<TRIPOS>MOLECULE
No_3119-gen_results/8p0m/2024-11-26-14-13-15/
 18 19 0 0 0
SMALL
GASTEIGER

@<TRIPOS>ATOM
      1 C         -28.0162   -0.8135   28.8779 C.2     1  UNL1        0.2690
      2 C         -27.0636   -0.1190   28.6079 C.ar    1  UNL1        0.0554
      3 C         -26.9287    1.1713   29.0083 C.ar    1  UNL1        0.0047
      4 C         -25.7702    2.0341   28.6884 C.ar    1  UNL1        0.0050
      5 C         -24.7141    1.4431   27.9188 C.ar    1  UNL1        0.0593
      6 C         -24.8590    0.0783   27.5836 C.ar    1  UNL1        0.0050
      7 C         -25.9647   -0.6606   27.9164 C.ar    1  UNL1        0.0047
      8 N         -27.9820   -1.6112   30.1028 N.am    1  UNL1       -0.1754
      9 C         -23.5351    2.1704   27.5550 C.2     1  UNL1        0.2968
     10 N         -22.4638    1.6493   27.0986 N.2     1  UNL1       -0.1025
     11 O         -23.6467    3.4605   27.5429 O.2     1  UNL1       -0.2636
     12 O         -29.2186   -0.3918   28.6931 O.2     1  UNL1       -0.2680
     13 C         -28.5765   -2.4802   30.4618 C.ar    1  UNL1        0.0737
     14 C         -28.4200   -3.9066   30.0417 C.ar    1  UNL1        0.0166
     15 C         -29.3115   -4.9771   30.4607 C.ar    1  UNL1        0.0013
     16 C         -30.3611   -4.5344   30.9337 C.ar    1  UNL1        0.0001
     17 C         -30.7644   -3.2654   31.3496 C.ar    1  UNL1        0.0013
     18 C         -29.8539   -2.2242   31.0758 C.ar    1  UNL1        0.0166
@<TRIPOS>BOND
     1     1     2    1
     2     1     8   am
     3     5     9    1
     4     9    10    2
     5     9    11    1
     6     1    12    2
     7     8    13    1
     8     2     3   ar
     9     3     4   ar
    10     4     5   ar
    11     5     6   ar
    12     6     7   ar
    13     7     2   ar
    14    13    14   ar
    15    14    15   ar
    16    15    16   ar
    17    16    17   ar
    18    17    18   ar
    19    18    13   ar
