@<TRIPOS>MOLECULE
No_312-gen_results/8p0m/2024-11-26-14-13-15/
 16 17 0 0 0
SMALL
GASTEIGER

@<TRIPOS>ATOM
      1 C         -28.0162   -0.8135   28.8779 C.ar    1  UNL1        0.0039
      2 C         -28.4690   -0.7850   29.8287 C.ar    1  UNL1        0.0714
      3 C         -26.5042   -0.7777   28.8766 C.ar    1  UNL1       -0.0001
      4 C         -25.8103   -0.8531   30.1028 C.ar    1  UNL1       -0.0000
      5 C         -27.9906   -0.8916   31.2257 C.ar    1  UNL1        0.0039
      6 C         -24.3976   -0.8364   30.1775 C.ar    1  UNL1       -0.0000
      7 C         -26.5754   -0.8899   31.2661 C.ar    1  UNL1       -0.0001
      8 C         -23.7708   -0.9176   31.0960 C.ar    1  UNL1       -0.0000
      9 C         -22.3018   -0.8444   31.2151 C.ar    1  UNL1        0.0000
     10 C         -21.6829   -0.5879   30.0577 C.ar    1  UNL1        0.0000
     11 C         -23.6382   -0.6309   28.9339 C.ar    1  UNL1       -0.0000
     12 C         -22.3460   -0.4649   28.8964 C.ar    1  UNL1        0.0000
     13 C         -30.0821   -0.8248   30.0230 C.3     1  UNL1        0.4186
     14 F         -30.5093   -1.9036   29.9947 F       1  UNL1       -0.1659
     15 F         -30.4462   -0.1558   31.1470 F       1  UNL1       -0.1659
     16 F         -30.5395   -0.1349   28.9829 F       1  UNL1       -0.1659
@<TRIPOS>BOND
     1     4     6    1
     2     2    13    1
     3    13    14    1
     4    13    15    1
     5    13    16    1
     6     6     8   ar
     7     8     9   ar
     8     9    10   ar
     9    10    12   ar
    10    12    11   ar
    11    11     6   ar
    12     1     2   ar
    13     2     5   ar
    14     5     7   ar
    15     7     4   ar
    16     4     3   ar
    17     3     1   ar
