@<TRIPOS>MOLECULE
No_3120-gen_results/8p0m/2024-11-26-14-13-15/
 16 16 0 0 0
SMALL
GASTEIGER

@<TRIPOS>ATOM
      1 C         -28.0162   -0.8135   28.8779 C.ar    1  UNL1        0.0369
      2 C         -27.0636   -0.1189   28.6079 C.ar    1  UNL1        0.0024
      3 C         -25.7647   -0.3897   29.0360 C.ar    1  UNL1       -0.0041
      4 C         -25.5296   -1.5302   29.9014 C.ar    1  UNL1       -0.0192
      5 C         -24.3236   -1.9076   30.4324 C.3     1  UNL1        0.0265
      6 C         -27.9274   -1.9227   29.7902 C.ar    1  UNL1        0.1391
      7 C         -26.6914   -2.2806   30.2948 C.ar    1  UNL1        0.0327
      8 C         -23.2806   -2.0391   29.4813 C.3     1  UNL1        0.0050
      9 O         -29.0049   -2.6569   30.1988 O.3     1  UNL1       -0.4637
     10 C         -30.0974   -2.0475   30.7050 C.3     1  UNL1        0.3186
     11 C         -30.6405   -2.7812   31.7025 C.2     1  UNL1        0.4084
     12 O         -31.6159   -2.3525   32.2078 O.co2   1  UNL1       -0.2415
     13 O         -30.5164   -4.0655   31.7099 O.co2   1  UNL1       -0.2415
     14 C         -27.1229    1.0129   27.6183 C.2     1  UNL1       -0.0045
     15 C         -26.1972    1.2541   26.7340 C.2     1  UNL1       -0.0258
     16 C         -26.1476    2.4285   25.9080 C.3     1  UNL1        0.0307
@<TRIPOS>BOND
     1     4     5    1
     2     5     8    1
     3     6     9    1
     4     9    10    1
     5    10    11    1
     6    11    12   ar
     7    11    13   ar
     8     2    14    1
     9    14    15    2
    10    15    16    1
    11     1     2   ar
    12     2     3   ar
    13     3     4   ar
    14     4     7   ar
    15     7     6   ar
    16     6     1   ar
