@<TRIPOS>MOLECULE
No_3121-gen_results/8p0m/2024-11-26-14-13-15/
 12 12 0 0 0
SMALL
GASTEIGER

@<TRIPOS>ATOM
      1 F         -28.0727   -1.2542   28.5316 F       1  UNL1       -0.2018
      2 C         -28.2662   -0.4214   29.1931 C.ar    1  UNL1        0.1673
      3 C         -29.4445    0.0759   29.3394 C.ar    1  UNL1        0.0358
      4 C         -29.7073    1.1743   30.2277 C.ar    1  UNL1        0.0738
      5 C         -28.5970    1.7109   30.9109 C.ar    1  UNL1        0.0063
      6 C         -27.3024    1.1821   30.7905 C.ar    1  UNL1        0.0319
      7 C         -27.1217    0.1218   29.9802 C.ar    1  UNL1        0.1674
      8 F         -25.9582   -0.4045   29.8317 F       1  UNL1       -0.2018
      9 C         -31.0370    1.7460   30.3754 C.3     1  UNL1        0.4187
     10 F         -31.9110    1.0191   30.0529 F       1  UNL1       -0.1659
     11 F         -31.1370    2.0683   31.6827 F       1  UNL1       -0.1659
     12 F         -31.0687    2.8856   29.6783 F       1  UNL1       -0.1659
@<TRIPOS>BOND
     1     1     2    1
     2     7     8    1
     3     4     9    1
     4     9    10    1
     5     9    11    1
     6     9    12    1
     7     2     3   ar
     8     3     4   ar
     9     4     5   ar
    10     5     6   ar
    11     6     7   ar
    12     7     2   ar
