@<TRIPOS>MOLECULE
No_3122-gen_results/8p0m/2024-11-26-14-13-15/
 35 37 0 0 0
SMALL
GASTEIGER

@<TRIPOS>ATOM
      1 C         -28.0162   -0.8135   28.8779 C.ar    1  UNL1        0.0201
      2 C         -28.4690   -0.7850   29.8287 C.ar    1  UNL1        0.0771
      3 C         -26.5042   -0.7777   28.8766 C.ar    1  UNL1        0.0852
      4 C         -25.8103   -0.8531   30.1028 C.ar    1  UNL1        0.1506
      5 C         -27.9906   -0.8916   31.2257 C.ar    1  UNL1        0.0088
      6 C         -26.6042   -0.8676   31.2652 C.ar    1  UNL1        0.0307
      7 F         -24.5534   -0.7870   30.1406 F       1  UNL1       -0.2033
      8 C         -30.0954   -0.8409   29.8497 C.2     1  UNL1        0.3481
      9 O         -30.5236   -0.4692   28.9258 O.2     1  UNL1       -0.2444
     10 O         -30.7532   -0.9274   30.9769 O.3     1  UNL1       -0.3815
     11 CL        -25.5261   -0.7022   27.4656 Cl      1  UNL1       -0.0799
     12 C         -31.9987   -1.4193   31.0041 C.2     1  UNL1        0.4253
     13 C         -32.4629   -1.7761   32.2479 C.2     1  UNL1        0.4231
     14 O         -33.6069   -2.1858   32.3984 O.2     1  UNL1       -0.2371
     15 O         -31.6589   -1.7840   33.2887 O.3     1  UNL1       -0.4165
     16 O         -32.6103   -1.5280   30.0013 O.2     1  UNL1       -0.2370
     17 C         -31.4530   -0.8879   34.1411 C.ar    1  UNL1        0.1490
     18 C         -30.2674   -1.0172   34.8760 C.ar    1  UNL1        0.0376
     19 C         -30.0436   -0.6730   35.8388 C.ar    1  UNL1        0.0031
     20 C         -30.8432    0.4343   36.4892 C.ar    1  UNL1        0.0002
     21 C         -32.0572    0.6607   35.7751 C.ar    1  UNL1        0.0031
     22 C         -32.3265   -0.0431   34.6316 C.ar    1  UNL1        0.0376
     23 C         -33.0105    1.6666   36.3225 C.ar    1  UNL1        0.0008
     24 C         -34.0889    1.7353   36.1457 C.ar    1  UNL1        0.0000
     25 C         -35.0134    2.7537   36.6751 C.ar    1  UNL1        0.0305
     26 C         -34.4312    3.6949   37.5123 C.ar    1  UNL1        0.0114
     27 C         -33.1128    3.6580   37.7684 C.ar    1  UNL1        0.0575
     28 C         -32.3419    2.6739   37.2051 C.ar    1  UNL1        0.0114
     29 CL        -32.3722    4.7917   38.8043 Cl      1  UNL1       -0.0823
     30 C         -36.4228    2.7129   36.3384 C.3     1  UNL1        0.2814
     31 F         -36.7482    1.8146   35.6067 F       1  UNL1       -0.2094
     32 S         -37.3794    2.7219   37.7524 S.3     1  UNL1        0.1293
     33 C         -36.6511    4.0385   35.5668 C.3     1  UNL1        0.0668
     34 O         -37.0853    1.7721   38.4911 O.2     1  UNL1       -0.1487
     35 O         -37.2085    4.0719   38.3336 O.2     1  UNL1       -0.1487
@<TRIPOS>BOND
     1     4     7    1
     2     2     8    1
     3     8     9    2
     4     8    10    1
     5     3    11    1
     6    10    12    1
     7    12    13    1
     8    13    14    2
     9    13    15    1
    10    12    16    2
    11    15    17    1
    12    21    23    1
    13    27    29    1
    14    25    30    1
    15    30    31    1
    16    30    32    1
    17    30    33    1
    18    32    34    2
    19    32    35    2
    20    17    18   ar
    21    18    19   ar
    22    19    20   ar
    23    20    21   ar
    24    21    22   ar
    25    22    17   ar
    26    23    24   ar
    27    24    25   ar
    28    25    26   ar
    29    26    27   ar
    30    27    28   ar
    31    28    23   ar
    32     1     2   ar
    33     2     5   ar
    34     5     6   ar
    35     6     4   ar
    36     4     3   ar
    37     3     1   ar
