@<TRIPOS>MOLECULE
No_3123-gen_results/8p0m/2024-11-26-14-13-15/
 25 27 0 0 0
SMALL
GASTEIGER

@<TRIPOS>ATOM
      1 C         -28.0162   -0.8135   28.8779 C.ar    1  UNL1        0.0367
      2 C         -27.0636   -0.1189   28.6079 C.ar    1  UNL1       -0.0007
      3 C         -25.7647   -0.3897   29.0360 C.ar    1  UNL1       -0.0125
      4 C         -25.5296   -1.5302   29.9014 C.ar    1  UNL1       -0.0007
      5 C         -26.6888   -2.2893   30.1810 C.ar    1  UNL1        0.0367
      6 C         -27.8727   -1.9508   29.7373 C.ar    1  UNL1        0.1425
      7 O         -28.9304   -2.7298   30.1154 O.3     1  UNL1       -0.4412
      8 C         -24.5394    0.4211   28.7421 C.3     1  UNL1        0.1178
      9 C         -24.0907    1.3926   29.5983 C.2     1  UNL1        0.2782
     10 N         -23.0076    2.1308   29.1866 N.2     1  UNL1       -0.1068
     11 O         -24.6627    1.6971   30.6889 O.2     1  UNL1       -0.2682
     12 C         -29.3202   -2.7690   31.4400 C.3     1  UNL1        0.3755
     13 C         -29.7462   -4.0803   31.8020 C.3     1  UNL1        0.2689
     14 C         -31.1174   -4.2599   31.5945 C.3     1  UNL1        0.1907
     15 C         -31.8416   -3.3672   31.0122 C.ar    1  UNL1        0.0470
     16 O         -29.3440   -4.2955   33.1908 O.3     1  UNL1       -0.2117
     17 C         -32.8602   -3.4206   30.5278 C.ar    1  UNL1        0.0016
     18 C         -33.6453   -2.3196   29.8577 C.ar    1  UNL1        0.0032
     19 C         -33.0031   -1.0752   29.8276 C.ar    1  UNL1        0.0452
     20 C         -31.7452   -0.9501   30.3823 C.ar    1  UNL1        0.2292
     21 C         -31.1831   -1.9736   30.9484 C.ar    1  UNL1        0.1796
     22 O         -30.3841   -1.8333   31.7739 O.3     1  UNL1       -0.4382
     23 F         -31.6713   -4.4980   32.8464 F       1  UNL1       -0.2325
     24 C         -31.2479   -5.6346   30.7870 C.3     1  UNL1        0.0430
     25 O         -31.2237    0.2748   30.4461 O.3     1  UNL1       -0.2833
@<TRIPOS>BOND
     1     6     7    1
     2     3     8    1
     3     8     9    1
     4     9    10    2
     5     9    11    1
     6     7    12    1
     7    12    13    1
     8    13    14    1
     9    14    15    1
    10    13    16    1
    11    12    22    1
    12    21    22    1
    13    14    23    1
    14    14    24    1
    15    20    25    1
    16    15    17   ar
    17    17    18   ar
    18    18    19   ar
    19    19    20   ar
    20    20    21   ar
    21    21    15   ar
    22     1     2   ar
    23     2     3   ar
    24     3     4   ar
    25     4     5   ar
    26     5     6   ar
    27     6     1   ar
