@<TRIPOS>MOLECULE
No_3125-gen_results/8p0m/2024-11-26-14-13-15/
 14 14 0 0 0
SMALL
GASTEIGER

@<TRIPOS>ATOM
      1 C         -28.0162   -0.8135   28.8779 C.3     1  UNL1        0.0113
      2 C         -28.4690   -0.7850   29.8287 C.3     1  UNL1        0.1034
      3 C         -27.0871    0.2903   28.6377 C.3     1  UNL1        0.0011
      4 C         -26.0238    0.3644   29.2526 C.3     1  UNL1        0.0107
      5 C         -26.2460    0.4334   30.7986 C.3     1  UNL1        0.0011
      6 C         -29.5736   -1.6268   30.3318 C.2     1  UNL1        0.3643
      7 C         -27.2885   -0.6712   31.0920 C.3     1  UNL1        0.0113
      8 O         -30.1074   -1.3621   31.4527 O.co2   1  UNL1       -0.2457
      9 O         -30.2441   -2.2636   29.5044 O.co2   1  UNL1       -0.2457
     10 C         -24.6338    0.7219   28.9211 C.3     1  UNL1        0.1034
     11 C         -24.0143    1.9040   29.3058 C.2     1  UNL1        0.3643
     12 O         -22.7976    2.1692   28.9376 O.co2   1  UNL1       -0.2457
     13 O         -24.7194    2.9318   29.7397 O.co2   1  UNL1       -0.2457
     14 C         -23.6692   -0.4333   29.3583 C.3     1  UNL1        0.0118
@<TRIPOS>BOND
     1     1     2    1
     2     1     3    1
     3     3     4    1
     4     4     5    1
     5     2     6    1
     6     2     7    1
     7     5     7    1
     8     6     8   ar
     9     6     9   ar
    10     4    10    1
    11    10    11    1
    12    11    12   ar
    13    11    13   ar
    14    10    14    1
