@<TRIPOS>MOLECULE
No_3126-gen_results/8p0m/2024-11-26-14-13-15/
 18 19 0 0 0
SMALL
GASTEIGER

@<TRIPOS>ATOM
      1 C         -28.0162   -0.8135   28.8779 C.ar    1  UNL1        0.0002
      2 C         -27.0636   -0.1189   28.6079 C.ar    1  UNL1        0.0000
      3 C         -26.9716    0.7139   27.5060 C.ar    1  UNL1        0.0002
      4 C         -28.1053    0.7744   26.6421 C.ar    1  UNL1        0.0066
      5 C         -29.2041    0.1179   27.0477 C.ar    1  UNL1        0.0798
      6 C         -29.2127   -0.6088   28.1281 C.ar    1  UNL1        0.0066
      7 C         -30.3709    0.2326   26.1381 C.2     1  UNL1        0.3878
      8 O         -30.3086    0.1051   24.9412 O.co2   1  UNL1       -0.2406
      9 O         -31.5786    0.2663   26.6747 O.co2   1  UNL1       -0.2406
     10 C         -25.6670    1.4055   27.1237 C.ar    1  UNL1       -0.0000
     11 C         -25.1573    2.3543   28.1077 C.ar    1  UNL1       -0.0003
     12 C         -25.6055    2.7486   28.9356 C.2     1  UNL1       -0.0046
     13 C         -23.7732    2.8128   27.4916 C.ar    1  UNL1       -0.0000
     14 C         -24.9159    0.8054   26.2370 C.ar    1  UNL1       -0.0000
     15 C         -23.0296    2.2994   26.4618 C.ar    1  UNL1       -0.0000
     16 C         -23.6894    1.2777   25.7703 C.ar    1  UNL1       -0.0000
     17 C         -26.3244    4.1217   29.0405 C.2     1  UNL1       -0.0258
     18 C         -26.9943    4.5877   30.1645 C.3     1  UNL1        0.0307
@<TRIPOS>BOND
     1     5     7    1
     2     7     8   ar
     3     7     9   ar
     4     3    10    1
     5    11    12    1
     6    12    17    2
     7    17    18    1
     8    10    11   ar
     9    11    13   ar
    10    13    15   ar
    11    15    16   ar
    12    16    14   ar
    13    14    10   ar
    14     1     2   ar
    15     2     3   ar
    16     3     4   ar
    17     4     5   ar
    18     5     6   ar
    19     6     1   ar
