@<TRIPOS>MOLECULE
No_3127-gen_results/8p0m/2024-11-26-14-13-15/
 20 22 0 0 0
SMALL
GASTEIGER

@<TRIPOS>ATOM
      1 C         -28.0162   -0.8135   28.8779 C.ar    1  UNL1        0.0351
      2 C         -27.0636   -0.1189   28.6079 C.ar    1  UNL1        0.1416
      3 N         -25.8176   -0.3427   29.0488 N.ar    1  UNL1       -0.2024
      4 C         -25.6067   -1.4414   29.8929 C.ar    1  UNL1        0.2234
      5 C         -26.6760   -2.2193   30.2363 C.ar    1  UNL1        0.0498
      6 C         -27.7633   -1.8664   29.7514 C.ar    1  UNL1        0.0068
      7 N         -27.1192    1.0382   27.7990 N.pl3   1  UNL1       -0.2510
      8 C         -26.0960    1.8510   27.6676 C.ar    1  UNL1        0.0569
      9 C         -25.7914    2.9074   27.6822 C.ar    1  UNL1        0.0152
     10 C         -24.7837    3.6595   27.5926 C.ar    1  UNL1        0.0013
     11 C         -23.5456    2.9443   27.3249 C.ar    1  UNL1        0.0001
     12 C         -24.7195    1.1506   27.3335 C.ar    1  UNL1        0.0152
     13 C         -23.6157    1.7536   27.1219 C.ar    1  UNL1        0.0013
     14 C         -28.4069    1.7277   27.9463 C.ar    1  UNL1        0.0569
     15 C         -28.9352    2.1195   26.6754 C.ar    1  UNL1        0.0152
     16 C         -30.1691    2.7560   26.6971 C.ar    1  UNL1        0.0013
     17 C         -30.8542    3.0239   27.8915 C.ar    1  UNL1        0.0001
     18 C         -30.2781    2.6157   29.0718 C.ar    1  UNL1        0.0013
     19 C         -29.0486    1.9865   29.1404 C.ar    1  UNL1        0.0152
     20 F         -24.3697   -1.7056   30.2347 F       1  UNL1       -0.1832
@<TRIPOS>BOND
     1     2     7    1
     2     7     8    1
     3     7    14    1
     4     4    20    1
     5     1     2   ar
     6     2     3   ar
     7     3     4   ar
     8     4     5   ar
     9     5     6   ar
    10     6     1   ar
    11    14    15   ar
    12    15    16   ar
    13    16    17   ar
    14    17    18   ar
    15    18    19   ar
    16    19    14   ar
    17     8     9   ar
    18     9    10   ar
    19    10    11   ar
    20    11    13   ar
    21    13    12   ar
    22    12     8   ar
