@<TRIPOS>MOLECULE
No_3128-gen_results/8p0m/2024-11-26-14-13-15/
 35 39 0 0 0
SMALL
GASTEIGER

@<TRIPOS>ATOM
      1 O         -28.1229   -1.3353   28.4874 O.2     1  UNL1       -0.2445
      2 C         -28.5208   -0.4363   29.0779 C.2     1  UNL1        0.3457
      3 O         -27.9150    0.0780   30.0386 O.3     1  UNL1       -0.4210
      4 C         -29.9018   -0.0565   28.9721 C.ar    1  UNL1        0.0761
      5 C         -30.7762   -0.6532   29.7019 C.ar    1  UNL1        0.0073
      6 C         -32.1868   -0.3734   29.4944 C.ar    1  UNL1        0.0116
      7 C         -32.4954    0.5790   28.5169 C.ar    1  UNL1        0.0577
      8 C         -31.4995    1.1703   27.7597 C.ar    1  UNL1        0.0116
      9 C         -30.1506    0.8469   27.9575 C.ar    1  UNL1        0.0071
     10 CL        -34.1294    0.9774   28.2811 Cl      1  UNL1       -0.0822
     11 C         -29.0976    1.4248   27.1444 C.ar    1  UNL1       -0.0001
     12 C         -28.1060    0.9796   26.6916 C.ar    1  UNL1       -0.0039
     13 C         -27.1540    1.6592   25.7950 C.ar    1  UNL1       -0.0178
     14 C         -25.8859    1.1538   25.3725 C.3     1  UNL1        0.0526
     15 C         -24.9607    0.9599   26.2808 C.ar    1  UNL1       -0.0178
     16 C         -25.0270    0.4179   27.3833 C.ar    1  UNL1       -0.0039
     17 C         -23.8807   -0.0250   28.1767 C.ar    1  UNL1       -0.0003
     18 C         -22.7276    0.7134   28.0391 C.ar    1  UNL1       -0.0000
     19 C         -22.5936    1.6047   26.9070 C.ar    1  UNL1       -0.0003
     20 C         -23.6887    1.7457   26.0744 C.ar    1  UNL1       -0.0039
     21 C         -29.3879    2.8396   26.7615 C.ar    1  UNL1       -0.0000
     22 C         -28.5229    3.5650   25.9502 C.ar    1  UNL1       -0.0003
     23 C         -27.4088    3.0203   25.5005 C.ar    1  UNL1       -0.0039
     24 C         -23.9727   -0.8893   29.3743 C.ar    1  UNL1       -0.0000
     25 C         -24.2665   -2.1336   29.1450 C.ar    1  UNL1       -0.0000
     26 C         -23.5695   -0.4536   30.6393 C.ar    1  UNL1       -0.0000
     27 C         -23.8580   -1.1721   31.7992 C.ar    1  UNL1       -0.0000
     28 C         -24.6877   -2.9583   30.3512 C.ar    1  UNL1       -0.0000
     29 C         -24.3636   -2.4118   31.6578 C.ar    1  UNL1        0.0000
     30 C         -27.8965    1.2716   30.5774 C.ar    1  UNL1        0.1488
     31 C         -26.6411    1.8132   30.7600 C.ar    1  UNL1        0.0376
     32 C         -26.3804    2.9194   31.2270 C.ar    1  UNL1        0.0031
     33 C         -27.3428    3.7773   31.6859 C.ar    1  UNL1        0.0002
     34 C         -28.6979    3.2761   31.5879 C.ar    1  UNL1        0.0031
     35 C         -28.9273    2.0190   31.0441 C.ar    1  UNL1        0.0376
@<TRIPOS>BOND
     1     1     2    2
     2     2     3    1
     3     2     4    1
     4     7    10    1
     5     9    11    1
     6    13    14    1
     7    17    24    1
     8     3    30    1
     9    14    15    1
    10    15    16   ar
    11    16    17   ar
    12    17    18   ar
    13    18    19   ar
    14    19    20   ar
    15    20    15   ar
    16    30    31   ar
    17    31    32   ar
    18    32    33   ar
    19    33    34   ar
    20    34    35   ar
    21    35    30   ar
    22    24    25   ar
    23    25    28   ar
    24    28    29   ar
    25    29    27   ar
    26    27    26   ar
    27    26    24   ar
    28    11    12   ar
    29    12    13   ar
    30    13    23   ar
    31    23    22   ar
    32    22    21   ar
    33    21    11   ar
    34     4     5   ar
    35     5     6   ar
    36     6     7   ar
    37     7     8   ar
    38     8     9   ar
    39     9     4   ar
