@<TRIPOS>MOLECULE
No_313-gen_results/8p0m/2024-11-26-14-13-15/
 20 23 0 0 0
SMALL
GASTEIGER

@<TRIPOS>ATOM
      1 O         -28.1229   -1.3353   28.4874 O.2     1  UNL1       -0.2730
      2 C         -27.4806   -0.4044   28.7094 C.2     1  UNL1        0.2462
      3 N         -26.4599   -0.1104   28.0051 N.am    1  UNL1       -0.1794
      4 C         -25.4297    0.8788   28.3572 C.ar    1  UNL1        0.0729
      5 C         -24.3600    1.0559   27.5650 C.ar    1  UNL1        0.0583
      6 C         -27.9530    0.7132   29.7121 C.3     1  UNL1        0.0953
      7 C         -23.1512    1.5610   28.0811 C.ar    1  UNL1        0.1970
      8 C         -23.1600    1.8222   29.5234 C.ar    1  UNL1        0.0418
      9 C         -24.2201    1.5697   30.3453 C.ar    1  UNL1        0.0006
     10 C         -25.3459    0.9509   29.7570 C.ar    1  UNL1       -0.0030
     11 C         -26.7111    1.0728   30.5658 C.3     1  UNL1        0.0476
     12 O         -22.0768    1.9613   27.4403 O.3     1  UNL1       -0.2865
     13 C         -26.5908    0.0842   31.7862 C.3     1  UNL1        0.0133
     14 C         -26.9028    2.5000   31.1173 C.ar    1  UNL1       -0.0224
     15 C         -26.8778    3.4980   30.4441 C.ar    1  UNL1       -0.0043
     16 C         -26.6969    4.7642   30.9533 C.ar    1  UNL1       -0.0003
     17 C         -26.7226    4.9177   32.3498 C.ar    1  UNL1       -0.0003
     18 C         -26.6787    3.8046   33.1948 C.ar    1  UNL1       -0.0046
     19 C         -26.7044    2.5236   32.5769 C.ar    1  UNL1       -0.0258
     20 C         -26.5830    1.2295   33.2080 C.3     1  UNL1        0.0267
@<TRIPOS>BOND
     1     1     2    2
     2     2     3   am
     3     3     4    1
     4     2     6    1
     5     6    11    1
     6    10    11    1
     7     7    12    1
     8    11    13    1
     9    11    14    1
    10    13    20    1
    11    19    20    1
    12     4     5   ar
    13     5     7   ar
    14     7     8   ar
    15     8     9   ar
    16     9    10   ar
    17    10     4   ar
    18    14    15   ar
    19    15    16   ar
    20    16    17   ar
    21    17    18   ar
    22    18    19   ar
    23    19    14   ar
