@<TRIPOS>MOLECULE
No_3130-gen_results/8p0m/2024-11-26-14-13-15/
 19 20 0 0 0
SMALL
GASTEIGER

@<TRIPOS>ATOM
      1 O         -28.1229   -1.3353   28.4874 O.2     1  UNL1       -0.2734
      2 C         -27.0637   -0.8242   28.8687 C.2     1  UNL1        0.2409
      3 C         -26.9592    0.0926   29.7582 C.3     1  UNL1        0.0783
      4 N         -25.8012   -1.3565   28.3971 N.am    1  UNL1       -0.2054
      5 C         -27.8641    0.8180   30.2806 C.3     1  UNL1        0.0098
      6 C         -24.6321   -1.0203   28.8274 C.3     1  UNL1        0.1152
      7 C         -24.4548    0.0299   29.6596 C.3     1  UNL1        0.0239
      8 C         -25.5474    0.6155   30.1733 C.3     1  UNL1        0.0109
      9 C         -28.6876    1.5302   29.6134 C.3     1  UNL1        0.0092
     10 C         -28.3706    1.9623   28.4096 C.3     1  UNL1        0.0439
     11 C         -27.3336    2.6778   28.1936 C.ar    1  UNL1       -0.0184
     12 C         -26.8146    3.1055   26.8679 C.ar    1  UNL1       -0.0040
     13 C         -25.4788    3.5024   26.6887 C.ar    1  UNL1       -0.0003
     14 C         -24.6050    3.6337   27.7829 C.ar    1  UNL1       -0.0000
     15 C         -25.1116    3.3867   29.0527 C.ar    1  UNL1       -0.0003
     16 C         -26.3303    2.8775   29.2265 C.ar    1  UNL1       -0.0040
     17 C         -29.2911    1.7951   27.2531 C.2     1  UNL1       -0.0266
     18 C         -28.9218    1.2886   26.1370 C.2     1  UNL1       -0.0300
     19 C         -29.6894    1.3313   24.9864 C.3     1  UNL1        0.0304
@<TRIPOS>BOND
     1     1     2    2
     2     2     3    1
     3     2     4   am
     4     3     5    1
     5     4     6    1
     6     3     8    1
     7     7     8    1
     8     5     9    1
     9     9    10    1
    10    10    11    1
    11    10    17    1
    12    17    18    2
    13    18    19    1
    14     7     6    1
    15    11    12   ar
    16    12    13   ar
    17    13    14   ar
    18    14    15   ar
    19    15    16   ar
    20    16    11   ar
