@<TRIPOS>MOLECULE
No_3131-gen_results/8p0m/2024-11-26-14-13-15/
 13 14 0 0 0
SMALL
GASTEIGER

@<TRIPOS>ATOM
      1 C         -28.0162   -0.8135   28.8779 C.ar    1  UNL1       -0.0039
      2 C         -28.4690   -0.7850   29.8287 C.ar    1  UNL1       -0.0003
      3 C         -28.1960    0.3478   28.0550 C.ar    1  UNL1       -0.0178
      4 C         -29.0191    1.3501   28.3782 C.ar    1  UNL1       -0.0039
      5 C         -29.4107    0.1803   30.3782 C.ar    1  UNL1       -0.0000
      6 C         -29.6059    1.2495   29.6193 C.ar    1  UNL1       -0.0003
      7 C         -27.4597    0.3802   26.7091 C.3     1  UNL1        0.0526
      8 C         -26.4659    1.4084   26.5648 C.ar    1  UNL1       -0.0178
      9 C         -25.2424    1.0667   26.0698 C.ar    1  UNL1       -0.0039
     10 C         -24.1634    2.0014   26.1256 C.ar    1  UNL1       -0.0003
     11 C         -24.4380    3.2637   26.6959 C.ar    1  UNL1       -0.0000
     12 C         -25.6702    3.6269   27.1636 C.ar    1  UNL1       -0.0003
     13 C         -26.6882    2.6449   27.1843 C.ar    1  UNL1       -0.0039
@<TRIPOS>BOND
     1     3     7    1
     2     7     8    1
     3     8     9   ar
     4     9    10   ar
     5    10    11   ar
     6    11    12   ar
     7    12    13   ar
     8    13     8   ar
     9     1     2   ar
    10     2     5   ar
    11     5     6   ar
    12     6     4   ar
    13     4     3   ar
    14     3     1   ar
