@<TRIPOS>MOLECULE
No_3132-gen_results/8p0m/2024-11-26-14-13-15/
 11 11 0 0 0
SMALL
GASTEIGER

@<TRIPOS>ATOM
      1 C         -28.0162   -0.8135   28.8779 C.3     1  UNL1        0.0043
      2 C         -28.4690   -0.7850   29.8287 C.3     1  UNL1        0.0003
      3 C         -26.5042   -0.7777   28.8766 C.3     1  UNL1        0.0220
      4 C         -25.8305   -1.6807   29.6849 C.3     1  UNL1        0.0043
      5 C         -28.1490   -1.8854   30.9031 C.3     1  UNL1        0.0000
      6 C         -27.3123   -2.7414   30.4277 C.3     1  UNL1        0.0003
      7 C         -25.6051   -0.0615   28.0354 C.2     1  UNL1       -0.0265
      8 C         -25.9364    0.6274   26.9572 C.2     1  UNL1       -0.0049
      9 C         -25.0203    1.3085   26.1559 C.2     1  UNL1       -0.0049
     10 C         -23.6853    1.4646   26.5922 C.2     1  UNL1       -0.0258
     11 C         -23.2850    0.8645   27.7799 C.3     1  UNL1        0.0307
@<TRIPOS>BOND
     1     1     2    1
     2     1     3    1
     3     3     4    1
     4     2     5    1
     5     4     6    1
     6     5     6    1
     7     3     7    1
     8     7     8    2
     9     8     9    1
    10     9    10    2
    11    10    11    1
