@<TRIPOS>MOLECULE
No_3133-gen_results/8p0m/2024-11-26-14-13-15/
 14 15 0 0 0
SMALL
GASTEIGER

@<TRIPOS>ATOM
      1 C         -28.0162   -0.8135   28.8779 C.ar    1  UNL1        0.0066
      2 C         -28.4690   -0.7850   29.8287 C.ar    1  UNL1        0.0798
      3 C         -26.5455   -0.8762   28.8500 C.ar    1  UNL1        0.0002
      4 C         -25.8041   -1.0324   30.0571 C.ar    1  UNL1       -0.0003
      5 C         -27.9437   -0.9869   31.2075 C.ar    1  UNL1        0.0066
      6 C         -24.4008   -1.0969   30.0965 C.2     1  UNL1       -0.0042
      7 C         -26.5612   -1.0746   31.2270 C.ar    1  UNL1        0.0002
      8 C         -23.6402   -1.0939   29.0566 C.2     1  UNL1       -0.0214
      9 C         -22.1825   -0.9471   29.1176 C.3     1  UNL1        0.0520
     10 C         -23.6288   -0.1164   30.9293 C.2     1  UNL1       -0.0045
     11 C         -22.0161   -0.1591   30.2075 C.2     1  UNL1       -0.0214
     12 C         -30.0851   -0.6698   29.8874 C.2     1  UNL1        0.3878
     13 O         -30.6099    0.2396   30.5974 O.co2   1  UNL1       -0.2406
     14 O         -30.7349   -1.6444   29.4547 O.co2   1  UNL1       -0.2406
@<TRIPOS>BOND
     1     4     6    1
     2     6     8    2
     3     8     9    1
     4     6    10    1
     5     9    11    1
     6    10    11    2
     7     2    12    1
     8    12    13   ar
     9    12    14   ar
    10     1     2   ar
    11     2     5   ar
    12     5     7   ar
    13     7     4   ar
    14     4     3   ar
    15     3     1   ar
