@<TRIPOS>MOLECULE
No_3134-gen_results/8p0m/2024-11-26-14-13-15/
 13 14 0 0 0
SMALL
GASTEIGER

@<TRIPOS>ATOM
      1 C         -28.0162   -0.8135   28.8779 C.ar    1  UNL1        0.0001
      2 C         -27.0636   -0.1189   28.6079 C.ar    1  UNL1        0.0022
      3 C         -26.9716    0.7139   27.5060 C.ar    1  UNL1        0.0275
      4 C         -28.1053    0.7744   26.6421 C.ar    1  UNL1        0.1401
      5 C         -29.2041    0.1179   27.0477 C.ar    1  UNL1        0.0296
      6 C         -29.2127   -0.6088   28.1281 C.ar    1  UNL1        0.0023
      7 C         -25.6104    1.3028   27.2626 C.ar    1  UNL1        0.0022
      8 C         -25.1406    2.2250   28.1273 C.ar    1  UNL1        0.0001
      9 C         -23.8074    2.7906   27.8881 C.ar    1  UNL1        0.0000
     10 C         -23.0780    2.2817   26.7865 C.ar    1  UNL1        0.0000
     11 C         -24.7421    0.8719   26.2350 C.ar    1  UNL1        0.0001
     12 C         -23.5318    1.3606   26.0019 C.ar    1  UNL1        0.0000
     13 F         -27.9930    1.5296   25.5847 F       1  UNL1       -0.2042
@<TRIPOS>BOND
     1     3     7    1
     2     4    13    1
     3     7     8   ar
     4     8     9   ar
     5     9    10   ar
     6    10    12   ar
     7    12    11   ar
     8    11     7   ar
     9     1     2   ar
    10     2     3   ar
    11     3     4   ar
    12     4     5   ar
    13     5     6   ar
    14     6     1   ar
