@<TRIPOS>MOLECULE
No_3135-gen_results/8p0m/2024-11-26-14-13-15/
 12 12 0 0 0
SMALL
GASTEIGER

@<TRIPOS>ATOM
      1 C         -28.0162   -0.8135   28.8779 C.ar    1  UNL1       -0.0002
      2 C         -28.4690   -0.7850   29.8287 C.ar    1  UNL1       -0.0000
      3 C         -26.5042   -0.7777   28.8766 C.ar    1  UNL1       -0.0013
      4 C         -25.7623   -0.0022   27.9705 C.2     1  UNL1       -0.0002
      5 C         -24.3914    0.1198   28.1381 C.2     1  UNL1       -0.0000
      6 C         -23.7115   -0.7200   29.0863 C.2     1  UNL1       -0.0000
      7 C         -22.2952   -0.5807   29.2689 C.2     1  UNL1       -0.0000
      8 C         -27.9776   -1.4826   31.0816 C.ar    1  UNL1       -0.0002
      9 C         -26.5869   -1.6416   31.0603 C.ar    1  UNL1       -0.0016
     10 C         -25.8434   -1.2669   30.0370 C.ar    1  UNL1        0.0129
     11 C         -24.4071   -1.2359   30.0939 C.3     1  UNL1        0.2197
     12 F         -23.8379   -1.8911   31.0491 F       1  UNL1       -0.2291
@<TRIPOS>BOND
     1     3     4    1
     2     4     5    2
     3     5     6    1
     4     6     7    2
     5    10    11    1
     6    11    12    1
     7     1     2   ar
     8     2     8   ar
     9     8     9   ar
    10     9    10   ar
    11    10     3   ar
    12     3     1   ar
