@<TRIPOS>MOLECULE
No_3136-gen_results/8p0m/2024-11-26-14-13-15/
 22 24 0 0 0
SMALL
GASTEIGER

@<TRIPOS>ATOM
      1 C         -28.0162   -0.8135   28.8779 C.ar    1  UNL1        0.0006
      2 C         -28.4690   -0.7850   29.8287 C.ar    1  UNL1        0.0533
      3 C         -26.5042   -0.7777   28.8766 C.ar    1  UNL1       -0.0176
      4 C         -25.8103   -0.8531   30.1028 C.ar    1  UNL1       -0.0039
      5 C         -27.9906   -0.8916   31.2257 C.ar    1  UNL1        0.0045
      6 C         -26.6042   -0.8676   31.2652 C.ar    1  UNL1       -0.0002
      7 C         -30.0739   -0.8360   29.8615 C.2     1  UNL1        0.2490
      8 O         -30.6891   -1.6554   30.2229 O.2     1  UNL1       -0.2699
      9 N         -30.6139    0.2846   29.2227 N.am    1  UNL1       -0.2760
     10 C         -32.0200    0.3382   29.0215 C.3     1  UNL1        0.0950
     11 C         -29.8434    1.4262   28.7504 C.3     1  UNL1        0.0950
     12 C         -30.0266    2.0167   27.9025 C.3     1  UNL1        0.0378
     13 C         -32.3490    1.2027   27.8851 C.3     1  UNL1        0.0378
     14 C         -31.4223    2.1778   27.4225 C.3     1  UNL1        0.0833
     15 C         -25.6573   -0.6799   27.6677 C.3     1  UNL1        0.0526
     16 C         -25.2397    0.6912   27.3335 C.ar    1  UNL1       -0.0178
     17 C         -25.7342    1.7351   27.5219 C.ar    1  UNL1       -0.0039
     18 C         -25.2319    2.9672   27.1559 C.ar    1  UNL1       -0.0003
     19 C         -23.9511    2.9838   26.4984 C.ar    1  UNL1       -0.0000
     20 C         -23.8880    0.7898   26.6636 C.ar    1  UNL1       -0.0039
     21 C         -23.3535    1.8975   26.2701 C.ar    1  UNL1       -0.0003
     22 CL        -31.9246    3.2348   26.2072 Cl      1  UNL1       -0.1149
@<TRIPOS>BOND
     1     2     7    1
     2     7     8    2
     3     7     9   am
     4     9    10    1
     5     9    11    1
     6    12    14    1
     7    13    14    1
     8     3    15    1
     9    15    16    1
    10    14    22    1
    11    10    13    1
    12    12    11    1
    13     1     2   ar
    14     2     5   ar
    15     5     6   ar
    16     6     4   ar
    17     4     3   ar
    18     3     1   ar
    19    16    17   ar
    20    17    18   ar
    21    18    19   ar
    22    19    21   ar
    23    21    20   ar
    24    20    16   ar
