@<TRIPOS>MOLECULE
No_3138-gen_results/8p0m/2024-11-26-14-13-15/
 26 28 0 0 0
SMALL
GASTEIGER

@<TRIPOS>ATOM
      1 C         -28.0162   -0.8135   28.8779 C.3     1  UNL1        0.1223
      2 C         -27.0636   -0.1190   28.6079 C.ar    1  UNL1        0.0043
      3 C         -26.9716    0.7139   27.5060 C.ar    1  UNL1        0.0776
      4 C         -25.8205    1.4909   27.1160 C.ar    1  UNL1        0.0129
      5 C         -24.6562    1.4242   27.9180 C.ar    1  UNL1        0.0800
      6 C         -24.7114    0.5419   29.0507 C.ar    1  UNL1        0.0063
      7 C         -25.8042   -0.2058   29.3881 C.ar    1  UNL1       -0.0022
      8 N         -28.7233   -0.6113   29.9885 N.pl3   1  UNL1       -0.2825
      9 C         -29.8128   -1.4112   30.4034 C.ar    1  UNL1        0.0518
     10 C         -23.4660    2.1584   27.6247 C.2     1  UNL1        0.3878
     11 O         -22.6245    1.7732   27.1767 O.co2   1  UNL1       -0.2406
     12 O         -23.6769    3.5095   27.7950 O.co2   1  UNL1       -0.2406
     13 C         -30.6165   -1.1093   31.4515 C.ar    1  UNL1        0.0148
     14 C         -31.6633   -1.6277   31.7803 C.ar    1  UNL1        0.0013
     15 C         -32.0497   -2.8153   31.0247 C.ar    1  UNL1        0.0001
     16 C         -31.3188   -3.2355   29.9646 C.ar    1  UNL1        0.0013
     17 C         -30.1609   -2.5395   29.6545 C.ar    1  UNL1        0.0148
     18 C         -28.1354    0.8130   26.6425 C.2     1  UNL1        0.3875
     19 O         -28.3954    2.0021   26.1298 O.co2   1  UNL1       -0.2406
     20 C         -28.4440    0.5849   30.8288 C.ar    1  UNL1        0.0518
     21 O         -29.0911    0.0581   26.7322 O.co2   1  UNL1       -0.2406
     22 C         -27.9969    0.6496   31.9196 C.ar    1  UNL1        0.0148
     23 C         -27.5478    1.8314   32.5183 C.ar    1  UNL1        0.0013
     24 C         -29.0761    1.8731   30.4208 C.ar    1  UNL1        0.0148
     25 C         -28.8415    3.0731   30.9787 C.ar    1  UNL1        0.0013
     26 C         -28.0404    3.0795   32.1255 C.ar    1  UNL1        0.0001
@<TRIPOS>BOND
     1     1     8    1
     2     8     9    1
     3     5    10    1
     4    10    11   ar
     5    10    12   ar
     6     3    18    1
     7    18    19   ar
     8     8    20    1
     9    18    21   ar
    10     1     2    1
    11    20    22   ar
    12    22    23   ar
    13    23    26   ar
    14    26    25   ar
    15    25    24   ar
    16    24    20   ar
    17     2     3   ar
    18     3     4   ar
    19     4     5   ar
    20     5     6   ar
    21     6     7   ar
    22     7     2   ar
    23     9    13   ar
    24    13    14   ar
    25    14    15   ar
    26    15    16   ar
    27    16    17   ar
    28    17     9   ar
