@<TRIPOS>MOLECULE
No_3139-gen_results/8p0m/2024-11-26-14-13-15/
 20 22 0 0 0
SMALL
GASTEIGER

@<TRIPOS>ATOM
      1 C         -28.0162   -0.8135   28.8779 C.ar    1  UNL1        0.0114
      2 C         -27.0636   -0.1189   28.6079 C.ar    1  UNL1        0.0009
      3 C         -25.7923   -0.4302   29.0761 C.ar    1  UNL1       -0.0001
      4 C         -24.5456    0.3494   28.8225 C.ar    1  UNL1        0.0005
      5 C         -23.2409    0.0217   29.3323 C.ar    1  UNL1       -0.0001
      6 C         -27.8820   -1.8995   29.8633 C.ar    1  UNL1        0.0577
      7 C         -26.6526   -2.3142   30.3138 C.ar    1  UNL1        0.0114
      8 C         -25.5153   -1.5607   29.9787 C.ar    1  UNL1        0.0009
      9 C         -22.1588    0.7866   28.9507 C.ar    1  UNL1        0.0031
     10 C         -22.1309    1.7439   27.9818 C.ar    1  UNL1        0.0366
     11 C         -24.5165    1.3706   27.7930 C.ar    1  UNL1        0.0324
     12 C         -23.3378    2.0353   27.4273 C.ar    1  UNL1        0.1361
     13 CL        -29.2393   -2.8479   30.3411 Cl      1  UNL1       -0.0822
     14 O         -23.4600    2.9818   26.4699 O.3     1  UNL1       -0.4737
     15 C         -24.7259    2.9044   25.8126 C.3     1  UNL1        0.2285
     16 C         -25.5526    1.7501   26.9160 C.3     1  UNL1        0.1469
     17 CL        -26.7150    2.6597   27.7539 Cl      1  UNL1       -0.1033
     18 C         -25.9937    0.7166   26.0133 C.2     1  UNL1       -0.0085
     19 C         -27.2353    0.9437   25.3511 C.2     1  UNL1       -0.0288
     20 C         -28.0346    2.0081   25.6172 C.3     1  UNL1        0.0304
@<TRIPOS>BOND
     1     3     4    1
     2     6    13    1
     3    12    14    1
     4    14    15    1
     5    11    16    1
     6    15    16    1
     7    16    17    1
     8    16    18    1
     9    18    19    2
    10    19    20    1
    11     1     2   ar
    12     2     3   ar
    13     3     8   ar
    14     8     7   ar
    15     7     6   ar
    16     6     1   ar
    17     4     5   ar
    18     5     9   ar
    19     9    10   ar
    20    10    12   ar
    21    12    11   ar
    22    11     4   ar
