@<TRIPOS>MOLECULE
No_3140-gen_results/8p0m/2024-11-26-14-13-15/
 12 12 0 0 0
SMALL
GASTEIGER

@<TRIPOS>ATOM
      1 F         -28.0727   -1.2542   28.5316 F       1  UNL1       -0.1993
      2 C         -27.0607   -0.6291   28.8721 C.ar    1  UNL1        0.1993
      3 C         -26.1528   -1.1557   29.4537 C.ar    1  UNL1        0.1993
      4 C         -24.8777   -0.5788   29.8639 C.ar    1  UNL1        0.1993
      5 C         -24.7426    0.8273   29.4808 C.ar    1  UNL1        0.1993
      6 C         -25.7883    1.3927   28.7628 C.ar    1  UNL1        0.1993
      7 C         -26.9145    0.7309   28.4427 C.ar    1  UNL1        0.1993
      8 F         -23.6958    1.4867   29.8328 F       1  UNL1       -0.1993
      9 F         -27.8532    1.3066   27.7278 F       1  UNL1       -0.1993
     10 F         -26.1634   -2.4609   29.9179 F       1  UNL1       -0.1993
     11 F         -25.5977    2.7193   28.4125 F       1  UNL1       -0.1993
     12 F         -23.9169   -1.1445   30.5942 F       1  UNL1       -0.1993
@<TRIPOS>BOND
     1     1     2    1
     2     5     8    1
     3     7     9    1
     4     3    10    1
     5     6    11    1
     6     4    12    1
     7     2     3   ar
     8     3     4   ar
     9     4     5   ar
    10     5     6   ar
    11     6     7   ar
    12     7     2   ar
