@<TRIPOS>MOLECULE
No_3141-gen_results/8p0m/2024-11-26-14-13-15/
 24 26 0 0 0
SMALL
GASTEIGER

@<TRIPOS>ATOM
      1 CL        -28.1493   -0.8198   28.9079 Cl      1  UNL1       -0.0463
      2 C         -27.8339    0.4961   29.0598 C.3     1  UNL1        0.3371
      3 F         -27.8833    1.0376   30.1944 F       1  UNL1       -0.1860
      4 C         -26.3797    0.7729   28.5385 C.3     1  UNL1        0.1210
      5 F         -28.6112    1.2493   28.2241 F       1  UNL1       -0.1860
      6 C         -25.4126    0.2715   29.2941 C.ar    1  UNL1       -0.0119
      7 C         -24.3784    1.1101   29.8225 C.ar    1  UNL1       -0.0037
      8 C         -23.2357    0.4982   30.4525 C.ar    1  UNL1       -0.0003
      9 C         -23.2679   -0.8563   30.7026 C.ar    1  UNL1       -0.0000
     10 C         -24.2465   -1.6598   30.2098 C.ar    1  UNL1       -0.0003
     11 C         -25.2550   -1.1166   29.4470 C.ar    1  UNL1       -0.0037
     12 C         -26.0606    1.4549   27.3212 C.2     1  UNL1       -0.0140
     13 C         -26.5236    1.1098   26.1010 C.2     1  UNL1        0.0125
     14 C         -27.3235    0.0224   25.7800 C.2     1  UNL1        0.0702
     15 C         -27.7289   -0.2163   24.4386 C.2     1  UNL1        0.0165
     16 C         -28.6823   -1.2123   24.1634 C.2     1  UNL1        0.0014
     17 C         -29.9851   -1.0735   24.6918 C.2     1  UNL1        0.0013
     18 C         -30.4132    0.1010   25.2451 C.ar    1  UNL1        0.0153
     19 C         -31.3594    0.4707   25.2878 C.ar    1  UNL1        0.0013
     20 C         -31.7937    1.7381   25.9467 C.ar    1  UNL1        0.0001
     21 C         -30.8002    2.6376   26.2984 C.ar    1  UNL1        0.0013
     22 C         -29.5028    2.3032   25.9297 C.ar    1  UNL1        0.0165
     23 C         -29.2298    1.0250   25.4601 C.ar    1  UNL1        0.0704
     24 N         -28.0281    0.8364   25.2003 N.pl3   1  UNL1       -0.2125
@<TRIPOS>BOND
     1     1     2    1
     2     2     3    1
     3     2     4    1
     4     2     5    1
     5     4     6    1
     6     4    12    1
     7    12    13    2
     8    13    14    1
     9    14    15    2
    10    15    16    1
    11    16    17    2
    12    17    18    1
    13    14    24    1
    14    23    24    1
    15    18    19   ar
    16    19    20   ar
    17    20    21   ar
    18    21    22   ar
    19    22    23   ar
    20    23    18   ar
    21     6     7   ar
    22     7     8   ar
    23     8     9   ar
    24     9    10   ar
    25    10    11   ar
    26    11     6   ar
