@<TRIPOS>MOLECULE
No_3142-gen_results/8p0m/2024-11-26-14-13-15/
 13 14 0 0 0
SMALL
GASTEIGER

@<TRIPOS>ATOM
      1 C         -28.0162   -0.8135   28.8779 C.ar    1  UNL1       -0.0003
      2 C         -28.4690   -0.7850   29.8287 C.ar    1  UNL1       -0.0000
      3 C         -26.5042   -0.7777   28.8766 C.ar    1  UNL1       -0.0039
      4 C         -25.8103   -0.8531   30.1028 C.ar    1  UNL1       -0.0178
      5 C         -27.9906   -0.8916   31.2257 C.ar    1  UNL1       -0.0003
      6 C         -26.6042   -0.8676   31.2652 C.ar    1  UNL1       -0.0039
      7 C         -24.3894   -0.8049   30.1638 C.3     1  UNL1        0.0526
      8 C         -23.8172    0.4762   29.9118 C.ar    1  UNL1       -0.0178
      9 C         -23.2476    0.8215   28.7226 C.ar    1  UNL1       -0.0039
     10 C         -23.5684    2.0468   28.0656 C.ar    1  UNL1       -0.0003
     11 C         -24.4547    2.8934   28.7205 C.ar    1  UNL1       -0.0000
     12 C         -24.9593    2.6594   29.9813 C.ar    1  UNL1       -0.0003
     13 C         -24.6687    1.4789   30.6634 C.ar    1  UNL1       -0.0039
@<TRIPOS>BOND
     1     4     7    1
     2     7     8    1
     3     8     9   ar
     4     9    10   ar
     5    10    11   ar
     6    11    12   ar
     7    12    13   ar
     8    13     8   ar
     9     1     2   ar
    10     2     5   ar
    11     5     6   ar
    12     6     4   ar
    13     4     3   ar
    14     3     1   ar
