@<TRIPOS>MOLECULE
No_3143-gen_results/8p0m/2024-11-26-14-13-15/
 16 16 0 0 0
SMALL
GASTEIGER

@<TRIPOS>ATOM
      1 C         -28.0162   -0.8135   28.8779 C.ar    1  UNL1       -0.0031
      2 C         -28.4690   -0.7850   29.8287 C.ar    1  UNL1       -0.0001
      3 C         -27.0871    0.2903   28.6377 C.ar    1  UNL1       -0.0073
      4 C         -26.2516    0.4114   27.4223 C.3     1  UNL1        0.1021
      5 C         -28.3913    0.1041   30.9805 C.ar    1  UNL1        0.0046
      6 C         -27.5332    1.1666   30.7866 C.ar    1  UNL1        0.0551
      7 C         -26.8281    1.2557   29.6454 C.ar    1  UNL1        0.0015
      8 CL        -25.9248    1.5383   26.5864 Cl      1  UNL1       -0.1102
      9 C         -25.4679   -0.8605   27.0900 C.3     1  UNL1        0.0223
     10 C         -27.3745    2.2166   31.8370 C.2     1  UNL1        0.2690
     11 N         -27.2286    2.1659   32.9301 N.am    1  UNL1       -0.1741
     12 C         -26.9465    3.1502   33.8267 C.2     1  UNL1        0.0886
     13 O         -27.3650    3.4529   31.2520 O.2     1  UNL1       -0.2680
     14 C         -25.9594    4.0532   33.4285 C.2     1  UNL1        0.0134
     15 C         -25.6446    4.1991   32.0640 C.2     1  UNL1       -0.0244
     16 C         -24.3631    4.7966   31.8609 C.3     1  UNL1        0.0307
@<TRIPOS>BOND
     1     3     4    1
     2     4     8    1
     3     4     9    1
     4     6    10    1
     5    10    11    1
     6    11    12    2
     7    10    13    2
     8    12    14    1
     9    14    15    2
    10    15    16    1
    11     1     2   ar
    12     2     5   ar
    13     5     6   ar
    14     6     7   ar
    15     7     3   ar
    16     3     1   ar
