@<TRIPOS>MOLECULE
No_3144-gen_results/8p0m/2024-11-26-14-13-15/
 19 21 0 0 0
SMALL
GASTEIGER

@<TRIPOS>ATOM
      1 C         -28.0162   -0.8135   28.8779 C.ar    1  UNL1        0.0376
      2 C         -28.4690   -0.7850   29.8287 C.ar    1  UNL1        0.0031
      3 C         -28.1960    0.3478   28.0550 C.ar    1  UNL1        0.1488
      4 C         -29.0191    1.3501   28.3782 C.ar    1  UNL1        0.0376
      5 C         -29.6249    1.2683   29.6012 C.ar    1  UNL1        0.0031
      6 C         -29.3791    0.1469   30.3923 C.ar    1  UNL1        0.0002
      7 O         -27.5010    0.3600   26.8208 O.3     1  UNL1       -0.4210
      8 C         -26.4998    1.3493   26.6628 C.2     1  UNL1        0.3457
      9 C         -25.2305    0.7454   26.6079 C.ar    1  UNL1        0.0760
     10 C         -24.0883    1.5675   26.6409 C.ar    1  UNL1        0.0065
     11 C         -22.7984    1.1183   26.9409 C.ar    1  UNL1        0.0018
     12 C         -22.6664    0.1132   27.9159 C.ar    1  UNL1        0.0192
     13 C         -23.9013   -0.6433   28.2247 C.ar    1  UNL1        0.0032
     14 C         -25.0639   -0.3856   27.5506 C.ar    1  UNL1        0.0065
     15 C         -21.4410   -0.1279   28.6258 C.ar    1  UNL1        0.0988
     16 O         -26.8243    2.4258   26.2235 O.2     1  UNL1       -0.2445
     17 C         -23.7314   -1.7651   29.1185 C.ar    1  UNL1        0.0207
     18 N         -21.4388   -1.1813   29.5516 N.ar    1  UNL1       -0.2423
     19 C         -22.5803   -1.8783   29.8205 C.ar    1  UNL1        0.0989
@<TRIPOS>BOND
     1     3     7    1
     2     7     8    1
     3     8     9    1
     4     8    16    2
     5     1     2   ar
     6     2     6   ar
     7     6     5   ar
     8     5     4   ar
     9     4     3   ar
    10     3     1   ar
    11    13    17   ar
    12    17    19   ar
    13    19    18   ar
    14    18    15   ar
    15    15    12   ar
    16     9    10   ar
    17    10    11   ar
    18    11    12   ar
    19    12    13   ar
    20    13    14   ar
    21    14     9   ar
