@<TRIPOS>MOLECULE
No_3145-gen_results/8p0m/2024-11-26-14-13-15/
 31 33 0 0 0
SMALL
GASTEIGER

@<TRIPOS>ATOM
      1 C         -28.0162   -0.8135   28.8779 C.ar    1  UNL1        0.0045
      2 C         -28.4690   -0.7850   29.8287 C.ar    1  UNL1        0.0536
      3 C         -26.5455   -0.8762   28.8500 C.ar    1  UNL1       -0.0002
      4 C         -25.8041   -1.0324   30.0571 C.ar    1  UNL1       -0.0039
      5 C         -27.9437   -0.9869   31.2075 C.ar    1  UNL1        0.0045
      6 C         -26.5825   -1.0386   31.2231 C.ar    1  UNL1       -0.0002
      7 C         -30.0606   -0.7371   29.9024 C.2     1  UNL1        0.2490
      8 O         -30.7252   -1.5544   30.2697 O.2     1  UNL1       -0.2699
      9 N         -30.5563    0.4242   29.3124 N.am    1  UNL1       -0.2761
     10 C         -31.9645    0.5638   29.1626 C.3     1  UNL1        0.0937
     11 C         -32.3342    1.5588   28.7573 C.3     1  UNL1        0.0216
     12 C         -31.4375    2.6378   28.2682 C.3     1  UNL1        0.0035
     13 C         -30.0453    2.4232   28.3605 C.3     1  UNL1        0.0216
     14 C         -29.5988    1.3754   28.9155 C.3     1  UNL1        0.0937
     15 C         -24.3713   -1.1927   30.0678 C.2     1  UNL1       -0.0218
     16 C         -23.6459   -1.3024   29.0512 C.2     1  UNL1       -0.0043
     17 C         -22.1733   -1.2129   29.0972 C.2     1  UNL1       -0.0003
     18 C         -21.6409    0.0557   29.1630 C.2     1  UNL1       -0.0003
     19 C         -22.4656    1.2094   29.0387 C.2     1  UNL1       -0.0046
     20 C         -23.3341    1.3808   27.9061 C.2     1  UNL1       -0.0265
     21 C         -23.9156    2.7082   27.7118 C.3     1  UNL1        0.0224
     22 C         -24.4400    3.2977   28.8005 C.3     1  UNL1        0.0090
     23 C         -25.5015    2.8480   29.3200 C.3     1  UNL1        0.0267
     24 C         -26.0528    3.4526   30.5671 C.ar    1  UNL1       -0.0222
     25 C         -26.7397    2.7535   31.4366 C.ar    1  UNL1       -0.0043
     26 C         -26.8087    3.1042   32.7858 C.ar    1  UNL1       -0.0003
     27 C         -26.4223    4.4225   33.1402 C.ar    1  UNL1       -0.0000
     28 C         -25.7463    5.2206   32.2077 C.ar    1  UNL1       -0.0003
     29 C         -25.4725    4.6767   30.9132 C.ar    1  UNL1       -0.0043
     30 C         -24.0516    3.1524   26.3746 C.3     1  UNL1        0.0047
     31 C         -23.7713   -1.0740   31.4425 C.3     1  UNL1        0.0310
@<TRIPOS>BOND
     1     2     7    1
     2     7     8    2
     3     7     9   am
     4     9    10    1
     5    11    12    1
     6     9    14    1
     7    13    14    1
     8     4    15    1
     9    15    16    2
    10    16    17    1
    11    17    18    2
    12    18    19    1
    13    19    20    2
    14    20    21    1
    15    21    22    1
    16    22    23    1
    17    23    24    1
    18    21    30    1
    19    15    31    1
    20    10    11    1
    21    12    13    1
    22    24    25   ar
    23    25    26   ar
    24    26    27   ar
    25    27    28   ar
    26    28    29   ar
    27    29    24   ar
    28     1     2   ar
    29     2     5   ar
    30     5     6   ar
    31     6     4   ar
    32     4     3   ar
    33     3     1   ar
