@<TRIPOS>MOLECULE
No_3146-gen_results/8p0m/2024-11-26-14-13-15/
 35 38 0 0 0
SMALL
GASTEIGER

@<TRIPOS>ATOM
      1 C         -28.0162   -0.8135   28.8779 C.ar    1  UNL1        0.0004
      2 C         -27.0636   -0.1190   28.6079 C.ar    1  UNL1        0.0062
      3 C         -26.9716    0.7139   27.5060 C.ar    1  UNL1        0.0004
      4 C         -28.1053    0.7744   26.6421 C.ar    1  UNL1        0.0066
      5 C         -29.2041    0.1179   27.0477 C.ar    1  UNL1        0.0798
      6 C         -29.2127   -0.6088   28.1281 C.ar    1  UNL1        0.0066
      7 C         -25.7106    1.4518   27.1380 C.ar    1  UNL1        0.0002
      8 C         -24.6052    0.9253   27.6902 C.ar    1  UNL1        0.0066
      9 C         -24.6227    0.0600   28.8225 C.ar    1  UNL1        0.0066
     10 C         -25.7269   -0.4734   29.2409 C.ar    1  UNL1        0.0757
     11 C         -23.2721    1.6772   27.4377 C.ar    1  UNL1        0.0798
     12 C         -23.2292    2.8472   26.7155 C.ar    1  UNL1        0.0066
     13 C         -24.5298    3.2387   26.0170 C.ar    1  UNL1        0.0002
     14 C         -25.7142    2.5251   26.3002 C.ar    1  UNL1        0.0000
     15 C         -22.0058    1.2993   28.0969 C.2     1  UNL1        0.3878
     16 O         -21.9337    0.2789   28.8480 O.co2   1  UNL1       -0.2406
     17 O         -20.9628    1.9670   27.7452 O.co2   1  UNL1       -0.2406
     18 C         -30.4170    0.3122   26.2216 C.2     1  UNL1        0.3878
     19 O         -30.5668   -0.4507   25.2451 O.co2   1  UNL1       -0.2406
     20 O         -31.3250    1.1545   26.5075 O.co2   1  UNL1       -0.2406
     21 C         -25.7637   -1.5092   30.3122 C.2     1  UNL1        0.3414
     22 O         -26.2327   -1.3112   31.3474 O.2     1  UNL1       -0.2449
     23 O         -25.2835   -2.6736   29.9187 O.3     1  UNL1       -0.4446
     24 C         -26.1041   -3.7688   29.5505 C.3     1  UNL1        0.1913
     25 C         -25.3693   -4.9804   29.3096 C.3     1  UNL1        0.0524
     26 C         -27.4110   -3.8386   29.9929 C.2     1  UNL1        0.0167
     27 C         -28.1665   -5.0357   29.9241 C.2     1  UNL1       -0.0010
     28 C         -29.4970   -4.9176   30.4298 C.ar    1  UNL1       -0.0002
     29 C         -30.4329   -5.8238   30.0642 C.ar    1  UNL1       -0.0000
     30 C         -31.8218   -5.7231   30.4791 C.ar    1  UNL1       -0.0000
     31 C         -32.1822   -4.6520   31.3317 C.ar    1  UNL1       -0.0000
     32 C         -31.2254   -3.7736   31.7634 C.ar    1  UNL1       -0.0000
     33 C         -29.9202   -3.8478   31.3403 C.ar    1  UNL1       -0.0000
     34 C         -32.7629   -6.6285   30.0028 C.2     1  UNL1       -0.0000
     35 C         -32.5255   -7.4035   29.1586 C.2     1  UNL1        0.0000
@<TRIPOS>BOND
     1    11    15    1
     2    15    16   ar
     3    15    17   ar
     4     5    18    1
     5    18    19   ar
     6    18    20   ar
     7    10    21    1
     8    21    22    2
     9    21    23    1
    10    23    24    1
    11    24    25    1
    12    24    26    1
    13    26    27    2
    14    27    28    1
    15    30    34    1
    16    34    35    2
    17    28    29   ar
    18    29    30   ar
    19    30    31   ar
    20    31    32   ar
    21    32    33   ar
    22    33    28   ar
    23     1     2   ar
    24     3     4   ar
    25     4     5   ar
    26     5     6   ar
    27     6     1   ar
    28     8    11   ar
    29    11    12   ar
    30    12    13   ar
    31    13    14   ar
    32    14     7   ar
    33     2     3   ar
    34     3     7   ar
    35     7     8   ar
    36     8     9   ar
    37     9    10   ar
    38    10     2   ar
