@<TRIPOS>MOLECULE
No_3147-gen_results/8p0m/2024-11-26-14-13-15/
 15 16 0 0 0
SMALL
GASTEIGER

@<TRIPOS>ATOM
      1 C         -28.0162   -0.8135   28.8779 C.ar    1  UNL1        0.0056
      2 C         -28.4690   -0.7850   29.8287 C.ar    1  UNL1        0.0678
      3 C         -26.5455   -0.8762   28.8500 C.ar    1  UNL1        0.0002
      4 C         -25.8041   -1.0324   30.0571 C.ar    1  UNL1        0.0000
      5 C         -27.9437   -0.9869   31.2075 C.ar    1  UNL1        0.0056
      6 C         -26.5825   -1.0386   31.2231 C.ar    1  UNL1        0.0002
      7 C         -30.0606   -0.7371   29.9024 C.2     1  UNL1        0.3334
      8 O         -30.7252   -1.5544   30.2697 O.2     1  UNL1       -0.2541
      9 F         -30.5270    0.3279   29.3297 F       1  UNL1       -0.1586
     10 C         -24.3746   -1.0938   30.0697 C.ar    1  UNL1        0.0000
     11 C         -23.6709   -1.7172   30.4717 C.ar    1  UNL1        0.0000
     12 C         -23.7618    0.0648   29.2243 C.ar    1  UNL1        0.0000
     13 C         -22.3478    0.1209   29.1181 C.ar    1  UNL1        0.0000
     14 C         -22.2466   -1.7707   30.5585 C.ar    1  UNL1        0.0000
     15 C         -21.5950   -0.7624   29.7839 C.ar    1  UNL1        0.0000
@<TRIPOS>BOND
     1     2     7    1
     2     7     8    2
     3     7     9    1
     4     4    10    1
     5    10    11   ar
     6    11    14   ar
     7    14    15   ar
     8    15    13   ar
     9    13    12   ar
    10    12    10   ar
    11     1     2   ar
    12     2     5   ar
    13     5     6   ar
    14     6     4   ar
    15     4     3   ar
    16     3     1   ar
