@<TRIPOS>MOLECULE
No_3149-gen_results/8p0m/2024-11-26-14-13-15/
 15 16 0 0 0
SMALL
GASTEIGER

@<TRIPOS>ATOM
      1 C         -28.0162   -0.8135   28.8779 C.ar    1  UNL1        0.0293
      2 C         -28.4690   -0.7850   29.8287 C.ar    1  UNL1       -0.0017
      3 C         -28.1960    0.3478   28.0550 C.ar    1  UNL1        0.1401
      4 C         -29.0191    1.3501   28.3782 C.ar    1  UNL1        0.0293
      5 C         -29.4107    0.1803   30.3782 C.ar    1  UNL1       -0.0183
      6 C         -29.6059    1.2495   29.6193 C.ar    1  UNL1       -0.0017
      7 F         -27.6704    0.4416   26.7791 F       1  UNL1       -0.2042
      8 C         -29.9936   -0.0253   31.7658 C.3     1  UNL1        0.0446
      9 C         -29.8940    0.9512   32.5888 C.ar    1  UNL1       -0.0184
     10 C         -30.6010    0.8766   33.8816 C.ar    1  UNL1       -0.0040
     11 C         -30.5132    1.9299   34.8319 C.ar    1  UNL1       -0.0003
     12 C         -29.7482    3.0624   34.4617 C.ar    1  UNL1       -0.0000
     13 C         -29.0590    3.1496   33.2655 C.ar    1  UNL1       -0.0003
     14 C         -29.0886    2.0991   32.3601 C.ar    1  UNL1       -0.0040
     15 C         -31.3819   -0.5983   31.5389 C.3     1  UNL1        0.0094
@<TRIPOS>BOND
     1     3     7    1
     2     5     8    1
     3     8    15    1
     4     8     9    1
     5     9    10   ar
     6    10    11   ar
     7    11    12   ar
     8    12    13   ar
     9    13    14   ar
    10    14     9   ar
    11     1     2   ar
    12     2     5   ar
    13     5     6   ar
    14     6     4   ar
    15     4     3   ar
    16     3     1   ar
