@<TRIPOS>MOLECULE
No_315-gen_results/8p0m/2024-11-26-14-13-15/
 6 5 0 0 0
SMALL
GASTEIGER

@<TRIPOS>ATOM
      1 F         -28.0727   -1.2542   28.5316 F       1  UNL1       -0.1933
      2 C         -27.0607   -0.6291   28.8721 C.3     1  UNL1        0.3405
      3 F         -26.1267   -1.0777   29.2000 F       1  UNL1       -0.1933
      4 C         -27.3970    0.4962   29.8718 C.2     1  UNL1        0.0403
      5 C         -26.7400    1.3256   30.1605 C.2     1  UNL1       -0.0248
      6 C         -25.1935    0.9412   30.1478 C.3     1  UNL1        0.0305
@<TRIPOS>BOND
     1     1     2    1
     2     2     3    1
     3     2     4    1
     4     4     5    2
     5     5     6    1
