@<TRIPOS>MOLECULE
No_3150-gen_results/8p0m/2024-11-26-14-13-15/
 14 13 0 0 0
SMALL
GASTEIGER

@<TRIPOS>ATOM
      1 O         -28.1229   -1.3353   28.4874 O.2     1  UNL1       -0.2730
      2 C         -27.4806   -0.4044   28.7094 C.2     1  UNL1        0.2458
      3 C         -26.3804   -0.0867   27.9394 C.3     1  UNL1        0.1128
      4 N         -27.8993    0.6459   29.6320 N.am    1  UNL1       -0.2032
      5 C         -25.1243   -0.5319   28.3714 C.2     1  UNL1       -0.0165
      6 C         -24.3832    0.1011   29.3620 C.2     1  UNL1       -0.0041
      7 C         -24.7160    1.3454   29.7556 C.2     1  UNL1       -0.0003
      8 C         -28.9891    0.3355   30.4716 C.3     1  UNL1        0.1385
      9 C         -23.9228    1.9979   30.7598 C.2     1  UNL1       -0.0000
     10 C         -24.3130    1.8934   31.8449 C.2     1  UNL1       -0.0000
     11 C         -25.4215    2.1895   32.4437 C.2     1  UNL1       -0.0003
     12 C         -26.4418    2.4794   31.3904 C.2     1  UNL1       -0.0046
     13 C         -26.1155    2.6567   30.2560 C.2     1  UNL1       -0.0258
     14 C         -26.4600    3.3069   29.0330 C.3     1  UNL1        0.0307
@<TRIPOS>BOND
     1     1     2    2
     2     2     3    1
     3     2     4   am
     4     3     5    1
     5     5     6    2
     6     6     7    1
     7     4     8    1
     8     7     9    2
     9     9    10    1
    10    10    11    2
    11    11    12    1
    12    12    13    2
    13    13    14    1
