@<TRIPOS>MOLECULE
No_3151-gen_results/8p0m/2024-11-26-14-13-15/
 14 15 0 0 0
SMALL
GASTEIGER

@<TRIPOS>ATOM
      1 C         -28.0162   -0.8135   28.8779 C.ar    1  UNL1       -0.0003
      2 C         -27.0636   -0.1189   28.6079 C.ar    1  UNL1       -0.0040
      3 C         -26.9287    1.1713   29.0083 C.ar    1  UNL1       -0.0184
      4 C         -25.7702    2.0341   28.6884 C.3     1  UNL1        0.0446
      5 C         -24.7141    1.4431   27.9188 C.ar    1  UNL1       -0.0184
      6 C         -23.5566    2.1673   27.5933 C.ar    1  UNL1       -0.0040
      7 C         -29.0912   -0.2748   29.7317 C.ar    1  UNL1       -0.0000
      8 C         -29.0503    0.9872   30.1426 C.ar    1  UNL1       -0.0003
      9 C         -27.9501    1.7660   29.8118 C.ar    1  UNL1       -0.0040
     10 C         -24.9591    2.6142   29.7975 C.3     1  UNL1        0.0094
     11 C         -22.4291    1.8188   27.6842 C.ar    1  UNL1       -0.0003
     12 C         -22.0659    0.5977   28.3282 C.ar    1  UNL1       -0.0000
     13 C         -23.1219   -0.3680   28.5206 C.ar    1  UNL1       -0.0003
     14 C         -24.2315    0.1956   28.8580 C.ar    1  UNL1       -0.0040
@<TRIPOS>BOND
     1     3     4    1
     2     4    10    1
     3     4     5    1
     4     1     2   ar
     5     2     3   ar
     6     3     9   ar
     7     9     8   ar
     8     8     7   ar
     9     7     1   ar
    10     5     6   ar
    11     6    11   ar
    12    11    12   ar
    13    12    13   ar
    14    13    14   ar
    15    14     5   ar
