@<TRIPOS>MOLECULE
No_3152-gen_results/8p0m/2024-11-26-14-13-15/
 17 18 0 0 0
SMALL
GASTEIGER

@<TRIPOS>ATOM
      1 C         -28.0162   -0.8135   28.8779 C.ar    1  UNL1        0.0359
      2 C         -28.4690   -0.7850   29.8287 C.ar    1  UNL1        0.0029
      3 C         -28.1960    0.3478   28.0550 C.2     1  UNL1        0.1767
      4 C         -27.4421    0.5100   26.7946 C.3     1  UNL1        0.0841
      5 C         -27.8427    1.3330   25.8056 C.3     1  UNL1        0.0129
      6 C         -28.2558   -1.9271   30.8901 C.ar    1  UNL1        0.0010
      7 C         -27.4492   -2.9641   30.4317 C.ar    1  UNL1        0.0114
      8 C         -26.6412   -2.8044   29.3509 C.ar    1  UNL1        0.0578
      9 C         -26.7826   -1.6363   28.6124 C.ar    1  UNL1        0.0142
     10 O         -29.1386    1.1607   28.1452 O.2     1  UNL1       -0.2910
     11 CL        -25.4349   -3.9504   29.0317 Cl      1  UNL1       -0.0822
     12 C         -25.9857    0.9240   27.0351 C.ar    1  UNL1       -0.0152
     13 C         -25.1974    1.3492   26.1552 C.ar    1  UNL1       -0.0039
     14 C         -23.8456    1.7279   26.4996 C.ar    1  UNL1       -0.0003
     15 C         -23.3443    1.3123   27.7161 C.ar    1  UNL1       -0.0000
     16 C         -24.0850    0.7048   28.6250 C.ar    1  UNL1       -0.0003
     17 C         -25.4203    0.4634   28.3241 C.ar    1  UNL1       -0.0039
@<TRIPOS>BOND
     1     1     3    1
     2     3     4    1
     3     4     5    1
     4     3    10    2
     5     8    11    1
     6     4    12    1
     7    12    13   ar
     8    13    14   ar
     9    14    15   ar
    10    15    16   ar
    11    16    17   ar
    12    17    12   ar
    13     1     2   ar
    14     2     6   ar
    15     6     7   ar
    16     7     8   ar
    17     8     9   ar
    18     9     1   ar
