@<TRIPOS>MOLECULE
No_3154-gen_results/8p0m/2024-11-26-14-13-15/
 15 16 0 0 0
SMALL
GASTEIGER

@<TRIPOS>ATOM
      1 C         -28.0162   -0.8135   28.8779 C.ar    1  UNL1        0.0410
      2 C         -28.4690   -0.7850   29.8287 C.ar    1  UNL1        0.0599
      3 C         -26.5042   -0.7777   28.8766 C.ar    1  UNL1        0.1409
      4 C         -25.8103   -0.8531   30.1028 C.ar    1  UNL1        0.0275
      5 C         -27.9906   -0.8916   31.2257 C.ar    1  UNL1        0.0115
      6 C         -26.6042   -0.8676   31.2652 C.ar    1  UNL1        0.0031
      7 CL        -30.2937   -0.8377   29.8355 Cl      1  UNL1       -0.0822
      8 C         -24.3898   -0.7158   29.9392 C.ar    1  UNL1        0.0022
      9 C         -23.8085    0.6173   30.2354 C.ar    1  UNL1        0.0015
     10 C         -22.5236    0.8848   29.7147 C.ar    1  UNL1        0.0181
     11 C         -21.7905   -0.0916   29.0133 C.ar    1  UNL1        0.0891
     12 N         -20.6284    0.2475   28.5510 N.pl3   1  UNL1       -0.1281
     13 C         -22.3466   -1.4183   28.8593 C.ar    1  UNL1        0.0181
     14 C         -23.6938   -1.6769   29.2384 C.ar    1  UNL1        0.0015
     15 F         -25.8604   -0.7803   27.7351 F       1  UNL1       -0.2041
@<TRIPOS>BOND
     1     2     7    1
     2     4     8    1
     3    11    12    1
     4     3    15    1
     5     8     9   ar
     6     9    10   ar
     7    10    11   ar
     8    11    13   ar
     9    13    14   ar
    10    14     8   ar
    11     1     2   ar
    12     2     5   ar
    13     5     6   ar
    14     6     4   ar
    15     4     3   ar
    16     3     1   ar
