@<TRIPOS>MOLECULE
No_3156-gen_results/8p0m/2024-11-26-14-13-15/
 22 24 0 0 0
SMALL
GASTEIGER

@<TRIPOS>ATOM
      1 C         -28.0162   -0.8135   28.8779 C.ar    1  UNL1        0.0106
      2 C         -28.4690   -0.7850   29.8287 C.ar    1  UNL1        0.0512
      3 C         -26.5042   -0.7777   28.8766 C.ar    1  UNL1       -0.0206
      4 C         -25.8103   -0.8531   30.1028 C.ar    1  UNL1       -0.0042
      5 C         -27.9906   -0.8916   31.2257 C.ar    1  UNL1        0.0148
      6 C         -26.6042   -0.8676   31.2652 C.ar    1  UNL1        0.0010
      7 N         -29.9538   -0.7893   29.6417 N.pl3   1  UNL1       -0.2871
      8 C         -30.6786    0.2685   30.0366 C.ar    1  UNL1        0.0475
      9 C         -32.0523    0.1633   29.8008 C.ar    1  UNL1       -0.0085
     10 C         -32.9191    1.2547   30.0209 C.ar    1  UNL1       -0.0030
     11 C         -32.2702    2.4345   30.5568 C.ar    1  UNL1       -0.0002
     12 C         -30.9303    2.4959   30.7607 C.ar    1  UNL1        0.0013
     13 C         -30.0820    1.4317   30.4911 C.ar    1  UNL1        0.0145
     14 C         -30.5492   -2.0475   29.4140 C.3     1  UNL1        0.0959
     15 C         -31.8988   -2.1044   29.2769 C.3     1  UNL1        0.0265
     16 C         -32.6006   -1.0682   29.4399 C.3     1  UNL1        0.0294
     17 C         -25.6722   -0.7296   27.6588 C.3     1  UNL1        0.0307
     18 C         -25.2745    0.6401   27.2963 C.3     1  UNL1        0.0261
     19 C         -23.9947    0.9247   27.6790 C.2     1  UNL1       -0.0307
     20 C         -23.3350    2.0812   27.1029 C.2     1  UNL1       -0.0304
     21 C         -22.0228    2.4708   27.5259 C.3     1  UNL1        0.0303
     22 C         -25.7637    1.2342   26.1144 C.3     1  UNL1        0.0050
@<TRIPOS>BOND
     1     2     7    1
     2     7     8    1
     3     7    14    1
     4     9    16    1
     5    15    16    1
     6     3    17    1
     7    17    18    1
     8    18    19    1
     9    19    20    2
    10    20    21    1
    11    18    22    1
    12    15    14    1
    13     1     2   ar
    14     2     5   ar
    15     5     6   ar
    16     6     4   ar
    17     4     3   ar
    18     3     1   ar
    19     8    13   ar
    20    13    12   ar
    21    12    11   ar
    22    11    10   ar
    23    10     9   ar
    24     9     8   ar
