@<TRIPOS>MOLECULE
No_3157-gen_results/8p0m/2024-11-26-14-13-15/
 23 24 0 0 0
SMALL
GASTEIGER

@<TRIPOS>ATOM
      1 C         -28.0162   -0.8135   28.8779 C.ar    1  UNL1        0.0041
      2 C         -27.0636   -0.1189   28.6079 C.ar    1  UNL1        0.0726
      3 C         -26.9716    0.7139   27.5060 C.ar    1  UNL1        0.0186
      4 C         -28.1053    0.7744   26.6421 C.ar    1  UNL1        0.0536
      5 C         -29.2008    0.1044   27.0527 C.ar    1  UNL1        0.0669
      6 C         -29.2096   -0.6029   28.1853 C.ar    1  UNL1        0.0057
      7 C         -30.2850    0.2735   26.0122 C.2     1  UNL1        0.2515
      8 N         -30.1557    0.4970   24.8545 N.am    1  UNL1       -0.2568
      9 O         -31.4784   -0.0882   26.4595 O.2     1  UNL1       -0.2698
     10 C         -25.7135   -0.2195   29.4462 C.3     1  UNL1        0.4186
     11 F         -24.7553   -0.6428   28.7870 F       1  UNL1       -0.1659
     12 F         -25.8706   -1.0769   30.5056 F       1  UNL1       -0.1659
     13 F         -25.3894    0.9343   29.9643 F       1  UNL1       -0.1659
     14 C         -31.2155    0.5046   23.8059 C.3     1  UNL1        0.1168
     15 C         -28.8763    0.9198   24.1512 C.3     1  UNL1        0.1912
     16 N         -27.8518    1.2658   25.3972 N.pl3   1  UNL1       -0.2863
     17 C         -26.6786    1.9870   25.0238 C.3     1  UNL1        0.1188
     18 C         -25.4541    1.1688   25.3164 C.2     1  UNL1       -0.0047
     19 C         -24.3249    1.8953   25.7379 C.2     1  UNL1       -0.0028
     20 C         -23.4434    1.8765   26.6104 C.2     1  UNL1        0.0014
     21 C         -23.7618    1.7879   28.0020 C.2     1  UNL1        0.0225
     22 C         -22.6788    1.8358   28.9980 C.2     1  UNL1        0.1221
     23 N         -21.4810    1.6746   28.4698 N.2     1  UNL1       -0.1464
@<TRIPOS>BOND
     1     5     7    1
     2     7     8   am
     3     7     9    2
     4     2    10    1
     5    10    11    1
     6    10    12    1
     7    10    13    1
     8     8    14    1
     9     8    15    1
    10     4    16    1
    11    15    16    1
    12    16    17    1
    13    17    18    1
    14    18    19    2
    15    19    20    1
    16    20    21    2
    17    21    22    1
    18    22    23    2
    19     1     2   ar
    20     2     3   ar
    21     3     4   ar
    22     4     5   ar
    23     5     6   ar
    24     6     1   ar
