@<TRIPOS>MOLECULE
No_3158-gen_results/8p0m/2024-11-26-14-13-15/
 20 20 0 0 0
SMALL
GASTEIGER

@<TRIPOS>ATOM
      1 C         -28.0162   -0.8135   28.8779 C.ar    1  UNL1        0.0040
      2 C         -27.0636   -0.1189   28.6079 C.ar    1  UNL1        0.0714
      3 C         -27.0010    0.6913   27.4910 C.ar    1  UNL1        0.0040
      4 C         -28.1373    0.7363   26.6350 C.ar    1  UNL1        0.0045
      5 C         -29.2360    0.0765   27.0690 C.ar    1  UNL1        0.0539
      6 C         -30.3815    0.2048   26.2662 C.2     1  UNL1        0.2528
      7 C         -29.1803   -0.6422   28.1830 C.ar    1  UNL1        0.0045
      8 N         -30.3650    0.0173   24.9969 N.am    1  UNL1       -0.2522
      9 O         -31.5530    0.2684   26.8013 O.2     1  UNL1       -0.2696
     10 C         -25.6945   -0.2105   29.4150 C.3     1  UNL1        0.4186
     11 F         -24.7331   -0.4555   28.7428 F       1  UNL1       -0.1659
     12 F         -25.8078   -1.1759   30.3946 F       1  UNL1       -0.1659
     13 F         -25.5061    0.9377   30.0678 F       1  UNL1       -0.1659
     14 C         -29.1390   -0.2384   24.2403 C.3     1  UNL1        0.1204
     15 C         -31.5173    0.0766   24.0964 C.2     1  UNL1        0.0678
     16 C         -32.1479    1.1023   24.1020 C.2     1  UNL1        0.0162
     17 C         -33.3580    1.3739   23.4079 C.2     1  UNL1        0.0013
     18 C         -34.0241    2.6160   23.3630 C.2     1  UNL1        0.0000
     19 C         -33.4674    3.5385   24.0973 C.2     1  UNL1        0.0000
     20 C         -32.2945    3.4872   24.8437 C.2     1  UNL1        0.0000
@<TRIPOS>BOND
     1     5     6    1
     2     6     8   am
     3     6     9    2
     4     2    10    1
     5    10    11    1
     6    10    12    1
     7    10    13    1
     8     8    14    1
     9     8    15    1
    10    15    16    2
    11    16    17    1
    12    17    18    2
    13    18    19    1
    14    19    20    2
    15     1     2   ar
    16     2     3   ar
    17     3     4   ar
    18     4     5   ar
    19     5     7   ar
    20     7     1   ar
