@<TRIPOS>MOLECULE
No_3160-gen_results/8p0m/2024-11-26-14-13-15/
 27 29 0 0 0
SMALL
GASTEIGER

@<TRIPOS>ATOM
      1 O         -28.1229   -1.3353   28.4874 O.2     1  UNL1       -0.2738
      2 C         -27.4806   -0.4044   28.7094 C.2     1  UNL1        0.2371
      3 C         -26.3804   -0.0867   27.9394 C.3     1  UNL1        0.1214
      4 N         -27.8993    0.6459   29.6321 N.am    1  UNL1       -0.2568
      5 C         -25.1243   -0.5319   28.3714 C.ar    1  UNL1       -0.0089
      6 C         -24.8017   -1.7099   28.7916 C.ar    1  UNL1       -0.0034
      7 C         -23.4705   -2.1424   29.1411 C.ar    1  UNL1        0.0006
      8 C         -22.4762   -1.2147   28.9743 C.ar    1  UNL1        0.0114
      9 C         -22.6752    0.0939   28.5057 C.ar    1  UNL1        0.0574
     10 C         -24.0344    0.4457   28.1999 C.ar    1  UNL1        0.0079
     11 C         -27.2800    1.9028   29.8486 C.ar    1  UNL1        0.0547
     12 C         -27.4039    2.2959   30.9499 C.ar    1  UNL1        0.0150
     13 C         -26.6901    3.5702   31.3794 C.ar    1  UNL1        0.0021
     14 C         -25.9704    4.2685   30.3698 C.ar    1  UNL1        0.0115
     15 C         -25.8759    3.6839   29.1061 C.ar    1  UNL1        0.0589
     16 C         -26.4952    2.4643   28.8581 C.ar    1  UNL1        0.0263
     17 CL        -24.9248    4.4761   27.9239 Cl      1  UNL1       -0.0822
     18 CL        -21.3734    1.1375   28.3590 Cl      1  UNL1       -0.0823
     19 C         -29.2652    0.4567   30.0829 C.3     1  UNL1        0.1157
     20 C         -30.2772    0.8320   29.2274 C.3     1  UNL1        0.1167
     21 CL        -31.3915    1.1065   29.3599 Cl      1  UNL1       -0.1118
     22 C         -26.5649    0.2945   26.5527 C.ar    1  UNL1       -0.0098
     23 C         -27.8137    0.6615   26.0601 C.ar    1  UNL1       -0.0035
     24 C         -28.0129    1.0296   24.7725 C.ar    1  UNL1       -0.0003
     25 C         -25.5407    0.3192   25.6258 C.ar    1  UNL1       -0.0035
     26 C         -25.6531    0.4595   24.2757 C.ar    1  UNL1       -0.0003
     27 C         -26.9347    0.8560   23.9006 C.ar    1  UNL1       -0.0000
@<TRIPOS>BOND
     1     1     2    2
     2     2     3    1
     3     2     4   am
     4     3     5    1
     5     4    11    1
     6    15    17    1
     7     9    18    1
     8     4    19    1
     9    19    20    1
    10    20    21    1
    11     3    22    1
    12    11    12   ar
    13    12    13   ar
    14    13    14   ar
    15    14    15   ar
    16    15    16   ar
    17    16    11   ar
    18     5     6   ar
    19     6     7   ar
    20     7     8   ar
    21     8     9   ar
    22     9    10   ar
    23    10     5   ar
    24    22    23   ar
    25    23    24   ar
    26    24    27   ar
    27    27    26   ar
    28    26    25   ar
    29    25    22   ar
