@<TRIPOS>MOLECULE
No_3161-gen_results/8p0m/2024-11-26-14-13-15/
 11 11 0 0 0
SMALL
GASTEIGER

@<TRIPOS>ATOM
      1 C         -28.0162   -0.8135   28.8779 C.ar    1  UNL1        0.0388
      2 C         -27.0636   -0.1189   28.6079 C.ar    1  UNL1        0.1623
      3 N         -25.8176   -0.3427   29.0488 N.ar    1  UNL1       -0.2251
      4 C         -25.5552   -1.4726   29.7295 C.ar    1  UNL1        0.1006
      5 C         -26.6210   -2.2986   30.1049 C.ar    1  UNL1        0.0208
      6 C         -27.8348   -1.9700   29.6762 C.ar    1  UNL1        0.0047
      7 N         -27.3684    1.0615   27.9342 N.2     1  UNL1       -0.2251
      8 C         -28.1058    1.2582   26.9834 C.2     1  UNL1        0.1002
      9 C         -28.2281    2.5174   26.2327 C.2     1  UNL1        0.0161
     10 C         -27.3683    3.5827   26.6476 C.2     1  UNL1       -0.0242
     11 C         -26.4041    3.3675   27.5999 C.3     1  UNL1        0.0307
@<TRIPOS>BOND
     1     2     7    1
     2     7     8    2
     3     8     9    1
     4     9    10    2
     5    10    11    1
     6     1     2   ar
     7     2     3   ar
     8     3     4   ar
     9     4     5   ar
    10     5     6   ar
    11     6     1   ar
