@<TRIPOS>MOLECULE
No_3162-gen_results/8p0m/2024-11-26-14-13-15/
 12 12 0 0 0
SMALL
GASTEIGER

@<TRIPOS>ATOM
      1 O         -28.1229   -1.3353   28.4874 O.2     1  UNL1       -0.2360
      2 C         -28.5208   -0.4363   29.0779 C.2     1  UNL1        0.3937
      3 N         -27.7860    0.1607   30.0148 N.am    1  UNL1       -0.2467
      4 F         -29.7574   -0.2611   29.1680 F       1  UNL1       -0.1434
      5 C         -28.1274    1.0321   30.9522 C.3     1  UNL1        0.1178
      6 C         -26.3965   -0.3578   30.1728 C.3     1  UNL1        0.1227
      7 C         -25.5024    0.5892   29.7239 C.ar    1  UNL1       -0.0023
      8 C         -25.4411    1.0691   28.5137 C.ar    1  UNL1       -0.0026
      9 C         -24.4332    1.9752   28.1165 C.ar    1  UNL1       -0.0003
     10 C         -23.2303    2.0405   28.8627 C.ar    1  UNL1       -0.0000
     11 C         -23.1965    1.4402   30.0985 C.ar    1  UNL1       -0.0003
     12 C         -24.2855    0.6856   30.6319 C.ar    1  UNL1       -0.0026
@<TRIPOS>BOND
     1     1     2    2
     2     2     3   am
     3     2     4    1
     4     3     5    1
     5     3     6    1
     6     6     7    1
     7     7     8   ar
     8     8     9   ar
     9     9    10   ar
    10    10    11   ar
    11    11    12   ar
    12    12     7   ar
