@<TRIPOS>MOLECULE
No_3163-gen_results/8p0m/2024-11-26-14-13-15/
 25 27 0 0 0
SMALL
GASTEIGER

@<TRIPOS>ATOM
      1 C         -28.0162   -0.8135   28.8779 C.ar    1  UNL1        0.0421
      2 C         -28.4690   -0.7850   29.8287 C.ar    1  UNL1        0.0581
      3 C         -26.5455   -0.8762   28.8500 C.ar    1  UNL1        0.1456
      4 C         -25.8041   -1.0324   30.0571 C.ar    1  UNL1        0.0375
      5 C         -27.9437   -0.9869   31.2075 C.ar    1  UNL1        0.0048
      6 C         -26.5825   -1.0386   31.2231 C.ar    1  UNL1        0.0033
      7 C         -30.0606   -0.7371   29.9024 C.2     1  UNL1        0.2661
      8 N         -30.6956   -1.6968   30.2944 N.am    1  UNL1       -0.1856
      9 C         -30.2730   -2.6492   30.8951 C.3     1  UNL1        0.1317
     10 O         -30.4567    0.3228   29.3329 O.2     1  UNL1       -0.2683
     11 C         -30.2926   -4.0042   30.3187 C.3     1  UNL1        0.1364
     12 C         -31.1103   -4.2860   29.5475 C.ar    1  UNL1        0.0056
     13 C         -31.1126   -5.5738   28.7642 C.ar    1  UNL1       -0.0024
     14 C         -31.8809   -5.8120   27.7199 C.ar    1  UNL1       -0.0002
     15 C         -32.7704   -4.8512   27.2513 C.ar    1  UNL1        0.0014
     16 C         -32.8024   -3.6284   27.8694 C.ar    1  UNL1        0.0177
     17 C         -31.9223   -3.3340   28.9178 C.ar    1  UNL1        0.0840
     18 N         -31.6670   -2.0611   29.5047 N.pl3   1  UNL1       -0.1448
     19 C         -29.4185   -5.0571   31.0570 C.2     1  UNL1        0.3159
     20 O         -28.2258   -4.9726   30.8716 O.2     1  UNL1       -0.2587
     21 F         -29.9345   -5.9691   31.6858 F       1  UNL1       -0.1632
     22 O         -25.8219   -0.8181   27.6928 O.3     1  UNL1       -0.4508
     23 C         -24.5954   -0.2046   27.7886 C.2     1  UNL1        0.1750
     24 C         -23.6721   -0.5617   28.7335 C.2     1  UNL1        0.0148
     25 C         -24.4066   -0.7617   30.0672 C.3     1  UNL1        0.0341
@<TRIPOS>BOND
     1     2     7    1
     2     7     8   am
     3     8     9    1
     4     7    10    2
     5     9    11    1
     6     8    18    1
     7    17    18    1
     8    11    19    1
     9    19    20    2
    10    19    21    1
    11     3    22    1
    12    22    23    1
    13    23    24    2
    14    24    25    1
    15    11    12    1
    16    12    13   ar
    17    13    14   ar
    18    14    15   ar
    19    15    16   ar
    20    16    17   ar
    21    17    12   ar
    22     1     2   ar
    23     2     5   ar
    24     5     6   ar
    25     6     4   ar
    26     4     3   ar
    27     3     1   ar
