@<TRIPOS>MOLECULE
No_3164-gen_results/8p0m/2024-11-26-14-13-15/
 27 28 0 0 0
SMALL
GASTEIGER

@<TRIPOS>ATOM
      1 C         -28.0162   -0.8135   28.8779 C.ar    1  UNL1        0.0066
      2 C         -27.0636   -0.1189   28.6079 C.ar    1  UNL1        0.0068
      3 C         -26.9716    0.7139   27.5060 C.ar    1  UNL1        0.0806
      4 C         -25.8206    1.4910   27.1160 C.ar    1  UNL1        0.0182
      5 C         -24.6562    1.4242   27.9180 C.ar    1  UNL1        0.0642
      6 C         -24.6847    0.5901   29.0659 C.ar    1  UNL1        0.0903
      7 C         -25.8099   -0.1265   29.3338 C.ar    1  UNL1        0.0074
      8 C         -28.0445   -1.5734   30.1690 C.ar    1  UNL1        0.0757
      9 C         -26.8172   -1.7595   30.8704 C.ar    1  UNL1        0.0064
     10 C         -25.7477   -0.9917   30.5376 C.ar    1  UNL1        0.0004
     11 CL        -23.2729    2.3671   27.5304 Cl      1  UNL1       -0.0820
     12 C         -28.0850    0.8161   26.5112 C.2     1  UNL1        0.3878
     13 O         -27.9487    0.8749   25.3436 O.co2   1  UNL1       -0.2406
     14 O         -29.2584    0.7525   27.0126 O.co2   1  UNL1       -0.2406
     15 C         -29.2102   -2.4207   30.5196 C.2     1  UNL1        0.3415
     16 O         -29.1421   -3.5739   30.7094 O.2     1  UNL1       -0.2449
     17 O         -30.4175   -1.8889   30.2374 O.3     1  UNL1       -0.4404
     18 C         -23.4344    0.5561   29.8700 C.2     1  UNL1        0.3886
     19 O         -23.2318    1.0808   30.7656 O.co2   1  UNL1       -0.2405
     20 O         -22.5054   -0.2899   29.3500 O.co2   1  UNL1       -0.2405
     21 C         -31.4392   -2.2469   30.9509 C.3     1  UNL1        0.2352
     22 C         -31.6272   -1.7476   32.1160 C.2     1  UNL1        0.0208
     23 C         -31.2003   -0.4467   32.2704 C.2     1  UNL1       -0.0009
     24 C         -31.3465    0.5336   31.3581 C.2     1  UNL1       -0.0002
     25 C         -30.7920    1.8297   31.5325 C.2     1  UNL1       -0.0000
     26 C         -30.1656    2.1157   32.7363 C.2     1  UNL1       -0.0000
     27 C         -30.0673    1.2097   33.7483 C.2     1  UNL1       -0.0000
@<TRIPOS>BOND
     1     5    11    1
     2     3    12    1
     3    12    13   ar
     4    12    14   ar
     5     8    15    1
     6    15    16    2
     7    15    17    1
     8     6    18    1
     9    18    19   ar
    10    18    20   ar
    11    17    21    1
    12    21    22    1
    13    22    23    2
    14    23    24    1
    15    24    25    2
    16    25    26    1
    17    26    27    2
    18     2     3   ar
    19     3     4   ar
    20     4     5   ar
    21     5     6   ar
    22     6     7   ar
    23     1     2   ar
    24     2     7   ar
    25     7    10   ar
    26    10     9   ar
    27     9     8   ar
    28     8     1   ar
