@<TRIPOS>MOLECULE
No_3165-gen_results/8p0m/2024-11-26-14-13-15/
 21 23 0 0 0
SMALL
GASTEIGER

@<TRIPOS>ATOM
      1 C         -28.0162   -0.8135   28.8779 C.ar    1  UNL1        0.0032
      2 C         -28.4690   -0.7850   29.8287 C.ar    1  UNL1        0.0795
      3 C         -28.1816    0.4277   28.1134 C.ar    1  UNL1       -0.0077
      4 C         -28.9841    1.4155   28.5154 C.ar    1  UNL1       -0.0034
      5 C         -28.3375   -2.0481   30.7873 C.2     1  UNL1        0.3877
      6 C         -29.5615    1.2930   29.7416 C.ar    1  UNL1       -0.0001
      7 C         -29.3196    0.1647   30.4451 C.ar    1  UNL1        0.0066
      8 O         -27.3512   -2.1149   31.3658 O.co2   1  UNL1       -0.2406
      9 O         -29.2690   -2.9704   30.7086 O.co2   1  UNL1       -0.2406
     10 C         -27.4357    0.5008   26.7552 C.3     1  UNL1        0.1433
     11 C         -27.9772    0.9485   25.6508 C.2     1  UNL1        0.3251
     12 C         -25.9797    0.6263   26.8505 C.ar    1  UNL1       -0.0082
     13 C         -25.1749    0.1519   27.8717 C.ar    1  UNL1       -0.0013
     14 C         -23.8205    0.3058   27.9315 C.ar    1  UNL1        0.0293
     15 C         -23.1849    1.1295   26.9738 C.ar    1  UNL1        0.1399
     16 C         -23.9451    1.6832   25.9193 C.ar    1  UNL1        0.0287
     17 C         -25.3295    1.5125   25.9172 C.ar    1  UNL1        0.0204
     18 O         -29.0649    0.4450   25.3236 O.2     1  UNL1       -0.2494
     19 O         -27.3393    1.5433   24.6842 O.3     1  UNL1       -0.4431
     20 F         -21.9068    1.3888   27.1451 F       1  UNL1       -0.2042
     21 C         -26.1231    1.9068   24.8214 C.3     1  UNL1        0.2348
@<TRIPOS>BOND
     1     2     5    1
     2     5     8   ar
     3     5     9   ar
     4     3    10    1
     5    10    11    1
     6    10    12    1
     7    11    18    2
     8    11    19    1
     9    15    20    1
    10    17    21    1
    11    19    21    1
    12    12    13   ar
    13    13    14   ar
    14    14    15   ar
    15    15    16   ar
    16    16    17   ar
    17    17    12   ar
    18     1     2   ar
    19     2     7   ar
    20     7     6   ar
    21     6     4   ar
    22     4     3   ar
    23     3     1   ar
