@<TRIPOS>MOLECULE
No_3166-gen_results/8p0m/2024-11-26-14-13-15/
 18 19 0 0 0
SMALL
GASTEIGER

@<TRIPOS>ATOM
      1 O         -28.1229   -1.3353   28.4874 O.2     1  UNL1       -0.2683
      2 C         -27.0637   -0.8242   28.8687 C.2     1  UNL1        0.2662
      3 C         -25.9464   -1.0396   28.8492 C.ar    1  UNL1        0.0513
      4 C         -25.3522   -2.2524   28.5471 C.ar    1  UNL1        0.0043
      5 N         -27.2573    0.6208   29.4840 N.am    1  UNL1       -0.1786
      6 C         -26.2615    1.3937   29.8365 C.3     1  UNL1        0.2013
      7 C         -24.9553    0.9041   29.8149 C.3     1  UNL1        0.0732
      8 C         -24.6763   -0.2883   29.3924 C.ar    1  UNL1       -0.0140
      9 C         -24.0664   -2.7890   28.9558 C.ar    1  UNL1        0.0001
     10 C         -23.0335   -2.0020   29.3354 C.ar    1  UNL1       -0.0003
     11 C         -23.3187   -0.7677   29.6037 C.ar    1  UNL1       -0.0040
     12 N         -26.6041    2.6316   30.3355 N.2     1  UNL1       -0.2528
     13 C         -27.5466    3.2828   30.3518 C.2     1  UNL1        0.0734
     14 C         -28.6644    2.9300   29.8429 C.3     1  UNL1        0.0726
     15 C         -29.8978    3.4344   29.9193 C.2     1  UNL1       -0.0198
     16 C         -30.9980    2.8264   29.3397 C.2     1  UNL1       -0.0042
     17 C         -30.8250    1.6260   28.6414 C.2     1  UNL1       -0.0003
     18 C         -29.5876    1.0700   28.5129 C.2     1  UNL1       -0.0000
@<TRIPOS>BOND
     1     1     2    2
     2     2     3    1
     3     2     5   am
     4     6     7    1
     5     6    12    1
     6    12    13    2
     7    13    14    1
     8    14    15    1
     9    15    16    2
    10    16    17    1
    11    17    18    2
    12     8     7    1
    13     6     5    1
    14     3     4   ar
    15     4     9   ar
    16     9    10   ar
    17    10    11   ar
    18    11     8   ar
    19     8     3   ar
