@<TRIPOS>MOLECULE
No_3168-gen_results/8p0m/2024-11-26-14-13-15/
 22 24 0 0 0
SMALL
GASTEIGER

@<TRIPOS>ATOM
      1 C         -28.0162   -0.8135   28.8779 C.ar    1  UNL1        0.1417
      2 C         -27.0636   -0.1190   28.6079 C.ar    1  UNL1        0.0615
      3 C         -27.0010    0.6913   27.4910 C.ar    1  UNL1        0.1438
      4 C         -28.1373    0.7363   26.6350 C.ar    1  UNL1        0.0412
      5 C         -29.2360    0.0765   27.0690 C.ar    1  UNL1        0.0629
      6 C         -29.2177   -0.6429   28.1747 C.ar    1  UNL1        0.0484
      7 O         -27.7872   -1.5838   30.0230 O.3     1  UNL1       -0.4713
      8 CL        -30.6246    0.1606   26.0938 Cl      1  UNL1       -0.0821
      9 F         -25.8749    1.3742   27.1185 F       1  UNL1       -0.2040
     10 C         -25.6496   -0.1743   29.3846 C.ar    1  UNL1        0.0051
     11 C         -25.4341    0.6087   30.4296 C.ar    1  UNL1        0.0002
     12 C         -26.0202    1.5965   30.8368 C.ar    1  UNL1        0.0000
     13 C         -25.5451    2.4340   31.9307 C.ar    1  UNL1        0.0000
     14 C         -26.2973    3.4082   32.5974 C.ar    1  UNL1        0.0000
     15 C         -27.5240    3.7688   32.0111 C.ar    1  UNL1        0.0000
     16 C         -28.0100    3.0413   30.9271 C.ar    1  UNL1        0.0000
     17 C         -27.3194    2.0286   30.3911 C.ar    1  UNL1        0.0000
     18 C         -24.8398   -1.2503   28.9477 C.ar    1  UNL1        0.0002
     19 C         -23.5725   -1.3784   29.4970 C.ar    1  UNL1        0.0000
     20 C         -23.1874   -0.5532   30.5399 C.ar    1  UNL1        0.0000
     21 C         -24.0239    0.4111   31.0180 C.ar    1  UNL1        0.0000
     22 C         -28.7359   -1.6251   31.1102 C.3     1  UNL1        0.2525
@<TRIPOS>BOND
     1     1     7    1
     2     5     8    1
     3     3     9    1
     4     2    10    1
     5    11    12    1
     6     7    22    1
     7    12    13   ar
     8    13    14   ar
     9    14    15   ar
    10    15    16   ar
    11    16    17   ar
    12    17    12   ar
    13     1     2   ar
    14     2     3   ar
    15     3     4   ar
    16     4     5   ar
    17     5     6   ar
    18     6     1   ar
    19    10    11   ar
    20    11    21   ar
    21    21    20   ar
    22    20    19   ar
    23    19    18   ar
    24    18    10   ar
