@<TRIPOS>MOLECULE
No_3169-gen_results/8p0m/2024-11-26-14-13-15/
 18 19 0 0 0
SMALL
GASTEIGER

@<TRIPOS>ATOM
      1 C         -28.0162   -0.8135   28.8779 C.3     1  UNL1        0.1319
      2 C         -27.0636   -0.1190   28.6079 C.ar    1  UNL1        0.0157
      3 C         -27.0010    0.6913   27.4910 C.ar    1  UNL1        0.1327
      4 C         -25.8548    1.4825   27.0830 C.ar    1  UNL1        0.0133
      5 C         -24.6901    1.4526   27.8807 C.ar    1  UNL1        0.0807
      6 C         -23.4878    2.1451   27.6011 C.2     1  UNL1        0.2667
      7 C         -25.8122   -0.1656   29.4299 C.ar    1  UNL1        0.0280
      8 C         -24.6457    0.5887   29.0806 C.ar    1  UNL1        0.1440
      9 C         -28.6766   -0.4983   30.2414 C.3     1  UNL1        0.4018
     10 N         -23.4359    3.0662   26.7313 N.am    1  UNL1       -0.2013
     11 O         -22.3369    1.8120   28.1103 O.2     1  UNL1       -0.2683
     12 F         -29.5213   -1.4745   30.5973 F       1  UNL1       -0.1697
     13 F         -29.1199    0.4140   30.8458 F       1  UNL1       -0.1697
     14 F         -27.9657    0.7478   26.6740 F       1  UNL1       -0.2048
     15 F         -27.6196   -0.9981   31.2254 F       1  UNL1       -0.1697
     16 F         -23.6415    0.5645   29.8323 F       1  UNL1       -0.2040
     17 C         -24.6568    3.6430   26.1739 C.3     1  UNL1        0.1202
     18 C         -25.9659    2.3683   26.0220 C.3     1  UNL1        0.0523
@<TRIPOS>BOND
     1     1     2    1
     2     5     6    1
     3     1     9    1
     4     6    10   am
     5     6    11    2
     6     9    12    1
     7     9    13    1
     8     3    14    1
     9     9    15    1
    10     8    16    1
    11    10    17    1
    12     4    18    1
    13    17    18    1
    14     2     3   ar
    15     3     4   ar
    16     4     5   ar
    17     5     8   ar
    18     8     7   ar
    19     7     2   ar
