@<TRIPOS>MOLECULE
No_317-gen_results/8p0m/2024-11-26-14-13-15/
 25 28 0 0 0
SMALL
GASTEIGER

@<TRIPOS>ATOM
      1 C         -28.0162   -0.8135   28.8779 C.ar    1  UNL1       -0.0002
      2 C         -27.0636   -0.1189   28.6079 C.ar    1  UNL1       -0.0014
      3 C         -25.7923   -0.4302   29.0761 C.ar    1  UNL1       -0.0177
      4 C         -25.5756   -1.5654   29.9363 C.ar    1  UNL1       -0.0039
      5 C         -26.7354   -2.3004   30.2173 C.ar    1  UNL1       -0.0003
      6 C         -27.9184   -1.9537   29.7629 C.ar    1  UNL1       -0.0000
      7 C         -27.1057    1.1023   27.7593 C.2     1  UNL1        0.0287
      8 C         -26.7157    2.2350   27.9945 C.2     1  UNL1        0.1398
      9 C         -26.0688    2.4770   29.3567 C.ar    1  UNL1        0.0240
     10 C         -26.2622    3.4491   30.0956 C.ar    1  UNL1        0.0085
     11 C         -25.6340    3.5822   31.4192 C.ar    1  UNL1        0.0798
     12 C         -24.6717    2.6589   31.7915 C.ar    1  UNL1        0.0063
     13 C         -24.3736    1.6330   30.9475 C.ar    1  UNL1       -0.0037
     14 C         -25.0017    1.5279   29.7386 C.ar    1  UNL1       -0.0156
     15 C         -24.5362    0.5445   28.7942 C.3     1  UNL1        0.0527
     16 C         -27.1788    0.7559   26.4613 C.ar    1  UNL1        0.0213
     17 C         -26.2332    0.2843   25.5806 C.ar    1  UNL1        0.0989
     18 C         -28.5006    0.9007   25.8194 C.ar    1  UNL1        0.0032
     19 C         -28.7475    0.4970   24.5474 C.ar    1  UNL1        0.0207
     20 N         -26.4262   -0.0878   24.3326 N.ar    1  UNL1       -0.2423
     21 C         -27.6696    0.0117   23.8417 C.ar    1  UNL1        0.0989
     22 F         -27.0544    3.3181   27.4048 F       1  UNL1       -0.2042
     23 C         -25.8988    4.7732   32.3138 C.2     1  UNL1        0.3878
     24 O         -26.6339    5.4572   31.9632 O.co2   1  UNL1       -0.2406
     25 O         -25.1151    4.7901   33.3923 O.co2   1  UNL1       -0.2406
@<TRIPOS>BOND
     1     2     7    1
     2     7     8    2
     3     8     9    1
     4     3    15    1
     5    14    15    1
     6     7    16    1
     7     8    22    1
     8    11    23    1
     9    23    24   ar
    10    23    25   ar
    11     1     2   ar
    12     2     3   ar
    13     3     4   ar
    14     4     5   ar
    15     5     6   ar
    16     6     1   ar
    17    16    17   ar
    18    17    20   ar
    19    20    21   ar
    20    21    19   ar
    21    19    18   ar
    22    18    16   ar
    23     9    10   ar
    24    10    11   ar
    25    11    12   ar
    26    12    13   ar
    27    13    14   ar
    28    14     9   ar
