@<TRIPOS>MOLECULE
No_3171-gen_results/8p0m/2024-11-26-14-13-15/
 35 37 0 0 0
SMALL
GASTEIGER

@<TRIPOS>ATOM
      1 C         -28.0162   -0.8135   28.8779 C.ar    1  UNL1        0.0020
      2 C         -28.4690   -0.7850   29.8287 C.ar    1  UNL1        0.0794
      3 C         -26.5042   -0.7777   28.8766 C.ar    1  UNL1       -0.0253
      4 C         -25.8103   -0.8531   30.1028 C.ar    1  UNL1       -0.0216
      5 C         -27.9906   -0.8916   31.2257 C.ar    1  UNL1        0.0062
      6 C         -26.6042   -0.8676   31.2652 C.ar    1  UNL1       -0.0040
      7 C         -24.3894   -0.8049   30.1638 C.3     1  UNL1        0.0570
      8 C         -23.8172    0.4762   29.9118 C.2     1  UNL1        0.0388
      9 C         -24.1955    1.5984   30.1917 C.2     1  UNL1        0.0007
     10 C         -24.3461    2.6026   29.7471 C.2     1  UNL1       -0.0002
     11 C         -24.7059    2.7882   28.5761 C.2     1  UNL1       -0.0003
     12 C         -24.8352    4.0479   27.9159 C.2     1  UNL1       -0.0039
     13 C         -25.7061    4.5596   27.5417 C.2     1  UNL1       -0.0178
     14 C         -25.6694    5.9504   27.1375 C.2     1  UNL1       -0.0039
     15 C         -25.7215    7.0406   27.4008 C.2     1  UNL1       -0.0003
     16 C         -26.3342    7.3673   28.7092 C.ar    1  UNL1       -0.0000
     17 C         -26.3414    8.7201   29.1215 C.ar    1  UNL1       -0.0000
     18 C         -26.8990    9.1059   30.3836 C.ar    1  UNL1       -0.0000
     19 C         -27.4219    8.0518   31.1698 C.ar    1  UNL1        0.0000
     20 C         -27.3590    6.7523   30.7944 C.ar    1  UNL1       -0.0000
     21 C         -26.7475    6.3887   29.5820 C.ar    1  UNL1       -0.0000
     22 C         -22.6821    0.3442   28.9519 C.2     1  UNL1        0.2805
     23 N         -21.8444   -0.7339   29.1231 N.am    1  UNL1       -0.0840
     24 O         -22.3423    1.2464   28.2037 O.2     1  UNL1       -0.2670
     25 C         -25.7398   -0.7108   27.6287 C.3     1  UNL1        0.0307
     26 C         -30.0907   -0.8073   29.8215 C.2     1  UNL1        0.3877
     27 O         -30.5192   -0.3363   28.8599 O.co2   1  UNL1       -0.2406
     28 O         -30.7773   -1.2893   30.7714 O.co2   1  UNL1       -0.2406
     29 C         -27.0128    4.0361   27.4599 C.3     1  UNL1        0.0526
     30 C         -27.1678    3.0162   26.4634 C.ar    1  UNL1       -0.0178
     31 C         -28.0270    3.1836   25.6182 C.ar    1  UNL1       -0.0039
     32 C         -28.3421    2.1452   24.6069 C.ar    1  UNL1       -0.0003
     33 C         -27.5857    1.0004   24.6414 C.ar    1  UNL1       -0.0000
     34 C         -26.5665    0.8542   25.5555 C.ar    1  UNL1       -0.0003
     35 C         -26.3388    1.8518   26.5163 C.ar    1  UNL1       -0.0039
@<TRIPOS>BOND
     1     4     7    1
     2     7     8    1
     3     8     9    2
     4     9    10    1
     5    10    11    2
     6    11    12    1
     7    12    13    2
     8    13    14    1
     9    14    15    2
    10    15    16    1
    11     8    22    1
    12    22    23   am
    13    22    24    2
    14     3    25    1
    15     2    26    1
    16    26    27   ar
    17    26    28   ar
    18    13    29    1
    19    29    30    1
    20    30    31   ar
    21    31    32   ar
    22    32    33   ar
    23    33    34   ar
    24    34    35   ar
    25    35    30   ar
    26     1     2   ar
    27     2     5   ar
    28     5     6   ar
    29     6     4   ar
    30     4     3   ar
    31     3     1   ar
    32    16    17   ar
    33    17    18   ar
    34    18    19   ar
    35    19    20   ar
    36    20    21   ar
    37    21    16   ar
