@<TRIPOS>MOLECULE
No_3172-gen_results/8p0m/2024-11-26-14-13-15/
 7 7 0 0 0
SMALL
GASTEIGER

@<TRIPOS>ATOM
      1 O         -28.1229   -1.3353   28.4874 O.2     1  UNL1       -0.2733
      2 C         -27.0637   -0.8242   28.8687 C.2     1  UNL1        0.2414
      3 N         -26.8938   -0.2656   29.6815 N.am    1  UNL1       -0.2054
      4 C         -25.7432   -1.2103   28.0363 C.3     1  UNL1        0.0869
      5 C         -24.7369   -0.7819   28.4256 C.3     1  UNL1        0.0114
      6 C         -24.4692    0.0597   29.5118 C.3     1  UNL1        0.0239
      7 C         -25.7010    0.3252   30.2185 C.3     1  UNL1        0.1152
@<TRIPOS>BOND
     1     1     2    2
     2     2     3   am
     3     2     4    1
     4     4     5    1
     5     3     7    1
     6     6     7    1
     7     6     5    1
