@<TRIPOS>MOLECULE
No_3173-gen_results/8p0m/2024-11-26-14-13-15/
 11 11 0 0 0
SMALL
GASTEIGER

@<TRIPOS>ATOM
      1 C         -28.0162   -0.8135   28.8779 C.ar    1  UNL1        0.0935
      2 C         -27.0636   -0.1189   28.6079 C.ar    1  UNL1        0.0642
      3 C         -27.0010    0.6913   27.4910 C.ar    1  UNL1        0.0149
      4 C         -28.1373    0.7363   26.6350 C.ar    1  UNL1        0.0429
      5 C         -29.2360    0.0765   27.0690 C.ar    1  UNL1        0.1960
      6 C         -29.2177   -0.6429   28.1747 C.ar    1  UNL1        0.0495
      7 O         -30.3423    0.1617   26.2790 O.3     1  UNL1       -0.2866
      8 CL        -25.5437   -0.2201   29.5373 Cl      1  UNL1       -0.0820
      9 C         -28.0366   -1.7061   30.1338 C.2     1  UNL1        0.3887
     10 O         -28.2657   -1.3383   31.1695 O.co2   1  UNL1       -0.2405
     11 O         -27.6798   -2.9611   29.8999 O.co2   1  UNL1       -0.2405
@<TRIPOS>BOND
     1     5     7    1
     2     2     8    1
     3     1     9    1
     4     9    10   ar
     5     9    11   ar
     6     1     2   ar
     7     2     3   ar
     8     3     4   ar
     9     4     5   ar
    10     5     6   ar
    11     6     1   ar
