@<TRIPOS>MOLECULE
No_3174-gen_results/8p0m/2024-11-26-14-13-15/
 7 7 0 0 0
SMALL
GASTEIGER

@<TRIPOS>ATOM
      1 BR        -28.1146   -0.6256   29.0813 Br      1  UNL1       -0.0490
      2 C         -26.9268    0.4545   28.6846 C.ar    1  UNL1        0.0346
      3 C         -25.8457    0.7043   29.3312 C.ar    1  UNL1        0.0067
      4 C         -24.7279    1.4477   28.8871 C.ar    1  UNL1        0.0005
      5 C         -24.8689    2.0866   27.6343 C.ar    1  UNL1        0.0000
      6 C         -25.9924    1.8522   26.8962 C.ar    1  UNL1        0.0005
      7 C         -26.9133    1.0340   27.3905 C.ar    1  UNL1        0.0067
@<TRIPOS>BOND
     1     1     2    1
     2     2     3   ar
     3     3     4   ar
     4     4     5   ar
     5     5     6   ar
     6     6     7   ar
     7     7     2   ar
