@<TRIPOS>MOLECULE
No_3175-gen_results/8p0m/2024-11-26-14-13-15/
 15 16 0 0 0
SMALL
GASTEIGER

@<TRIPOS>ATOM
      1 C         -28.0162   -0.8135   28.8779 C.ar    1  UNL1       -0.0042
      2 C         -28.4690   -0.7850   29.8287 C.ar    1  UNL1       -0.0003
      3 C         -26.5455   -0.8762   28.8500 C.ar    1  UNL1       -0.0191
      4 C         -25.6825   -0.7773   27.6829 C.3     1  UNL1        0.0524
      5 C         -28.0261   -0.9156   30.9273 C.ar    1  UNL1       -0.0003
      6 C         -26.6223   -0.9928   31.2166 C.ar    1  UNL1       -0.0019
      7 C         -25.8198   -0.9885   30.1081 C.ar    1  UNL1        0.0093
      8 C         -25.1878    0.5655   27.3385 C.ar    1  UNL1       -0.0178
      9 C         -23.9572    0.8566   27.8049 C.ar    1  UNL1       -0.0039
     10 C         -23.3754    2.1214   27.4308 C.ar    1  UNL1       -0.0003
     11 C         -24.0012    2.9534   26.5541 C.ar    1  UNL1       -0.0000
     12 C         -25.9818    1.4525   26.5937 C.ar    1  UNL1       -0.0039
     13 C         -25.3393    2.6156   26.1369 C.ar    1  UNL1       -0.0003
     14 C         -24.4179   -1.1232   30.2418 C.3     1  UNL1        0.2194
     15 F         -23.7071   -0.3915   29.4607 F       1  UNL1       -0.2291
@<TRIPOS>BOND
     1     3     4    1
     2     4     8    1
     3     7    14    1
     4    14    15    1
     5     1     2   ar
     6     2     5   ar
     7     5     6   ar
     8     6     7   ar
     9     7     3   ar
    10     3     1   ar
    11     8     9   ar
    12     9    10   ar
    13    10    11   ar
    14    11    13   ar
    15    13    12   ar
    16    12     8   ar
