@<TRIPOS>MOLECULE
No_3176-gen_results/8p0m/2024-11-26-14-13-15/
 24 26 0 0 0
SMALL
GASTEIGER

@<TRIPOS>ATOM
      1 C         -28.0162   -0.8135   28.8779 C.ar    1  UNL1        0.0114
      2 C         -27.0636   -0.1189   28.6079 C.ar    1  UNL1        0.0009
      3 C         -25.7923   -0.4302   29.0761 C.ar    1  UNL1        0.0002
      4 C         -24.5456    0.3494   28.8225 C.ar    1  UNL1        0.0030
      5 C         -24.6586    1.4196   27.8878 C.ar    1  UNL1        0.0369
      6 C         -23.5403    2.1791   27.5500 C.ar    1  UNL1        0.1391
      7 C         -22.2925    1.7429   28.0473 C.ar    1  UNL1        0.0369
      8 C         -22.1712    0.7080   28.9284 C.ar    1  UNL1        0.0031
      9 C         -23.3345   -0.0624   29.3081 C.ar    1  UNL1        0.0002
     10 C         -27.9466   -1.8823   29.8708 C.ar    1  UNL1        0.0577
     11 C         -26.7159   -2.3287   30.3060 C.ar    1  UNL1        0.0114
     12 C         -25.5921   -1.5643   29.9672 C.ar    1  UNL1        0.0009
     13 CL        -29.3178   -2.8004   30.2932 Cl      1  UNL1       -0.0822
     14 O         -23.7793    3.2299   26.7946 O.3     1  UNL1       -0.4707
     15 C         -25.0526    3.8885   26.9537 C.3     1  UNL1        0.2315
     16 C         -25.0616    4.5879   28.1838 C.2     1  UNL1        0.0164
     17 C         -26.1283    5.1818   28.4713 C.2     1  UNL1       -0.0225
     18 C         -26.2772    5.8551   29.7700 C.ar    1  UNL1       -0.0042
     19 C         -26.9491    6.9074   30.0839 C.ar    1  UNL1       -0.0003
     20 C         -26.9481    7.5391   31.3619 C.ar    1  UNL1       -0.0000
     21 C         -26.1990    6.9018   32.3838 C.ar    1  UNL1       -0.0000
     22 C         -25.4805    5.7358   32.1357 C.ar    1  UNL1       -0.0000
     23 C         -25.4326    5.2312   30.8310 C.ar    1  UNL1       -0.0003
     24 C         -26.3726    6.3439   27.4499 C.3     1  UNL1        0.0308
@<TRIPOS>BOND
     1     3     4    1
     2    10    13    1
     3     6    14    1
     4    14    15    1
     5    15    16    1
     6    16    17    2
     7    17    18    1
     8    17    24    1
     9    18    19   ar
    10    19    20   ar
    11    20    21   ar
    12    21    22   ar
    13    22    23   ar
    14    23    18   ar
    15     1     2   ar
    16     2     3   ar
    17     3    12   ar
    18    12    11   ar
    19    11    10   ar
    20    10     1   ar
    21     4     5   ar
    22     5     6   ar
    23     6     7   ar
    24     7     8   ar
    25     8     9   ar
    26     9     4   ar
