@<TRIPOS>MOLECULE
No_3178-gen_results/8p0m/2024-11-26-14-13-15/
 14 15 0 0 0
SMALL
GASTEIGER

@<TRIPOS>ATOM
      1 C         -28.0162   -0.8135   28.8779 C.ar    1  UNL1        0.0032
      2 C         -28.4690   -0.7850   29.8287 C.ar    1  UNL1        0.0001
      3 C         -27.1356    0.2359   28.5352 C.ar    1  UNL1        0.0390
      4 C         -26.3351    0.2900   27.2835 C.2     1  UNL1        0.1955
      5 C         -28.3692    0.1957   30.9236 C.ar    1  UNL1        0.0000
      6 C         -27.5158    1.2655   30.6540 C.ar    1  UNL1        0.0001
      7 C         -26.8411    1.2942   29.4761 C.ar    1  UNL1        0.0032
      8 C         -25.3612    0.7750   26.9674 C.ar    1  UNL1        0.0390
      9 C         -24.7235    0.7751   25.7101 C.ar    1  UNL1        0.0032
     10 C         -23.5270    1.4470   25.4014 C.ar    1  UNL1        0.0001
     11 C         -22.9359    2.0696   26.4995 C.ar    1  UNL1        0.0000
     12 C         -24.4549    1.5015   27.8781 C.ar    1  UNL1        0.0032
     13 C         -23.3023    2.0898   27.6726 C.ar    1  UNL1        0.0001
     14 O         -26.8898   -0.5832   26.4264 O.2     1  UNL1       -0.2866
@<TRIPOS>BOND
     1     3     4    1
     2     4     8    1
     3     4    14    2
     4     1     2   ar
     5     2     5   ar
     6     5     6   ar
     7     6     7   ar
     8     7     3   ar
     9     3     1   ar
    10     8     9   ar
    11     9    10   ar
    12    10    11   ar
    13    11    13   ar
    14    13    12   ar
    15    12     8   ar
