@<TRIPOS>MOLECULE
No_3181-gen_results/8p0m/2024-11-26-14-13-15/
 14 15 0 0 0
SMALL
GASTEIGER

@<TRIPOS>ATOM
      1 C         -28.0162   -0.8135   28.8779 C.ar    1  UNL1       -0.0000
      2 C         -27.0636   -0.1190   28.6079 C.ar    1  UNL1       -0.0000
      3 C         -25.7923   -0.4302   29.0761 C.ar    1  UNL1       -0.0001
      4 C         -25.5756   -1.5654   29.9363 C.ar    1  UNL1       -0.0000
      5 C         -26.7354   -2.3004   30.2173 C.ar    1  UNL1       -0.0000
      6 C         -27.9184   -1.9537   29.7629 C.ar    1  UNL1       -0.0000
      7 C         -27.1057    1.1023   27.7593 C.ar    1  UNL1       -0.0001
      8 C         -26.1219    1.4820   27.0232 C.ar    1  UNL1        0.0039
      9 C         -24.7142    1.1299   27.4889 C.ar    1  UNL1        0.0714
     10 C         -24.5718    0.0966   28.4066 C.ar    1  UNL1        0.0039
     11 C         -23.5495    1.7790   26.9027 C.3     1  UNL1        0.4186
     12 F         -22.4936    1.3986   27.4496 F       1  UNL1       -0.1659
     13 F         -23.4437    1.5760   25.5751 F       1  UNL1       -0.1659
     14 F         -23.7527    3.1553   27.1395 F       1  UNL1       -0.1659
@<TRIPOS>BOND
     1     9    11    1
     2    11    12    1
     3    11    13    1
     4    11    14    1
     5     1     2   ar
     6     3     4   ar
     7     4     5   ar
     8     5     6   ar
     9     6     1   ar
    10     2     3   ar
    11     3    10   ar
    12    10     9   ar
    13     9     8   ar
    14     8     7   ar
    15     7     2   ar
