@<TRIPOS>MOLECULE
No_3182-gen_results/8p0m/2024-11-26-14-13-15/
 15 16 0 0 0
SMALL
GASTEIGER

@<TRIPOS>ATOM
      1 C         -28.0162   -0.8135   28.8779 C.ar    1  UNL1       -0.0009
      2 C         -27.0636   -0.1189   28.6079 C.ar    1  UNL1        0.0168
      3 C         -26.9716    0.7139   27.5060 C.ar    1  UNL1        0.1419
      4 C         -28.1053    0.7744   26.6421 C.ar    1  UNL1        0.0388
      5 C         -29.2041    0.1179   27.0477 C.ar    1  UNL1        0.0240
      6 C         -29.2127   -0.6088   28.1281 C.ar    1  UNL1        0.0015
      7 O         -25.8358    1.4265   27.1637 O.3     1  UNL1       -0.4474
      8 C         -24.7312    1.2226   27.9231 C.2     1  UNL1        0.2206
      9 C         -24.5387    0.3895   28.8076 C.2     1  UNL1        0.0230
     10 C         -25.6737   -0.2983   29.3350 C.3     1  UNL1        0.0588
     11 C         -23.7133    2.2820   27.5070 C.2     1  UNL1        0.4213
     12 O         -23.9660    3.2613   26.8059 O.co2   1  UNL1       -0.2371
     13 O         -22.4250    2.1102   27.8262 O.co2   1  UNL1       -0.2371
     14 C         -30.5241    0.2219   26.3693 C.2     1  UNL1        0.1222
     15 N         -31.4293   -0.5868   26.4367 N.2     1  UNL1       -0.1464
@<TRIPOS>BOND
     1     3     7    1
     2     7     8    1
     3     8     9    2
     4     2    10    1
     5     9    10    1
     6     8    11    1
     7    11    12   ar
     8    11    13   ar
     9     5    14    1
    10    14    15    2
    11     1     2   ar
    12     2     3   ar
    13     3     4   ar
    14     4     5   ar
    15     5     6   ar
    16     6     1   ar
