@<TRIPOS>MOLECULE
No_3184-gen_results/8p0m/2024-11-26-14-13-15/
 28 31 0 0 0
SMALL
GASTEIGER

@<TRIPOS>ATOM
      1 C         -28.0162   -0.8135   28.8779 C.ar    1  UNL1        0.0376
      2 C         -27.0636   -0.1189   28.6079 C.ar    1  UNL1        0.0030
      3 C         -25.7647   -0.3897   29.0360 C.ar    1  UNL1        0.0004
      4 C         -25.5296   -1.5302   29.9014 C.ar    1  UNL1        0.0030
      5 C         -26.6888   -2.2893   30.1810 C.ar    1  UNL1        0.0376
      6 C         -27.8727   -1.9508   29.7373 C.ar    1  UNL1        0.1488
      7 C         -24.5491    0.4100   28.7341 C.ar    1  UNL1        0.0066
      8 C         -23.3309    0.0437   29.0569 C.ar    1  UNL1        0.0798
      9 C         -23.2108   -1.2231   29.7977 C.ar    1  UNL1        0.0066
     10 C         -24.2359   -1.9570   30.2201 C.ar    1  UNL1        0.0003
     11 C         -22.1219    0.7661   28.7282 C.2     1  UNL1        0.3878
     12 O         -22.1021    1.6315   27.8117 O.co2   1  UNL1       -0.2406
     13 O         -20.9738    0.4928   29.2921 O.co2   1  UNL1       -0.2406
     14 O         -28.9997   -2.6726   30.1100 O.3     1  UNL1       -0.4210
     15 C         -28.8835   -3.9796   30.5193 C.2     1  UNL1        0.3457
     16 C         -29.2429   -4.6905   31.2504 C.ar    1  UNL1        0.0760
     17 C         -30.4851   -4.8618   31.4389 C.ar    1  UNL1        0.0065
     18 C         -31.0921   -5.8542   32.3780 C.ar    1  UNL1        0.0002
     19 C         -30.1529   -6.6232   33.0692 C.ar    1  UNL1        0.0000
     20 C         -28.8404   -6.5506   32.8214 C.ar    1  UNL1        0.0002
     21 C         -28.3402   -5.6837   31.9480 C.ar    1  UNL1        0.0065
     22 O         -27.8295   -4.5306   29.6312 O.2     1  UNL1       -0.2445
     23 C         -27.1779    1.0994   27.6905 C.ar    1  UNL1        0.0001
     24 C         -27.6601    0.9122   26.4772 C.ar    1  UNL1        0.0000
     25 C         -27.5910    1.9011   25.5446 C.ar    1  UNL1        0.0000
     26 C         -27.0736    3.2146   25.8289 C.ar    1  UNL1        0.0000
     27 C         -26.5335    3.3931   27.1176 C.ar    1  UNL1        0.0000
     28 C         -26.5065    2.3611   28.0255 C.ar    1  UNL1        0.0000
@<TRIPOS>BOND
     1     8    11    1
     2    11    12   ar
     3    11    13   ar
     4     6    14    1
     5    14    15    1
     6    15    16    1
     7    15    22    2
     8     2    23    1
     9     1     2   ar
    10     2     3   ar
    11     4     5   ar
    12     5     6   ar
    13     6     1   ar
    14    23    24   ar
    15    24    25   ar
    16    25    26   ar
    17    26    27   ar
    18    27    28   ar
    19    28    23   ar
    20     3     4   ar
    21     4    10   ar
    22    10     9   ar
    23     9     8   ar
    24     8     7   ar
    25     7     3   ar
    26    16    17   ar
    27    17    18   ar
    28    18    19   ar
    29    19    20   ar
    30    20    21   ar
    31    21    16   ar
