@<TRIPOS>MOLECULE
No_3185-gen_results/8p0m/2024-11-26-14-13-15/
 14 15 0 0 0
SMALL
GASTEIGER

@<TRIPOS>ATOM
      1 C         -28.0162   -0.8135   28.8779 C.ar    1  UNL1        0.0417
      2 C         -27.0636   -0.1190   28.6079 C.ar    1  UNL1       -0.0007
      3 C         -26.8756    1.1325   28.9134 C.ar    1  UNL1       -0.0176
      4 C         -27.9014    1.8066   29.6436 C.ar    1  UNL1       -0.0007
      5 C         -29.0458   -0.2316   29.7181 C.ar    1  UNL1        0.1957
      6 C         -28.9402    1.0517   30.0597 C.ar    1  UNL1        0.0417
      7 O         -30.0593   -1.0632   30.0946 O.3     1  UNL1       -0.2866
      8 C         -25.6684    1.9362   28.4484 C.3     1  UNL1        0.0526
      9 C         -24.8300    1.8451   27.8766 C.ar    1  UNL1       -0.0178
     10 C         -24.3117    0.5665   27.4390 C.ar    1  UNL1       -0.0039
     11 C         -23.3864    0.0251   27.8785 C.ar    1  UNL1       -0.0003
     12 C         -22.2092    0.8997   28.3562 C.ar    1  UNL1       -0.0000
     13 C         -22.3495    2.2624   28.0781 C.ar    1  UNL1       -0.0003
     14 C         -23.6111    2.6834   27.9494 C.ar    1  UNL1       -0.0039
@<TRIPOS>BOND
     1     5     7    1
     2     3     8    1
     3     8     9    1
     4     1     2   ar
     5     2     3   ar
     6     3     4   ar
     7     4     6   ar
     8     6     5   ar
     9     5     1   ar
    10     9    10   ar
    11    10    11   ar
    12    11    12   ar
    13    12    13   ar
    14    13    14   ar
    15    14     9   ar
