@<TRIPOS>MOLECULE
No_3187-gen_results/8p0m/2024-11-26-14-13-15/
 14 14 0 0 0
SMALL
GASTEIGER

@<TRIPOS>ATOM
      1 F         -28.0727   -1.2542   28.5316 F       1  UNL1       -0.1668
      2 C         -28.2662   -0.4214   29.1931 C.3     1  UNL1        0.4314
      3 F         -29.4400   -0.1817   29.3649 F       1  UNL1       -0.1668
      4 F         -27.6959   -0.7085   30.4324 F       1  UNL1       -0.1668
      5 C         -27.5418    0.7768   28.6351 C.3     1  UNL1        0.2794
      6 C         -26.9446    0.8609   27.6283 C.ar    1  UNL1        0.0467
      7 C         -26.2129    2.0007   27.0846 C.ar    1  UNL1        0.1494
      8 C         -25.3049    1.9540   25.9768 C.ar    1  UNL1        0.0848
      9 C         -25.1674    0.6792   25.3737 C.ar    1  UNL1        0.0136
     10 C         -25.8299   -0.4437   25.7845 C.ar    1  UNL1        0.0008
     11 C         -26.5722   -0.3581   26.8504 C.ar    1  UNL1        0.0009
     12 F         -27.7178    1.9175   29.3477 F       1  UNL1       -0.2231
     13 CL        -24.4622    3.3073   25.5123 Cl      1  UNL1       -0.0799
     14 F         -26.3327    3.1294   27.6744 F       1  UNL1       -0.2035
@<TRIPOS>BOND
     1     1     2    1
     2     2     3    1
     3     2     4    1
     4     2     5    1
     5     5    12    1
     6     8    13    1
     7     7    14    1
     8     5     6    1
     9     6     7   ar
    10     7     8   ar
    11     8     9   ar
    12     9    10   ar
    13    10    11   ar
    14    11     6   ar
