@<TRIPOS>MOLECULE
No_3188-gen_results/8p0m/2024-11-26-14-13-15/
 24 26 0 0 0
SMALL
GASTEIGER

@<TRIPOS>ATOM
      1 O         -28.1229   -1.3353   28.4874 O.2     1  UNL1       -0.2749
      2 C         -27.0637   -0.8242   28.8687 C.2     1  UNL1        0.2260
      3 C         -26.4017   -0.0623   28.6224 C.3     1  UNL1        0.0895
      4 N         -26.3805   -1.7991   29.9619 N.am    1  UNL1       -0.2778
      5 C         -25.0334    0.3743   29.0484 C.3     1  UNL1        0.0117
      6 C         -24.5462   -0.4703   30.1069 C.3     1  UNL1        0.0220
      7 C         -25.2361   -1.5529   30.4712 C.3     1  UNL1        0.0935
      8 C         -26.8306    0.9807   27.5238 C.3     1  UNL1        0.1093
      9 C         -27.0620    2.1351   27.7177 C.ar    1  UNL1       -0.0133
     10 C         -26.8246    2.7192   29.1112 C.ar    1  UNL1       -0.0038
     11 C         -27.0186    4.1335   29.2866 C.ar    1  UNL1       -0.0003
     12 C         -27.3868    4.8838   28.1511 C.ar    1  UNL1       -0.0000
     13 C         -27.5781    4.3807   26.9139 C.ar    1  UNL1       -0.0003
     14 C         -27.3860    3.0206   26.6892 C.ar    1  UNL1       -0.0038
     15 C         -26.9675    0.3585   26.2102 C.2     1  UNL1        0.2497
     16 N         -25.9142    0.5310   25.3862 N.am    1  UNL1       -0.1789
     17 O         -28.0534   -0.0064   25.8183 O.2     1  UNL1       -0.2726
     18 C         -27.0861   -3.0333   30.4176 C.3     1  UNL1        0.1148
     19 C         -24.5831    0.9263   25.7763 C.ar    1  UNL1        0.0734
     20 C         -24.0357    2.0879   25.1162 C.ar    1  UNL1        0.0166
     21 C         -22.7286    2.5340   25.6141 C.ar    1  UNL1        0.0013
     22 C         -22.2037    2.0099   26.8665 C.ar    1  UNL1        0.0001
     23 C         -22.8950    0.8680   27.4304 C.ar    1  UNL1        0.0013
     24 C         -24.0780    0.4529   26.9426 C.ar    1  UNL1        0.0166
@<TRIPOS>BOND
     1     1     2    2
     2     2     3    1
     3     2     4   am
     4     3     5    1
     5     4     7    1
     6     6     7    1
     7     3     8    1
     8     8    15    1
     9    15    16   am
    10    15    17    2
    11     4    18    1
    12    16    19    1
    13     8     9    1
    14     5     6    1
    15    19    20   ar
    16    20    21   ar
    17    21    22   ar
    18    22    23   ar
    19    23    24   ar
    20    24    19   ar
    21     9    10   ar
    22    10    11   ar
    23    11    12   ar
    24    12    13   ar
    25    13    14   ar
    26    14     9   ar
