@<TRIPOS>MOLECULE
No_3189-gen_results/8p0m/2024-11-26-14-13-15/
 25 26 0 0 0
SMALL
GASTEIGER

@<TRIPOS>ATOM
      1 C         -28.0162   -0.8135   28.8779 C.3     1  UNL1        0.1405
      2 C         -27.0636   -0.1190   28.6079 C.ar    1  UNL1       -0.0065
      3 C         -26.9716    0.7139   27.5060 C.ar    1  UNL1        0.0520
      4 C         -25.8205    1.4909   27.1160 C.ar    1  UNL1        0.0081
      5 C         -24.6562    1.4242   27.9180 C.ar    1  UNL1        0.0715
      6 C         -24.6847    0.5901   29.0659 C.ar    1  UNL1        0.0035
      7 C         -25.8099   -0.1266   29.3338 C.ar    1  UNL1       -0.0036
      8 C         -28.6943   -0.4734   30.1587 C.2     1  UNL1        0.3692
      9 O         -28.7309    0.5070   30.6385 O.co2   1  UNL1       -0.2453
     10 O         -29.5628   -1.5102   30.6280 O.co2   1  UNL1       -0.2453
     11 C         -23.4657    2.1950   27.5999 C.3     1  UNL1        0.4186
     12 F         -22.6409    1.6651   27.0840 F       1  UNL1       -0.1659
     13 F         -23.0008    2.7995   28.7618 F       1  UNL1       -0.1659
     14 F         -23.9162    3.3619   26.9312 F       1  UNL1       -0.1659
     15 C         -28.1240    0.8247   26.5908 C.2     1  UNL1        0.2713
     16 O         -28.1109    0.6237   25.4226 O.2     1  UNL1       -0.2679
     17 N         -29.3609    1.0811   27.1818 N.am    1  UNL1       -0.1371
     18 C         -30.5334    1.2656   26.4189 C.2     1  UNL1        0.2716
     19 C         -31.3275    2.1311   26.9370 C.ar    1  UNL1        0.0555
     20 C         -32.3184    2.6633   26.2515 C.ar    1  UNL1        0.0046
     21 C         -33.2565    3.6596   26.7394 C.ar    1  UNL1        0.0001
     22 C         -33.1699    4.0193   28.0896 C.ar    1  UNL1        0.0000
     23 C         -32.2154    3.4288   28.8944 C.ar    1  UNL1        0.0001
     24 C         -31.3363    2.5321   28.3931 C.ar    1  UNL1        0.0046
     25 O         -30.7436    0.5559   25.5046 O.2     1  UNL1       -0.2679
@<TRIPOS>BOND
     1     1     8    1
     2     8     9   ar
     3     8    10   ar
     4     5    11    1
     5    11    12    1
     6    11    13    1
     7    11    14    1
     8     3    15    1
     9    15    16    2
    10    15    17   am
    11    17    18   am
    12    18    19    1
    13    18    25    2
    14     1     2    1
    15     2     3   ar
    16     3     4   ar
    17     4     5   ar
    18     5     6   ar
    19     6     7   ar
    20     7     2   ar
    21    19    20   ar
    22    20    21   ar
    23    21    22   ar
    24    22    23   ar
    25    23    24   ar
    26    24    19   ar
