@<TRIPOS>MOLECULE
No_319-gen_results/8p0m/2024-11-26-14-13-15/
 29 31 0 0 0
SMALL
GASTEIGER

@<TRIPOS>ATOM
      1 C         -28.0162   -0.8135   28.8779 C.ar    1  UNL1        0.0156
      2 C         -27.0636   -0.1190   28.6079 C.ar    1  UNL1        0.0027
      3 C         -26.9716    0.7139   27.5060 C.ar    1  UNL1        0.0714
      4 C         -28.1053    0.7744   26.6421 C.ar    1  UNL1        0.0101
      5 C         -29.2008    0.1044   27.0527 C.ar    1  UNL1        0.0754
      6 C         -29.2096   -0.6029   28.1853 C.ar    1  UNL1        0.0883
      7 C         -30.3702    0.2264   26.1604 C.ar    1  UNL1        0.2844
      8 N         -31.3165   -0.4572   26.3805 N.ar    1  UNL1       -0.1517
      9 O         -30.4776    1.2142   25.4005 O.2     1  UNL1       -0.2650
     10 C         -31.3978   -1.5848   27.2425 C.ar    1  UNL1        0.3714
     11 N         -30.3286   -1.4804   28.3475 N.ar    1  UNL1       -0.1909
     12 O         -32.2134   -2.4544   27.4331 O.2     1  UNL1       -0.2425
     13 C         -25.7010    1.4637   27.1714 C.3     1  UNL1        0.4186
     14 F         -24.7245    0.7213   27.2325 F       1  UNL1       -0.1659
     15 F         -25.5400    2.4551   28.0848 F       1  UNL1       -0.1659
     16 F         -25.7730    2.0817   25.9669 F       1  UNL1       -0.1659
     17 C         -28.0468   -1.6271   30.1508 C.3     1  UNL1        0.1233
     18 N         -27.1901   -2.5525   30.2596 N.am    1  UNL1       -0.2569
     19 C         -25.8575   -2.2420   30.2602 C.3     1  UNL1        0.1168
     20 C         -27.6094   -3.9001   30.2795 C.2     1  UNL1        0.3238
     21 N         -28.8251   -4.1938   30.5899 N.am    1  UNL1       -0.1836
     22 O         -26.6903   -4.8107   30.2810 O.2     1  UNL1       -0.2508
     23 C         -29.4274   -5.5373   30.6122 C.3     1  UNL1        0.1431
     24 C         -30.7733   -5.5256   30.0203 C.ar    1  UNL1       -0.0005
     25 C         -31.8518   -5.4682   30.8671 C.ar    1  UNL1       -0.0026
     26 C         -33.1134   -5.3212   30.2766 C.ar    1  UNL1       -0.0003
     27 C         -33.2396   -5.5042   28.8790 C.ar    1  UNL1       -0.0000
     28 C         -32.1427   -5.6771   28.0503 C.ar    1  UNL1       -0.0003
     29 C         -30.8493   -5.6465   28.6482 C.ar    1  UNL1       -0.0026
@<TRIPOS>BOND
     1     5     7   ar
     2     7     8   ar
     3     7     9    2
     4     8    10   ar
     5     6    11   ar
     6    10    11   ar
     7    10    12    2
     8     3    13    1
     9    13    14    1
    10    13    15    1
    11    13    16    1
    12     1    17    1
    13    17    18    1
    14    18    19    1
    15    18    20   am
    16    20    21   am
    17    20    22    2
    18    21    23    1
    19    23    24    1
    20     1     2   ar
    21     2     3   ar
    22     3     4   ar
    23     4     5   ar
    24     5     6   ar
    25     6     1   ar
    26    24    25   ar
    27    25    26   ar
    28    26    27   ar
    29    27    28   ar
    30    28    29   ar
    31    29    24   ar
