@<TRIPOS>MOLECULE
No_3190-gen_results/8p0m/2024-11-26-14-13-15/
 21 23 0 0 0
SMALL
GASTEIGER

@<TRIPOS>ATOM
      1 C         -28.0162   -0.8135   28.8779 C.ar    1  UNL1        0.0000
      2 C         -27.0636   -0.1189   28.6079 C.ar    1  UNL1        0.0000
      3 C         -25.7923   -0.4302   29.0761 C.ar    1  UNL1        0.0014
      4 C         -24.5456    0.3494   28.8225 C.ar    1  UNL1        0.0177
      5 C         -23.2409    0.0217   29.3323 C.ar    1  UNL1        0.0015
      6 C         -27.8820   -1.8995   29.8633 C.ar    1  UNL1        0.0000
      7 C         -26.6526   -2.3142   30.3138 C.ar    1  UNL1        0.0000
      8 C         -25.5153   -1.5607   29.9787 C.ar    1  UNL1        0.0000
      9 C         -23.2160   -1.2277   30.0505 C.ar    1  UNL1        0.0000
     10 C         -24.2438   -1.9369   30.3995 C.ar    1  UNL1        0.0000
     11 C         -24.5818    1.5617   27.9589 C.ar    1  UNL1        0.0827
     12 N         -24.7842    2.6368   28.4794 N.ar    1  UNL1       -0.2304
     13 C         -24.3933    1.4236   26.5531 C.ar    1  UNL1        0.0192
     14 C         -24.9619    3.7962   27.7539 C.ar    1  UNL1        0.1355
     15 C         -24.4556    2.5463   25.7597 C.ar    1  UNL1        0.0044
     16 N         -25.2013    5.0444   28.3171 N.pl3   1  UNL1       -0.2685
     17 C         -24.7210    3.7760   26.3509 C.ar    1  UNL1        0.0346
     18 C         -25.6664    5.1005   29.6212 C.2     1  UNL1        0.0862
     19 C         -25.7996    6.4101   30.1643 C.2     1  UNL1        0.1218
     20 C         -25.0430    6.2370   27.6519 C.3     1  UNL1        0.1188
     21 N         -25.9614    6.5921   31.4433 N.pl3   1  UNL1       -0.1252
@<TRIPOS>BOND
     1     4    11    1
     2    14    16    1
     3    16    18    1
     4    18    19    2
     5    16    20    1
     6    19    21    1
     7     1     2   ar
     8     2     3   ar
     9     8     7   ar
    10     7     6   ar
    11     6     1   ar
    12     3     4   ar
    13     4     5   ar
    14     5     9   ar
    15     9    10   ar
    16    10     8   ar
    17     8     3   ar
    18    11    12   ar
    19    12    14   ar
    20    14    17   ar
    21    17    15   ar
    22    15    13   ar
    23    13    11   ar
