@<TRIPOS>MOLECULE
No_3191-gen_results/8p0m/2024-11-26-14-13-15/
 18 19 0 0 0
SMALL
GASTEIGER

@<TRIPOS>ATOM
      1 C         -28.0162   -0.8135   28.8779 C.ar    1  UNL1       -0.0039
      2 C         -28.4690   -0.7850   29.8287 C.ar    1  UNL1       -0.0003
      3 C         -26.5455   -0.8762   28.8500 C.ar    1  UNL1       -0.0178
      4 C         -25.6825   -0.7773   27.6829 C.3     1  UNL1        0.0523
      5 C         -27.9181   -1.0034   31.1877 C.ar    1  UNL1       -0.0000
      6 C         -26.5308   -1.0794   31.2463 C.ar    1  UNL1       -0.0003
      7 C         -25.7798   -1.0462   30.0905 C.ar    1  UNL1       -0.0039
      8 C         -25.8976    0.2387   26.7449 C.2     1  UNL1       -0.0214
      9 C         -25.6318    1.4984   27.0379 C.2     1  UNL1       -0.0040
     10 C         -24.8915    1.8299   28.2576 C.ar    1  UNL1        0.0061
     11 C         -23.7185    1.2879   28.5049 C.ar    1  UNL1        0.0002
     12 C         -23.0830    1.5335   29.7328 C.ar    1  UNL1        0.0000
     13 C         -23.7907    2.1777   30.7259 C.ar    1  UNL1        0.0002
     14 C         -25.0300    2.7515   30.5789 C.ar    1  UNL1        0.0066
     15 C         -25.6307    2.5244   29.2777 C.ar    1  UNL1        0.0798
     16 C         -26.9294    3.1157   29.0744 C.2     1  UNL1        0.3878
     17 O         -27.3094    3.6073   28.1838 O.co2   1  UNL1       -0.2406
     18 O         -27.7110    3.1373   30.2024 O.co2   1  UNL1       -0.2406
@<TRIPOS>BOND
     1     3     4    1
     2     4     8    1
     3     8     9    2
     4     9    10    1
     5    15    16    1
     6    16    17   ar
     7    16    18   ar
     8     1     2   ar
     9     2     5   ar
    10     5     6   ar
    11     6     7   ar
    12     7     3   ar
    13     3     1   ar
    14    10    11   ar
    15    11    12   ar
    16    12    13   ar
    17    13    14   ar
    18    14    15   ar
    19    15    10   ar
