@<TRIPOS>MOLECULE
No_3193-gen_results/8p0m/2024-11-26-14-13-15/
 15 17 0 0 0
SMALL
GASTEIGER

@<TRIPOS>ATOM
      1 C         -28.0162   -0.8135   28.8779 C.3     1  UNL1        0.0523
      2 C         -27.0636   -0.1189   28.6079 C.ar    1  UNL1       -0.0178
      3 C         -25.7923   -0.4302   29.0761 C.ar    1  UNL1       -0.0038
      4 C         -24.5456    0.3494   28.8225 C.ar    1  UNL1        0.0027
      5 C         -24.6586    1.4196   27.8878 C.ar    1  UNL1        0.0192
      6 C         -25.9471    1.6811   27.3792 C.ar    1  UNL1        0.0012
      7 C         -27.0439    0.9739   27.6871 C.ar    1  UNL1       -0.0036
      8 C         -29.2364   -0.0611   29.2668 C.2     1  UNL1       -0.0214
      9 C         -29.8798    0.4538   28.2073 C.2     1  UNL1       -0.0042
     10 C         -29.4037    1.4347   27.2614 C.2     1  UNL1       -0.0003
     11 C         -28.2336    1.6617   27.1376 C.2     1  UNL1       -0.0003
     12 C         -23.4287    2.1019   27.5570 C.ar    1  UNL1        0.0988
     13 N         -22.2449    1.7054   28.0765 N.ar    1  UNL1       -0.2423
     14 C         -22.1353    0.6471   28.9269 C.ar    1  UNL1        0.0989
     15 C         -23.2568   -0.0866   29.3257 C.ar    1  UNL1        0.0207
@<TRIPOS>BOND
     1     1     2    1
     2     1     8    1
     3     8     9    2
     4     9    10    1
     5     7    11    1
     6    10    11    2
     7     2     3   ar
     8     3     4   ar
     9     5     6   ar
    10     6     7   ar
    11     7     2   ar
    12     4     5   ar
    13     5    12   ar
    14    12    13   ar
    15    13    14   ar
    16    14    15   ar
    17    15     4   ar
