@<TRIPOS>MOLECULE
No_3194-gen_results/8p0m/2024-11-26-14-13-15/
 16 17 0 0 0
SMALL
GASTEIGER

@<TRIPOS>ATOM
      1 C         -28.0162   -0.8135   28.8779 C.ar    1  UNL1        0.0375
      2 C         -27.0636   -0.1189   28.6079 C.ar    1  UNL1        0.0031
      3 C         -26.8756    1.1325   28.9134 C.ar    1  UNL1        0.0002
      4 C         -27.9014    1.8066   29.6436 C.ar    1  UNL1        0.0031
      5 C         -29.0458   -0.2316   29.7181 C.ar    1  UNL1        0.1454
      6 C         -28.9402    1.0517   30.0597 C.ar    1  UNL1        0.0375
      7 O         -30.0593   -1.0632   30.0946 O.3     1  UNL1       -0.4508
      8 C         -25.6684    1.9362   28.4484 C.ar    1  UNL1        0.0000
      9 C         -24.9348    1.7160   27.6796 C.ar    1  UNL1        0.0000
     10 C         -23.7118    2.4802   27.3226 C.ar    1  UNL1        0.0000
     11 C         -25.4691    3.2433   29.2044 C.ar    1  UNL1        0.0000
     12 C         -24.5027    4.1754   28.7197 C.ar    1  UNL1        0.0000
     13 C         -23.5784    3.7105   27.8043 C.ar    1  UNL1        0.0000
     14 C         -29.8595   -2.1405   30.8522 C.2     1  UNL1        0.1750
     15 C         -30.8722   -2.5512   31.6655 C.2     1  UNL1        0.0148
     16 C         -30.6889   -3.7381   32.4282 C.3     1  UNL1        0.0341
@<TRIPOS>BOND
     1     5     7    1
     2     3     8    1
     3     7    14    1
     4    14    15    2
     5    15    16    1
     6     8     9   ar
     7     9    10   ar
     8    10    13   ar
     9    13    12   ar
    10    12    11   ar
    11    11     8   ar
    12     1     2   ar
    13     2     3   ar
    14     3     4   ar
    15     4     6   ar
    16     6     5   ar
    17     5     1   ar
