@<TRIPOS>MOLECULE
No_3195-gen_results/8p0m/2024-11-26-14-13-15/
 14 15 0 0 0
SMALL
GASTEIGER

@<TRIPOS>ATOM
      1 O         -28.1229   -1.3353   28.4874 O.2     1  UNL1       -0.2729
      2 C         -27.4806   -0.4044   28.7094 C.2     1  UNL1        0.2473
      3 C         -27.1904    0.2460   29.5268 C.3     1  UNL1        0.1006
      4 N         -26.6871   -0.0001   27.4423 N.am    1  UNL1       -0.1725
      5 C         -26.3501    1.4331   29.7418 C.3     1  UNL1        0.0182
      6 C         -25.8648    1.0936   27.4148 C.3     1  UNL1        0.2555
      7 C         -25.6589    1.8314   28.5720 C.3     1  UNL1        0.0591
      8 C         -27.8531   -0.1055   30.9654 C.ar    1  UNL1       -0.0138
      9 C         -27.1822   -0.4077   31.9209 C.ar    1  UNL1       -0.0038
     10 C         -29.2672   -0.2034   30.9007 C.ar    1  UNL1       -0.0038
     11 C         -29.9319   -0.6980   32.0424 C.ar    1  UNL1       -0.0003
     12 C         -27.8150   -0.7981   33.2170 C.ar    1  UNL1       -0.0003
     13 C         -29.1980   -0.9097   33.2170 C.ar    1  UNL1       -0.0000
     14 F         -25.2293    1.4055   26.3351 F       1  UNL1       -0.2132
@<TRIPOS>BOND
     1     1     2    2
     2     2     3    1
     3     2     4   am
     4     4     6    1
     5     5     7    1
     6     3     8    1
     7     6    14    1
     8     3     5    1
     9     7     6    1
    10     8     9   ar
    11     9    12   ar
    12    12    13   ar
    13    13    11   ar
    14    11    10   ar
    15    10     8   ar
