@<TRIPOS>MOLECULE
No_3196-gen_results/8p0m/2024-11-26-14-13-15/
 24 26 0 0 0
SMALL
GASTEIGER

@<TRIPOS>ATOM
      1 C         -28.0162   -0.8135   28.8779 C.3     1  UNL1        0.1062
      2 C         -27.0636   -0.1189   28.6079 C.2     1  UNL1        0.2311
      3 N         -25.8176   -0.3427   29.0488 N.am    1  UNL1       -0.2568
      4 C         -24.6757    0.3814   28.7496 C.ar    1  UNL1        0.0539
      5 C         -23.4276    0.0095   29.2601 C.ar    1  UNL1        0.0149
      6 C         -22.2341    0.6752   28.9665 C.ar    1  UNL1        0.0013
      7 C         -22.2074    1.6474   27.9672 C.ar    1  UNL1        0.0001
      8 C         -23.4333    2.0438   27.4220 C.ar    1  UNL1        0.0013
      9 C         -24.6468    1.3669   27.7395 C.ar    1  UNL1        0.0149
     10 C         -28.4870   -0.6109   30.2271 C.3     1  UNL1        0.0935
     11 N         -29.5908   -1.0948   30.6466 N.3     1  UNL1       -0.2166
     12 C         -25.5901   -1.5746   29.8032 C.3     1  UNL1        0.1200
     13 C         -29.9517   -1.3867   31.7936 C.3     1  UNL1        0.0819
     14 C         -29.1888   -0.8632   32.8757 C.3     1  UNL1        0.0436
     15 C         -27.8970   -0.3602   32.5396 C.ar    1  UNL1       -0.0235
     16 C         -27.5199   -0.3020   31.2655 C.ar    1  UNL1       -0.0111
     17 C         -30.6251   -1.5056   29.5734 C.3     1  UNL1        0.3749
     18 F         -31.8604   -1.0493   30.1459 F       1  UNL1       -0.1814
     19 O         -30.6558   -2.8819   29.4203 O.3     1  UNL1       -0.1651
     20 O         -27.1218    0.8822   27.7423 O.2     1  UNL1       -0.2745
     21 C         -26.9840    0.1417   33.6096 C.ar    1  UNL1       -0.0045
     22 C         -25.7482    0.3896   33.2777 C.ar    1  UNL1       -0.0003
     23 C         -25.4333    0.6650   31.8737 C.ar    1  UNL1       -0.0003
     24 C         -26.2997    0.3188   30.9929 C.ar    1  UNL1       -0.0033
@<TRIPOS>BOND
     1     1     2    1
     2     2     3   am
     3     3     4    1
     4     1    10    1
     5    10    11    1
     6     3    12    1
     7    11    13    1
     8    14    15    1
     9    10    16    1
    10    11    17    1
    11    17    18    1
    12    17    19    1
    13     2    20    2
    14    14    13    1
    15    15    16   ar
    16    16    24   ar
    17    24    23   ar
    18    23    22   ar
    19    22    21   ar
    20    21    15   ar
    21     4     5   ar
    22     5     6   ar
    23     6     7   ar
    24     7     8   ar
    25     8     9   ar
    26     9     4   ar
