@<TRIPOS>MOLECULE
No_3197-gen_results/8p0m/2024-11-26-14-13-15/
 18 19 0 0 0
SMALL
GASTEIGER

@<TRIPOS>ATOM
      1 C         -28.0162   -0.8135   28.8779 C.3     1  UNL1        0.1345
      2 C         -27.0636   -0.1189   28.6079 C.ar    1  UNL1        0.0765
      3 N         -25.8176   -0.3427   29.0487 N.ar    1  UNL1       -0.2482
      4 C         -24.6757    0.3814   28.7496 C.ar    1  UNL1        0.0809
      5 C         -23.3317    0.0231   29.2052 C.ar    1  UNL1        0.0176
      6 C         -27.1812    0.9682   27.6388 C.ar    1  UNL1        0.0162
      7 C         -26.0788    1.7596   27.1955 C.ar    1  UNL1        0.0028
      8 C         -24.7013    1.4434   27.7655 C.ar    1  UNL1        0.0191
      9 C         -23.1408   -0.9126   30.1707 C.ar    1  UNL1        0.0015
     10 C         -22.2123    0.6751   28.6117 C.ar    1  UNL1        0.0015
     11 C         -20.9244    0.1457   28.9622 C.ar    1  UNL1        0.0000
     12 C         -21.7962   -1.2788   30.5648 C.ar    1  UNL1        0.0000
     13 C         -20.7514   -0.7134   29.9293 C.ar    1  UNL1        0.0000
     14 N         -27.8599   -1.5487   30.0796 N.3     1  UNL1       -0.2069
     15 C         -28.7305   -1.6607   31.1068 C.3     1  UNL1        0.1148
     16 C         -29.9443   -1.8771   30.8869 C.2     1  UNL1       -0.0120
     17 C         -30.9111   -1.2236   30.5283 C.2     1  UNL1       -0.0289
     18 C         -32.2446   -1.5993   30.2484 C.3     1  UNL1        0.0304
@<TRIPOS>BOND
     1     1     2    1
     2     4     5    1
     3     1    14    1
     4    14    15    1
     5    15    16    1
     6    16    17    2
     7    17    18    1
     8     5     9   ar
     9     9    12   ar
    10    12    13   ar
    11    13    11   ar
    12    11    10   ar
    13    10     5   ar
    14     2     3   ar
    15     3     4   ar
    16     4     8   ar
    17     8     7   ar
    18     7     6   ar
    19     6     2   ar
