@<TRIPOS>MOLECULE
No_3198-gen_results/8p0m/2024-11-26-14-13-15/
 22 25 0 0 0
SMALL
GASTEIGER

@<TRIPOS>ATOM
      1 C         -28.0162   -0.8135   28.8779 C.ar    1  UNL1        0.0031
      2 C         -27.0636   -0.1189   28.6079 C.ar    1  UNL1        0.0389
      3 C         -27.0010    0.6913   27.4910 C.ar    1  UNL1        0.0030
      4 C         -25.8548    1.4825   27.0830 C.ar    1  UNL1        0.0002
      5 C         -25.8227    2.3296   25.9941 C.ar    1  UNL1        0.0000
      6 C         -28.9721   -0.4380   29.2471 C.ar    1  UNL1        0.0040
      7 C         -29.4694    0.7064   28.3521 C.ar    1  UNL1        0.0714
      8 C         -28.3446    1.4348   27.3963 C.ar    1  UNL1        0.0040
      9 C         -24.5760    2.9161   25.5836 C.ar    1  UNL1        0.0000
     10 C         -23.3635    2.4563   26.1597 C.ar    1  UNL1        0.0000
     11 C         -23.3882    1.5283   27.1992 C.ar    1  UNL1        0.0001
     12 C         -24.6012    1.0081   27.6598 C.ar    1  UNL1        0.0031
     13 C         -22.1327    1.1602   27.8549 C.ar    1  UNL1        0.0000
     14 C         -22.0500    0.0987   28.7507 C.ar    1  UNL1        0.0001
     15 C         -23.2966   -0.5467   29.0713 C.ar    1  UNL1        0.0032
     16 C         -24.4865   -0.0706   28.5913 C.ar    1  UNL1        0.0389
     17 C         -25.6106   -0.6279   28.9257 C.2     1  UNL1        0.1955
     18 C         -30.8138    1.2756   28.2100 C.3     1  UNL1        0.4186
     19 F         -31.1492    2.2700   27.8334 F       1  UNL1       -0.1659
     20 F         -31.2792    1.0660   29.5491 F       1  UNL1       -0.1659
     21 F         -31.4927    0.2605   27.4500 F       1  UNL1       -0.1659
     22 O         -25.5782   -1.7923   29.5717 O.2     1  UNL1       -0.2866
@<TRIPOS>BOND
     1     3     4    1
     2     2    17    1
     3    16    17    1
     4     7    18    1
     5    18    19    1
     6    18    20    1
     7    18    21    1
     8    17    22    2
     9    12    16   ar
    10    16    15   ar
    11    15    14   ar
    12    14    13   ar
    13    13    11   ar
    14     4     5   ar
    15     5     9   ar
    16     9    10   ar
    17    10    11   ar
    18    11    12   ar
    19    12     4   ar
    20     1     2   ar
    21     2     3   ar
    22     3     8   ar
    23     8     7   ar
    24     7     6   ar
    25     6     1   ar
