@<TRIPOS>MOLECULE
No_3199-gen_results/8p0m/2024-11-26-14-13-15/
 16 17 0 0 0
SMALL
GASTEIGER

@<TRIPOS>ATOM
      1 C         -28.0162   -0.8135   28.8779 C.ar    1  UNL1        0.0069
      2 C         -27.0636   -0.1189   28.6079 C.ar    1  UNL1        0.0346
      3 C         -26.9716    0.7139   27.5060 C.ar    1  UNL1        0.0064
      4 C         -28.1053    0.7744   26.6421 C.ar    1  UNL1        0.0071
      5 C         -29.2008    0.1044   27.0527 C.ar    1  UNL1        0.0798
      6 C         -29.2096   -0.6029   28.1853 C.ar    1  UNL1        0.0071
      7 C         -30.3749    0.2232   26.1670 C.2     1  UNL1        0.3878
      8 O         -30.9604    1.2364   26.1300 O.co2   1  UNL1       -0.2406
      9 O         -30.5112   -0.7633   25.2235 O.co2   1  UNL1       -0.2406
     10 BR        -25.3757   -0.2416   29.6482 Br      1  UNL1       -0.0490
     11 C         -25.6389    1.4072   27.1234 C.ar    1  UNL1        0.0005
     12 C         -25.6305    2.6502   27.1284 C.ar    1  UNL1        0.0000
     13 C         -24.3955    3.3933   26.7845 C.ar    1  UNL1        0.0000
     14 C         -23.2630    2.6918   26.4076 C.ar    1  UNL1        0.0000
     15 C         -23.3019    1.2942   26.5448 C.ar    1  UNL1        0.0000
     16 C         -24.4912    0.6523   26.8536 C.ar    1  UNL1        0.0000
@<TRIPOS>BOND
     1     5     7    1
     2     7     8   ar
     3     7     9   ar
     4     2    10    1
     5     3    11    1
     6    11    12   ar
     7    12    13   ar
     8    13    14   ar
     9    14    15   ar
    10    15    16   ar
    11    16    11   ar
    12     1     2   ar
    13     2     3   ar
    14     3     4   ar
    15     4     5   ar
    16     5     6   ar
    17     6     1   ar
