@<TRIPOS>MOLECULE
No_32-gen_results/8p0m/2024-11-26-14-13-15/
 15 16 0 0 0
SMALL
GASTEIGER

@<TRIPOS>ATOM
      1 C         -28.0162   -0.8135   28.8779 C.ar    1  UNL1        0.0066
      2 C         -28.4690   -0.7850   29.8287 C.ar    1  UNL1        0.0798
      3 C         -26.5455   -0.8762   28.8500 C.ar    1  UNL1        0.0002
      4 C         -25.8041   -1.0324   30.0571 C.ar    1  UNL1        0.0000
      5 C         -26.5373   -1.0386   31.2171 C.ar    1  UNL1        0.0002
      6 C         -27.8843   -0.9532   31.1862 C.ar    1  UNL1        0.0066
      7 C         -24.4101   -0.9712   29.8639 C.ar    1  UNL1        0.0000
      8 C         -23.6516   -1.6248   30.4524 C.ar    1  UNL1        0.0000
      9 C         -23.8639   -0.0759   28.8690 C.ar    1  UNL1        0.0000
     10 C         -22.4131    0.0597   28.8178 C.ar    1  UNL1        0.0000
     11 C         -22.1840   -1.5377   30.5168 C.ar    1  UNL1        0.0000
     12 C         -21.6443   -0.7061   29.5982 C.ar    1  UNL1        0.0000
     13 C         -30.0679   -0.7181   29.9440 C.2     1  UNL1        0.3878
     14 O         -30.5649   -0.2181   29.0992 O.co2   1  UNL1       -0.2406
     15 O         -30.6998   -1.1893   30.9860 O.co2   1  UNL1       -0.2406
@<TRIPOS>BOND
     1     4     7    1
     2     2    13    1
     3    13    14   ar
     4    13    15   ar
     5     1     2   ar
     6     2     6   ar
     7     6     5   ar
     8     5     4   ar
     9     4     3   ar
    10     3     1   ar
    11     7     8   ar
    12     8    11   ar
    13    11    12   ar
    14    12    10   ar
    15    10     9   ar
    16     9     7   ar
