@<TRIPOS>MOLECULE
No_3202-gen_results/8p0m/2024-11-26-14-13-15/
 32 36 0 0 0
SMALL
GASTEIGER

@<TRIPOS>ATOM
      1 C         -28.0162   -0.8135   28.8779 C.ar    1  UNL1        0.0064
      2 C         -28.4690   -0.7850   29.8287 C.ar    1  UNL1        0.0757
      3 C         -26.5042   -0.7777   28.8766 C.ar    1  UNL1        0.0002
      4 C         -25.6540   -0.6597   27.7191 C.ar    1  UNL1        0.0001
      5 C         -27.9180   -0.9374   31.1824 C.ar    1  UNL1        0.0064
      6 C         -26.5423   -0.9399   31.2606 C.ar    1  UNL1        0.0002
      7 C         -25.7832   -0.8935   30.1201 C.ar    1  UNL1        0.0002
      8 C         -24.3096   -0.3015   27.8531 C.ar    1  UNL1        0.0046
      9 C         -23.6669   -0.4595   29.0986 C.ar    1  UNL1        0.0550
     10 C         -24.3700   -0.6645   30.2027 C.ar    1  UNL1        0.0046
     11 C         -22.1946   -0.2290   29.1314 C.2     1  UNL1        0.2648
     12 N         -21.2882    0.5665   28.7715 N.am    1  UNL1       -0.1998
     13 O         -21.6347   -1.3705   29.7205 O.2     1  UNL1       -0.2684
     14 C         -30.0671   -0.8830   29.8766 C.2     1  UNL1        0.3415
     15 O         -30.5404   -0.3010   29.0150 O.3     1  UNL1       -0.4404
     16 O         -30.7271   -1.4670   30.8093 O.2     1  UNL1       -0.2449
     17 C         -21.6429    1.7364   27.9738 C.3     1  UNL1        0.1388
     18 C         -31.8012    0.2001   28.9426 C.3     1  UNL1        0.2354
     19 C         -32.2370    0.3996   27.8169 C.ar    1  UNL1        0.0213
     20 C         -31.5086    0.2885   26.6637 C.ar    1  UNL1       -0.0005
     21 C         -31.4897    0.8090   25.6227 C.ar    1  UNL1       -0.0002
     22 C         -30.6511    0.5029   24.3750 C.ar    1  UNL1       -0.0000
     23 C         -29.7374   -0.5719   24.5209 C.ar    1  UNL1       -0.0000
     24 C         -29.8470   -1.3444   25.6218 C.ar    1  UNL1       -0.0000
     25 C         -30.6060   -0.9831   26.6470 C.ar    1  UNL1       -0.0002
     26 C         -32.8450    1.8196   27.5313 C.ar    1  UNL1       -0.0005
     27 C         -33.6605    2.2798   28.5682 C.ar    1  UNL1       -0.0002
     28 C         -34.3309    3.5176   28.4528 C.ar    1  UNL1       -0.0000
     29 C         -34.1900    4.1692   27.2075 C.ar    1  UNL1       -0.0000
     30 C         -33.4097    3.7065   26.2003 C.ar    1  UNL1       -0.0000
     31 C         -32.7122    2.4875   26.3774 C.ar    1  UNL1       -0.0002
     32 C         -31.9642    2.0195   25.3406 C.ar    1  UNL1       -0.0000
@<TRIPOS>BOND
     1     9    11    1
     2    11    12   am
     3    11    13    2
     4     2    14    1
     5    14    15    1
     6    14    16    2
     7    12    17    1
     8    15    18    1
     9    18    19    1
    10     1     2   ar
    11     2     5   ar
    12     5     6   ar
    13     6     7   ar
    14     3     1   ar
    15    19    20   ar
    16    21    32   ar
    17    32    31   ar
    18    26    19   ar
    19    20    21   ar
    20    21    22   ar
    21    22    23   ar
    22    23    24   ar
    23    24    25   ar
    24    25    20   ar
    25     3     4   ar
    26     4     8   ar
    27     8     9   ar
    28     9    10   ar
    29    10     7   ar
    30     7     3   ar
    31    26    27   ar
    32    27    28   ar
    33    28    29   ar
    34    29    30   ar
    35    30    31   ar
    36    31    26   ar
