@<TRIPOS>MOLECULE
No_3203-gen_results/8p0m/2024-11-26-14-13-15/
 35 38 0 0 0
SMALL
GASTEIGER

@<TRIPOS>ATOM
      1 C         -28.0162   -0.8135   28.8779 C.3     1  UNL1        0.0579
      2 C         -27.0636   -0.1190   28.6079 C.ar    1  UNL1       -0.0137
      3 C         -25.7923   -0.4302   29.0761 C.ar    1  UNL1       -0.0031
      4 C         -24.5456    0.3494   28.8225 C.ar    1  UNL1        0.0150
      5 C         -24.6586    1.4196   27.8878 C.ar    1  UNL1        0.0916
      6 C         -25.9471    1.6811   27.3792 C.ar    1  UNL1        0.0138
      7 C         -27.0439    0.9739   27.6871 C.ar    1  UNL1        0.0724
      8 C         -28.6703   -0.4455   30.2080 C.3     1  UNL1        0.1814
      9 C         -29.7395   -1.2324   30.6778 C.2     1  UNL1        0.3827
     10 C         -23.4434    2.1502   27.6024 C.2     1  UNL1        0.4193
     11 N         -22.4958    1.8709   27.3617 N.2     1  UNL1        0.0235
     12 N         -23.8255    3.3865   26.9047 N.pl3   1  UNL1        0.2165
     13 O         -30.2072   -2.0157   30.1704 O.co2   1  UNL1       -0.2438
     14 O         -30.0138   -1.1619   32.0248 O.co2   1  UNL1       -0.2438
     15 C         -28.3457    1.3059   27.0788 C.2     1  UNL1        0.3455
     16 O         -29.1173    1.9395   27.6270 O.2     1  UNL1       -0.2445
     17 O         -28.6260    0.5180   25.9490 O.3     1  UNL1       -0.4177
     18 C         -21.8647    0.9077   28.2949 C.2     1  UNL1        0.4553
     19 C         -23.3056   -0.1319   29.2360 C.2     1  UNL1        0.0492
     20 C         -22.1099    0.1840   28.8010 C.1     1  UNL1       -0.0053
     21 N         -20.3273    1.0623   27.9957 N.pl3   1  UNL1        0.2259
     22 C         -29.9064    0.4809   25.4481 C.ar    1  UNL1        0.1874
     23 C         -30.8140    0.4474   25.9557 C.ar    1  UNL1        0.0409
     24 C         -32.1501    0.2596   25.3081 C.ar    1  UNL1        0.0033
     25 C         -32.0609    0.0789   23.9485 C.ar    1  UNL1        0.0035
     26 C         -29.7766    0.0975   24.0833 C.ar    1  UNL1        0.2300
     27 C         -30.8910   -0.0630   23.3318 C.ar    1  UNL1        0.0452
     28 O         -28.5653    0.0092   23.4750 O.3     1  UNL1       -0.2833
     29 N         -28.3381    0.7231   30.8966 N.pl3   1  UNL1       -0.2982
     30 C         -29.0832    1.7754   30.9686 C.2     1  UNL1        0.0575
     31 C         -28.4316    2.8855   31.4951 C.2     1  UNL1       -0.0046
     32 C         -27.0885    2.4376   31.8176 C.3     1  UNL1        0.0650
     33 C         -27.4047    0.7619   31.9705 C.3     1  UNL1        0.0999
     34 C         -26.5412    2.9460   33.1753 C.2     1  UNL1       -0.0203
     35 C         -26.8014    2.5050   34.2055 C.2     1  UNL1       -0.0045
@<TRIPOS>BOND
     1     1     2    1
     2     1     8    1
     3     8     9    1
     4     5    10    1
     5    10    11    2
     6    10    12    1
     7     9    13   ar
     8     9    14   ar
     9     7    15    1
    10    15    16    2
    11    15    17    1
    12    11    18    1
    13     4    19    1
    14    18    20    2
    15    19    20    2
    16    18    21    1
    17    17    22    1
    18    26    28    1
    19     8    29    1
    20    29    30    1
    21    30    31    2
    22    31    32    1
    23    29    33    1
    24    32    33    1
    25    32    34    1
    26    34    35    2
    27     2     3   ar
    28     3     4   ar
    29     4     5   ar
    30     5     6   ar
    31     6     7   ar
    32     7     2   ar
    33    22    23   ar
    34    23    24   ar
    35    24    25   ar
    36    25    27   ar
    37    27    26   ar
    38    26    22   ar
