@<TRIPOS>MOLECULE
No_3207-gen_results/8p0m/2024-11-26-14-13-15/
 8 8 0 0 0
SMALL
GASTEIGER

@<TRIPOS>ATOM
      1 C         -28.0162   -0.8135   28.8779 C.ar    1  UNL1        0.0358
      2 C         -27.0636   -0.1189   28.6079 C.ar    1  UNL1        0.1476
      3 N         -26.9515    1.1286   28.9566 N.ar    1  UNL1       -0.2277
      4 C         -29.1088   -0.2102   29.6318 C.ar    1  UNL1        0.0045
      5 C         -29.0881    1.0629   29.9416 C.ar    1  UNL1        0.0208
      6 C         -27.9547    1.7679   29.5913 C.ar    1  UNL1        0.1004
      7 N         -25.9312   -0.4404   27.8472 N.pl3   1  UNL1       -0.2184
      8 C         -25.1618    0.5577   27.3781 C.3     1  UNL1        0.1371
@<TRIPOS>BOND
     1     2     7    1
     2     7     8    1
     3     1     2   ar
     4     2     3   ar
     5     3     6   ar
     6     6     5   ar
     7     5     4   ar
     8     4     1   ar
