@<TRIPOS>MOLECULE
No_3210-gen_results/8p0m/2024-11-26-14-13-15/
 13 13 0 0 0
SMALL
GASTEIGER

@<TRIPOS>ATOM
      1 C         -28.0162   -0.8135   28.8779 C.ar    1  UNL1        0.0374
      2 C         -27.0636   -0.1189   28.6079 C.ar    1  UNL1        0.0098
      3 C         -25.7923   -0.4302   29.0761 C.ar    1  UNL1        0.0348
      4 C         -25.5756   -1.5654   29.9363 C.ar    1  UNL1        0.0098
      5 C         -26.7354   -2.3004   30.2173 C.ar    1  UNL1        0.0374
      6 C         -27.9184   -1.9537   29.7629 C.ar    1  UNL1        0.1388
      7 O         -29.0001   -2.7012   30.1151 O.3     1  UNL1       -0.4714
      8 BR        -24.2168    0.5765   28.7081 Br      1  UNL1       -0.0490
      9 C         -28.8858   -3.9450   30.5958 C.3     1  UNL1        0.2525
     10 C         -30.1022   -4.6101   30.9176 C.3     1  UNL1        0.2526
     11 O         -30.8248   -4.0334   31.6524 O.2     1  UNL1       -0.4684
     12 C         -31.9531   -3.8623   31.7475 C.2     1  UNL1        0.1725
     13 C         -32.6240   -2.9406   31.5994 C.2     1  UNL1        0.0433
@<TRIPOS>BOND
     1     6     7    1
     2     3     8    1
     3     7     9    1
     4     9    10    1
     5    10    11    1
     6    11    12    1
     7    12    13    2
     8     1     2   ar
     9     2     3   ar
    10     3     4   ar
    11     4     5   ar
    12     5     6   ar
    13     6     1   ar
