@<TRIPOS>MOLECULE
No_3211-gen_results/8p0m/2024-11-26-14-13-15/
 17 18 0 0 0
SMALL
GASTEIGER

@<TRIPOS>ATOM
      1 C         -28.0162   -0.8135   28.8779 C.ar    1  UNL1        0.0001
      2 C         -27.0636   -0.1190   28.6079 C.ar    1  UNL1        0.0039
      3 C         -26.9716    0.7139   27.5060 C.ar    1  UNL1        0.0502
      4 C         -25.8205    1.4909   27.1160 C.ar    1  UNL1        0.0079
      5 C         -24.6562    1.4242   27.9180 C.ar    1  UNL1        0.0715
      6 C         -24.6847    0.5901   29.0659 C.ar    1  UNL1        0.0039
      7 C         -25.8099   -0.1266   29.3338 C.ar    1  UNL1        0.0001
      8 C         -28.0445   -1.5734   30.1690 C.ar    1  UNL1        0.0000
      9 C         -26.8173   -1.7595   30.8704 C.ar    1  UNL1       -0.0000
     10 C         -25.7477   -0.9917   30.5376 C.ar    1  UNL1       -0.0000
     11 C         -23.4587    2.2281   27.5845 C.3     1  UNL1        0.4186
     12 F         -23.6696    3.3058   27.0364 F       1  UNL1       -0.1659
     13 F         -22.7527    2.5752   28.7233 F       1  UNL1       -0.1659
     14 F         -22.5669    1.5179   26.8645 F       1  UNL1       -0.1659
     15 C         -28.1052    0.8311   26.5678 C.2     1  UNL1        0.2535
     16 CL        -28.2842    1.6981   25.8348 Cl      1  UNL1       -0.0382
     17 O         -28.6394   -0.4080   26.4662 O.2     1  UNL1       -0.2739
@<TRIPOS>BOND
     1     5    11    1
     2    11    12    1
     3    11    13    1
     4    11    14    1
     5     3    15    1
     6    15    16    1
     7    15    17    2
     8     2     3   ar
     9     3     4   ar
    10     4     5   ar
    11     5     6   ar
    12     6     7   ar
    13     1     2   ar
    14     2     7   ar
    15     7    10   ar
    16    10     9   ar
    17     9     8   ar
    18     8     1   ar
