@<TRIPOS>MOLECULE
No_3214-gen_results/8p0m/2024-11-26-14-13-15/
 14 15 0 0 0
SMALL
GASTEIGER

@<TRIPOS>ATOM
      1 C         -28.0162   -0.8135   28.8779 C.ar    1  UNL1       -0.0000
      2 C         -27.0636   -0.1189   28.6079 C.ar    1  UNL1       -0.0003
      3 C         -25.7647   -0.3897   29.0360 C.ar    1  UNL1       -0.0036
      4 C         -25.5296   -1.5302   29.9014 C.ar    1  UNL1       -0.0003
      5 C         -26.6577   -2.2915   30.2035 C.ar    1  UNL1       -0.0000
      6 C         -27.8548   -1.9555   29.7630 C.ar    1  UNL1       -0.0000
      7 C         -24.7010    0.5654   28.7269 C.ar    1  UNL1       -0.0151
      8 C         -23.4565    0.3176   29.2488 C.ar    1  UNL1       -0.0039
      9 C         -23.2341   -0.9769   29.8772 C.ar    1  UNL1       -0.0003
     10 C         -24.2268   -1.8170   30.2924 C.ar    1  UNL1       -0.0000
     11 C         -24.8387    1.7358   27.9310 C.3     1  UNL1        0.0871
     12 C         -25.1774    1.6982   26.6349 C.3     1  UNL1        0.0130
     13 C         -24.7647    3.0271   28.6028 C.2     1  UNL1        0.2113
     14 O         -24.7815    4.1009   27.8709 O.2     1  UNL1       -0.2880
@<TRIPOS>BOND
     1     7    11    1
     2    11    12    1
     3    11    13    1
     4    13    14    2
     5     1     2   ar
     6     2     3   ar
     7     4     5   ar
     8     5     6   ar
     9     6     1   ar
    10     3     4   ar
    11     4    10   ar
    12    10     9   ar
    13     9     8   ar
    14     8     7   ar
    15     7     3   ar
