@<TRIPOS>MOLECULE
No_3215-gen_results/8p0m/2024-11-26-14-13-15/
 21 23 0 0 0
SMALL
GASTEIGER

@<TRIPOS>ATOM
      1 C         -28.0162   -0.8135   28.8779 C.ar    1  UNL1        0.1345
      2 C         -28.4690   -0.7850   29.8287 C.ar    1  UNL1        0.0366
      3 C         -28.1960    0.3478   28.0550 C.ar    1  UNL1        0.0118
      4 C         -29.0191    1.3501   28.3782 C.ar    1  UNL1       -0.0013
      5 C         -29.4107    0.1803   30.3782 C.ar    1  UNL1        0.0031
      6 C         -29.6059    1.2495   29.6193 C.ar    1  UNL1       -0.0001
      7 C         -27.3479    0.2333   26.8118 C.3     1  UNL1        0.0299
      8 C         -25.8997    0.2741   26.9020 C.3     1  UNL1        0.0121
      9 C         -25.2396   -0.1102   28.0242 C.3     1  UNL1        0.0560
     10 C         -23.8346   -0.0399   28.0875 C.2     1  UNL1       -0.0235
     11 C         -23.1185   -0.5441   29.2150 C.2     1  UNL1       -0.0051
     12 C         -23.8061   -1.3004   30.1397 C.2     1  UNL1       -0.0063
     13 C         -25.1449   -1.4758   30.0776 C.2     1  UNL1       -0.0145
     14 C         -25.8508   -0.9305   29.0572 C.3     1  UNL1        0.1525
     15 O         -27.4823   -1.6089   28.3288 O.3     1  UNL1       -0.4758
     16 F         -26.2185    0.1121   29.7868 F       1  UNL1       -0.2355
     17 C         -27.2454   -2.8433   29.0698 C.3     1  UNL1        0.2055
     18 C         -25.2556   -2.0819   28.2925 C.3     1  UNL1        0.0377
     19 C         -26.0173   -3.3382   28.6673 C.3     1  UNL1        0.0503
     20 C         -24.2728   -2.3118   27.5219 C.3     1  UNL1        0.0032
     21 C         -25.6954   -1.9382   31.2326 C.3     1  UNL1        0.0290
@<TRIPOS>BOND
     1     3     7    1
     2     7     8    1
     3     9    10    1
     4    10    11    2
     5    11    12    1
     6    12    13    2
     7     9    14    1
     8    13    14    1
     9     1    15    1
    10    14    16    1
    11    15    17    1
    12    14    18    1
    13    17    19    1
    14    18    19    1
    15    18    20    1
    16    13    21    1
    17     8     9    1
    18     1     2   ar
    19     2     5   ar
    20     5     6   ar
    21     6     4   ar
    22     4     3   ar
    23     3     1   ar
