@<TRIPOS>MOLECULE
No_3216-gen_results/8p0m/2024-11-26-14-13-15/
 23 25 0 0 0
SMALL
GASTEIGER

@<TRIPOS>ATOM
      1 C         -28.0162   -0.8135   28.8779 C.ar    1  UNL1        0.0045
      2 C         -28.4690   -0.7850   29.8287 C.ar    1  UNL1        0.0001
      3 C         -27.1356    0.2359   28.5352 C.ar    1  UNL1        0.0540
      4 C         -26.8745    1.2825   29.3982 C.ar    1  UNL1        0.0045
      5 C         -28.3613    0.1987   30.9244 C.ar    1  UNL1        0.0000
      6 C         -27.5277    1.2234   30.6356 C.ar    1  UNL1        0.0001
      7 C         -26.3987    0.2949   27.2279 C.2     1  UNL1        0.2547
      8 N         -26.0303    1.4479   26.7584 N.am    1  UNL1       -0.2262
      9 O         -25.7577   -0.6786   26.8010 O.2     1  UNL1       -0.2695
     10 C         -25.1266    1.6866   25.9459 C.3     1  UNL1        0.1012
     11 C         -24.0913    2.7227   26.2860 C.3     1  UNL1        0.0228
     12 C         -24.2266    3.3584   27.5393 C.3     1  UNL1        0.0145
     13 C         -26.8858    2.6652   27.0911 C.2     1  UNL1        0.2344
     14 C         -25.7072    3.9446   27.6449 C.3     1  UNL1        0.0883
     15 C         -25.9803    4.3344   29.0706 C.ar    1  UNL1       -0.0114
     16 C         -26.9734    5.3107   29.1436 C.ar    1  UNL1       -0.0036
     17 C         -27.4143    5.5740   30.4440 C.ar    1  UNL1        0.0030
     18 C         -26.6530    5.1896   31.5743 C.ar    1  UNL1        0.0420
     19 C         -25.6166    4.2509   31.4200 C.ar    1  UNL1        0.1954
     20 C         -25.2691    3.8560   30.1310 C.ar    1  UNL1        0.0382
     21 C         -25.8761    5.0454   26.5944 C.3     1  UNL1        0.0135
     22 O         -27.9285    2.9398   26.9236 O.2     1  UNL1       -0.2741
     23 O         -24.9373    3.8005   32.4879 O.3     1  UNL1       -0.2866
@<TRIPOS>BOND
     1     3     7    1
     2     7     8   am
     3     7     9    2
     4     8    10    1
     5    10    11    1
     6    11    12    1
     7     8    13   am
     8    12    14    1
     9    13    14    1
    10    14    15    1
    11    14    21    1
    12    13    22    2
    13    19    23    1
    14    15    16   ar
    15    16    17   ar
    16    17    18   ar
    17    18    19   ar
    18    19    20   ar
    19    20    15   ar
    20     1     2   ar
    21     2     5   ar
    22     5     6   ar
    23     6     4   ar
    24     4     3   ar
    25     3     1   ar
