@<TRIPOS>MOLECULE
No_3217-gen_results/8p0m/2024-11-26-14-13-15/
 23 25 0 0 0
SMALL
GASTEIGER

@<TRIPOS>ATOM
      1 C         -28.0162   -0.8135   28.8779 C.ar    1  UNL1        0.0000
      2 C         -28.4690   -0.7850   29.8287 C.ar    1  UNL1        0.0000
      3 C         -28.1816    0.4277   28.1134 C.ar    1  UNL1        0.0013
      4 C         -28.9841    1.4155   28.5154 C.ar    1  UNL1        0.0000
      5 C         -29.3802    0.1384   30.4612 C.ar    1  UNL1        0.0000
      6 C         -29.5415    1.2736   29.7242 C.ar    1  UNL1        0.0000
      7 C         -27.4452    0.4872   26.7726 C.ar    1  UNL1        0.0164
      8 C         -27.8631    0.8051   25.7558 C.ar    1  UNL1        0.0675
      9 C         -25.9834    0.1507   26.8453 C.ar    1  UNL1        0.0204
     10 C         -25.2834   -0.1443   27.9938 C.ar    1  UNL1        0.0015
     11 C         -24.5068    0.7420   28.6839 C.ar    1  UNL1        0.0000
     12 C         -23.7210    0.3670   29.7634 C.ar    1  UNL1        0.0000
     13 C         -23.7332   -0.9493   30.2449 C.ar    1  UNL1        0.0000
     14 C         -24.4889   -1.8870   29.5451 C.ar    1  UNL1        0.0000
     15 C         -25.2532   -1.4848   28.4616 C.ar    1  UNL1        0.0000
     16 C         -25.3925    0.6575   25.6925 C.ar    1  UNL1        0.0989
     17 N         -29.2313    1.1135   25.5745 N.pl3   1  UNL1       -0.3006
     18 C         -27.1512    1.0562   24.5722 C.ar    1  UNL1        0.1133
     19 N         -25.9068    0.8979   24.5827 N.ar    1  UNL1       -0.2410
     20 C         -29.6480    2.3215   25.5820 C.3     1  UNL1        0.1125
     21 C         -30.1707    0.0479   25.5275 C.3     1  UNL1        0.1175
     22 C         -31.4907    0.3762   25.8994 C.2     1  UNL1       -0.0048
     23 C         -32.1288   -0.5705   26.6018 C.2     1  UNL1       -0.0032
@<TRIPOS>BOND
     1     3     7    1
     2     9    10    1
     3     8    17    1
     4    17    20    1
     5    17    21    1
     6    21    22    1
     7    22    23    2
     8     7     8   ar
     9     8    18   ar
    10    18    19   ar
    11    19    16   ar
    12    16     9   ar
    13     9     7   ar
    14     1     2   ar
    15     2     5   ar
    16     5     6   ar
    17     6     4   ar
    18     4     3   ar
    19     3     1   ar
    20    10    11   ar
    21    11    12   ar
    22    12    13   ar
    23    13    14   ar
    24    14    15   ar
    25    15    10   ar
