@<TRIPOS>MOLECULE
No_3219-gen_results/8p0m/2024-11-26-14-13-15/
 10 9 0 0 0
SMALL
GASTEIGER

@<TRIPOS>ATOM
      1 C         -28.0162   -0.8135   28.8779 C.3     1  UNL1        0.3482
      2 C         -28.4690   -0.7850   29.8287 C.3     1  UNL1        0.4357
      3 C         -26.5042   -0.7777   28.8766 C.3     1  UNL1        0.4357
      4 F         -26.0079   -0.3793   27.7726 F       1  UNL1       -0.1668
      5 F         -25.9797   -2.0272   29.0695 F       1  UNL1       -0.1668
      6 F         -25.9069   -0.0285   29.8171 F       1  UNL1       -0.1668
      7 F         -27.8090   -0.9706   30.8189 F       1  UNL1       -0.1668
      8 F         -29.6115   -1.7235   29.9428 F       1  UNL1       -0.1668
      9 F         -29.3026    0.3340   29.9529 F       1  UNL1       -0.1668
     10 F         -28.3401   -0.1259   27.8858 F       1  UNL1       -0.2187
@<TRIPOS>BOND
     1     1     2    1
     2     1     3    1
     3     3     4    1
     4     3     5    1
     5     3     6    1
     6     2     7    1
     7     2     8    1
     8     2     9    1
     9     1    10    1
