@<TRIPOS>MOLECULE
No_3220-gen_results/8p0m/2024-11-26-14-13-15/
 11 11 0 0 0
SMALL
GASTEIGER

@<TRIPOS>ATOM
      1 CL        -28.1493   -0.8198   28.9079 Cl      1  UNL1       -0.0814
      2 C         -26.9116   -0.0797   28.9452 C.ar    1  UNL1        0.0682
      3 C         -26.7384    1.0439   29.2535 C.ar    1  UNL1        0.0684
      4 C         -25.4392    1.7115   29.2755 C.ar    1  UNL1        0.0188
      5 C         -24.2812    0.9888   28.8542 C.ar    1  UNL1        0.0807
      6 C         -24.4868   -0.3041   28.4957 C.ar    1  UNL1        0.0075
      7 C         -25.7046   -0.8667   28.5244 C.ar    1  UNL1        0.0125
      8 C         -22.9617    1.6322   28.7948 C.2     1  UNL1        0.3878
      9 O         -22.7682    2.7355   28.6243 O.co2   1  UNL1       -0.2406
     10 O         -21.9200    0.7432   28.6275 O.co2   1  UNL1       -0.2406
     11 CL        -27.9884    2.1059   29.8209 Cl      1  UNL1       -0.0814
@<TRIPOS>BOND
     1     1     2    1
     2     5     8    1
     3     8     9   ar
     4     8    10   ar
     5     3    11    1
     6     2     3   ar
     7     3     4   ar
     8     4     5   ar
     9     5     6   ar
    10     6     7   ar
    11     7     2   ar
