@<TRIPOS>MOLECULE
No_3221-gen_results/8p0m/2024-11-26-14-13-15/
 19 21 0 0 0
SMALL
GASTEIGER

@<TRIPOS>ATOM
      1 C         -28.0162   -0.8135   28.8779 C.ar    1  UNL1        0.0500
      2 C         -28.4690   -0.7850   29.8287 C.2     1  UNL1        0.2488
      3 C         -26.5042   -0.7777   28.8766 C.ar    1  UNL1        0.0042
      4 C         -25.7623   -0.0022   27.9705 C.ar    1  UNL1        0.0001
      5 C         -26.0931    0.6131   27.0948 C.ar    1  UNL1       -0.0003
      6 C         -27.5553    0.5847   26.8055 C.ar    1  UNL1       -0.0038
      7 C         -28.3411    0.0437   27.7274 C.ar    1  UNL1       -0.0123
      8 N         -29.6462   -0.4570   30.1430 N.am    1  UNL1       -0.2737
      9 O         -28.0387   -1.7146   30.8644 O.2     1  UNL1       -0.2699
     10 C         -30.3127    0.5157   29.3634 C.3     1  UNL1        0.1025
     11 C         -29.7791    0.5969   28.0219 C.3     1  UNL1        0.0676
     12 C         -30.4573    1.0616   26.8807 C.ar    1  UNL1        0.0222
     13 C         -30.5279    2.3975   26.8962 C.ar    1  UNL1       -0.0007
     14 C         -31.7963    0.4177   26.7196 C.ar    1  UNL1        0.1921
     15 C         -30.4581   -0.6962   31.4673 C.3     1  UNL1        0.1152
     16 C         -32.3975    0.7910   25.7041 C.ar    1  UNL1        0.0417
     17 C         -31.1810    2.9718   25.6182 C.ar    1  UNL1       -0.0001
     18 C         -32.5450    2.3195   25.4173 C.ar    1  UNL1        0.0033
     19 O         -31.6218   -1.0692   26.7699 O.3     1  UNL1       -0.2869
@<TRIPOS>BOND
     1     1     2    1
     2     2     8   am
     3     2     9    2
     4     8    10    1
     5     7    11    1
     6    10    11    1
     7    11    12    1
     8     8    15    1
     9    14    19    1
    10    12    13   ar
    11    13    17   ar
    12    17    18   ar
    13    18    16   ar
    14    16    14   ar
    15    14    12   ar
    16     1     3   ar
    17     3     4   ar
    18     4     5   ar
    19     5     6   ar
    20     6     7   ar
    21     7     1   ar
