@<TRIPOS>MOLECULE
No_3222-gen_results/8p0m/2024-11-26-14-13-15/
 28 31 0 0 0
SMALL
GASTEIGER

@<TRIPOS>ATOM
      1 C         -28.0162   -0.8135   28.8779 C.ar    1  UNL1        0.0369
      2 C         -28.4690   -0.7850   29.8287 C.ar    1  UNL1        0.1391
      3 C         -26.5455   -0.8762   28.8500 C.ar    1  UNL1        0.0031
      4 C         -25.8041   -1.0324   30.0571 C.ar    1  UNL1       -0.0004
      5 C         -27.9437   -0.9869   31.2075 C.ar    1  UNL1        0.0369
      6 C         -24.4008   -1.0969   30.0965 C.2     1  UNL1       -0.0082
      7 C         -26.5612   -1.0746   31.2270 C.ar    1  UNL1        0.0031
      8 C         -23.6345   -0.8924   29.0458 C.2     1  UNL1       -0.0395
      9 C         -22.1743   -0.7863   29.1506 C.3     1  UNL1        0.0476
     10 C         -21.6088    0.4081   28.9496 C.2     1  UNL1       -0.0263
     11 C         -22.0805    1.3783   28.0013 C.2     1  UNL1       -0.0300
     12 C         -23.4998    1.2998   27.7246 C.3     1  UNL1        0.0304
     13 C         -24.0723   -0.9109   27.6371 C.3     1  UNL1        0.0270
     14 C         -24.2460    0.3962   27.2729 C.3     1  UNL1        0.0307
     15 O         -29.9439   -0.7199   29.9031 O.3     1  UNL1       -0.4706
     16 C         -30.5568   -0.1489   28.9447 C.3     1  UNL1        0.2320
     17 C         -25.3591    0.5814   26.2721 C.ar    1  UNL1       -0.0219
     18 C         -25.5125   -0.2771   25.2413 C.ar    1  UNL1       -0.0043
     19 C         -26.6074   -0.1069   24.3548 C.ar    1  UNL1       -0.0003
     20 C         -27.6294    0.8613   24.6881 C.ar    1  UNL1       -0.0000
     21 C         -26.3461    1.5975   26.5179 C.ar    1  UNL1       -0.0043
     22 C         -27.4384    1.7014   25.7792 C.ar    1  UNL1       -0.0003
     23 C         -31.9150    0.2880   29.1368 C.ar    1  UNL1        0.0212
     24 C         -32.5016    0.1737   30.0645 C.ar    1  UNL1       -0.0007
     25 C         -33.9215    0.6237   30.2901 C.ar    1  UNL1       -0.0002
     26 C         -34.4784    1.2172   29.1560 C.ar    1  UNL1       -0.0000
     27 C         -33.8314    1.3718   28.0051 C.ar    1  UNL1       -0.0002
     28 C         -32.4793    0.9487   27.9096 C.ar    1  UNL1       -0.0007
@<TRIPOS>BOND
     1     4     6    1
     2     6     8    2
     3     8     9    1
     4     9    10    1
     5    10    11    2
     6    11    12    1
     7     8    13    1
     8    12    14    1
     9    13    14    1
    10     2    15    1
    11    15    16    1
    12    14    17    1
    13    16    23    1
    14    17    18   ar
    15    18    19   ar
    16    19    20   ar
    17    20    22   ar
    18    22    21   ar
    19    21    17   ar
    20    23    24   ar
    21    24    25   ar
    22    25    26   ar
    23    26    27   ar
    24    27    28   ar
    25    28    23   ar
    26     1     2   ar
    27     2     5   ar
    28     5     7   ar
    29     7     4   ar
    30     4     3   ar
    31     3     1   ar
