@<TRIPOS>MOLECULE
No_3226-gen_results/8p0m/2024-11-26-14-13-15/
 8 7 0 0 0
SMALL
GASTEIGER

@<TRIPOS>ATOM
      1 CL        -28.1493   -0.8198   28.9079 Cl      1  UNL1       -0.1060
      2 C         -27.8339    0.4961   29.0598 C.3     1  UNL1        0.1744
      3 C         -27.6022    1.0128   30.2974 C.3     1  UNL1        0.4110
      4 F         -27.3721    2.2618   30.3144 F       1  UNL1       -0.1687
      5 F         -28.7374    0.8723   31.1054 F       1  UNL1       -0.1687
      6 F         -26.5703    0.3656   30.9053 F       1  UNL1       -0.1687
      7 C         -27.6182    1.3196   27.8800 C.3     1  UNL1        0.0250
      8 C         -26.8254    2.1951   27.7893 C.3     1  UNL1        0.0016
@<TRIPOS>BOND
     1     1     2    1
     2     2     3    1
     3     3     4    1
     4     3     5    1
     5     3     6    1
     6     2     7    1
     7     7     8    1
