@<TRIPOS>MOLECULE
No_3228-gen_results/8p0m/2024-11-26-14-13-15/
 12 12 0 0 0
SMALL
GASTEIGER

@<TRIPOS>ATOM
      1 O         -28.1229   -1.3353   28.4874 O.2     1  UNL1       -0.2687
      2 C         -28.5208   -0.4363   29.0779 C.2     1  UNL1        0.2608
      3 C         -29.6977    0.0507   28.9764 C.2     1  UNL1        0.0329
      4 N         -27.5405    0.1756   30.0054 N.am    1  UNL1       -0.2019
      5 C         -27.8890    1.2664   30.8176 C.3     1  UNL1        0.1158
      6 C         -30.5762   -0.3342   28.1128 C.2     1  UNL1        0.0003
      7 C         -29.1696    1.7014   30.6378 C.3     1  UNL1        0.0283
      8 C         -30.0587    1.2412   29.8063 C.3     1  UNL1        0.0328
      9 C         -31.7014    0.4774   27.6627 C.2     1  UNL1       -0.0002
     10 C         -32.5424    0.0696   26.7949 C.2     1  UNL1       -0.0000
     11 C         -32.3940   -1.2226   26.1374 C.2     1  UNL1       -0.0000
     12 C         -31.3961   -2.0737   26.5004 C.2     1  UNL1       -0.0000
@<TRIPOS>BOND
     1     1     2    2
     2     2     3    1
     3     2     4   am
     4     4     5    1
     5     3     6    2
     6     5     7    1
     7     3     8    1
     8     7     8    1
     9     6     9    1
    10     9    10    2
    11    10    11    1
    12    11    12    2
