@<TRIPOS>MOLECULE
No_3229-gen_results/8p0m/2024-11-26-14-13-15/
 10 10 0 0 0
SMALL
GASTEIGER

@<TRIPOS>ATOM
      1 C         -28.0162   -0.8135   28.8779 C.ar    1  UNL1        0.0039
      2 C         -27.0636   -0.1189   28.6079 C.ar    1  UNL1        0.0714
      3 C         -26.9287    1.1713   29.0083 C.ar    1  UNL1        0.0039
      4 C         -27.9560    1.7411   29.7840 C.ar    1  UNL1       -0.0001
      5 C         -29.0569   -0.3271   29.7466 C.ar    1  UNL1       -0.0001
      6 C         -28.9828    0.9722   30.1516 C.ar    1  UNL1       -0.0000
      7 C         -25.8907   -0.6263   27.7857 C.3     1  UNL1        0.4186
      8 F         -25.5296   -1.7103   28.1045 F       1  UNL1       -0.1659
      9 F         -24.7309    0.2337   27.8305 F       1  UNL1       -0.1659
     10 F         -26.0644   -0.4377   26.4021 F       1  UNL1       -0.1659
@<TRIPOS>BOND
     1     2     7    1
     2     7     8    1
     3     7     9    1
     4     7    10    1
     5     1     2   ar
     6     2     3   ar
     7     3     4   ar
     8     4     6   ar
     9     6     5   ar
    10     5     1   ar
