@<TRIPOS>MOLECULE
No_3230-gen_results/8p0m/2024-11-26-14-13-15/
 24 26 0 0 0
SMALL
GASTEIGER

@<TRIPOS>ATOM
      1 C         -28.0162   -0.8135   28.8779 C.ar    1  UNL1        0.0030
      2 C         -28.4690   -0.7850   29.8287 C.ar    1  UNL1        0.0002
      3 C         -28.1816    0.4277   28.1134 C.ar    1  UNL1        0.0340
      4 C         -27.4498    0.6435   26.8500 C.ar    1  UNL1        0.0029
      5 C         -26.4529    0.9939   26.6681 C.ar    1  UNL1        0.0001
      6 C         -25.1810    0.8624   26.8164 C.ar    1  UNL1       -0.0000
      7 C         -24.5150    0.1164   27.8116 C.ar    1  UNL1        0.0039
      8 C         -23.1975    0.2649   28.2065 C.ar    1  UNL1        0.0714
      9 C         -29.4518    0.0736   30.4366 C.ar    1  UNL1        0.0031
     10 C         -29.6891    1.1851   29.7172 C.ar    1  UNL1        0.0369
     11 C         -29.0627    1.3964   28.5468 C.ar    1  UNL1        0.1386
     12 C         -22.4112    1.2604   27.6086 C.ar    1  UNL1        0.0039
     13 C         -22.9788    2.1039   26.6351 C.ar    1  UNL1       -0.0001
     14 C         -24.3085    1.9769   26.3200 C.ar    1  UNL1       -0.0000
     15 C         -28.2928   -0.0035   25.7539 C.ar    1  UNL1        0.0001
     16 C         -28.3928    0.8756   24.6434 C.ar    1  UNL1        0.0000
     17 C         -26.6075    2.0592   25.4304 C.ar    1  UNL1        0.0000
     18 C         -27.3789    1.7225   24.4202 C.ar    1  UNL1        0.0000
     19 C         -22.6029   -0.6199   29.1955 C.3     1  UNL1        0.4186
     20 F         -22.6274   -0.1181   30.3710 F       1  UNL1       -0.1659
     21 F         -23.2743   -1.7547   29.2354 F       1  UNL1       -0.1659
     22 F         -21.2818   -0.8020   28.8668 F       1  UNL1       -0.1659
     23 O         -29.2878    2.4634   27.8296 O.3     1  UNL1       -0.4714
     24 C         -30.4572    2.8055   27.3618 C.3     1  UNL1        0.2525
@<TRIPOS>BOND
     1     3     4    1
     2     5     6    1
     3     8    19    1
     4    19    20    1
     5    19    21    1
     6    19    22    1
     7    11    23    1
     8    23    24    1
     9     6     7   ar
    10     7     8   ar
    11     8    12   ar
    12    12    13   ar
    13    13    14   ar
    14    14     6   ar
    15     1     2   ar
    16     2     9   ar
    17     9    10   ar
    18    10    11   ar
    19    11     3   ar
    20     3     1   ar
    21     4     5   ar
    22     5    17   ar
    23    17    18   ar
    24    18    16   ar
    25    16    15   ar
    26    15     4   ar
