@<TRIPOS>MOLECULE
No_3232-gen_results/8p0m/2024-11-26-14-13-15/
 9 9 0 0 0
SMALL
GASTEIGER

@<TRIPOS>ATOM
      1 C         -28.0162   -0.8135   28.8779 C.2     1  UNL1        0.0369
      2 C         -27.0636   -0.1190   28.6079 C.2     1  UNL1       -0.0410
      3 C         -26.8756    1.1325   28.9134 C.3     1  UNL1        0.0221
      4 C         -25.6883    1.9515   28.5672 C.3     1  UNL1        0.0044
      5 C         -24.6394    1.2834   27.8753 C.3     1  UNL1        0.0007
      6 C         -24.8068   -0.0513   27.6040 C.3     1  UNL1        0.0044
      7 C         -25.9019   -0.7670   27.9511 C.3     1  UNL1        0.0221
      8 C         -28.0611   -1.4288   30.2827 C.2     1  UNL1        0.2336
      9 O         -28.9549   -2.3242   30.5042 O.2     1  UNL1       -0.2832
@<TRIPOS>BOND
     1     1     2    2
     2     2     3    1
     3     3     4    1
     4     4     5    1
     5     5     6    1
     6     2     7    1
     7     6     7    1
     8     1     8    1
     9     8     9    2
