@<TRIPOS>MOLECULE
No_3233-gen_results/8p0m/2024-11-26-14-13-15/
 15 16 0 0 0
SMALL
GASTEIGER

@<TRIPOS>ATOM
      1 C         -28.0162   -0.8135   28.8779 C.ar    1  UNL1       -0.0029
      2 C         -28.4690   -0.7850   29.8287 C.ar    1  UNL1       -0.0003
      3 C         -27.1356    0.2359   28.5352 C.ar    1  UNL1       -0.0043
      4 C         -26.8745    1.2825   29.3982 C.ar    1  UNL1       -0.0029
      5 C         -27.5070    1.2380   30.6295 C.ar    1  UNL1       -0.0003
      6 C         -28.3293    0.1745   30.9350 C.ar    1  UNL1       -0.0000
      7 C         -26.4077    0.3070   27.2259 C.3     1  UNL1        0.1357
      8 C         -25.0105    0.3902   27.3228 C.ar    1  UNL1       -0.0043
      9 C         -24.3683    0.2207   28.5236 C.ar    1  UNL1       -0.0029
     10 C         -22.9114    0.5660   28.5067 C.ar    1  UNL1       -0.0003
     11 C         -22.3753    1.3436   27.5093 C.ar    1  UNL1       -0.0000
     12 C         -23.1359    1.7131   26.4149 C.ar    1  UNL1       -0.0003
     13 C         -24.4719    1.2805   26.2983 C.ar    1  UNL1       -0.0029
     14 C         -27.0814    0.1481   26.0530 C.1     1  UNL1        0.0811
     15 N         -27.8006    0.4676   25.4272 N.1     1  UNL1       -0.1952
@<TRIPOS>BOND
     1     3     7    1
     2     7    14    1
     3    14    15    3
     4     7     8    1
     5     1     2   ar
     6     2     6   ar
     7     6     5   ar
     8     5     4   ar
     9     4     3   ar
    10     3     1   ar
    11     8     9   ar
    12     9    10   ar
    13    10    11   ar
    14    11    12   ar
    15    12    13   ar
    16    13     8   ar
