@<TRIPOS>MOLECULE
No_3235-gen_results/8p0m/2024-11-26-14-13-15/
 23 24 0 0 0
SMALL
GASTEIGER

@<TRIPOS>ATOM
      1 C         -28.0162   -0.8135   28.8779 C.ar    1  UNL1        0.1124
      2 C         -27.0636   -0.1190   28.6079 C.ar    1  UNL1        0.1526
      3 C         -25.7647   -0.3897   29.0360 C.ar    1  UNL1        0.0312
      4 C         -24.5516    0.4058   28.7646 C.ar    1  UNL1        0.0617
      5 C         -23.2300    0.1178   29.2575 C.ar    1  UNL1        0.1385
      6 C         -23.0942   -1.1309   29.8730 C.ar    1  UNL1        0.0367
      7 C         -27.7981   -1.9341   29.8560 C.ar    1  UNL1        0.1528
      8 C         -26.5420   -2.3269   30.2580 C.ar    1  UNL1        0.0307
      9 C         -25.4514   -1.5516   29.9079 C.ar    1  UNL1        0.0045
     10 C         -24.1562   -1.9097   30.2809 C.ar    1  UNL1        0.0032
     11 C         -24.6450    1.6582   27.9464 C.3     1  UNL1        0.2649
     12 CL        -24.8271    1.5876   26.5600 Cl      1  UNL1       -0.0718
     13 F         -24.6263    2.7113   28.6598 F       1  UNL1       -0.2142
     14 F         -28.8881   -2.6650   30.1879 F       1  UNL1       -0.2032
     15 CL        -29.6071   -0.4898   28.4351 Cl      1  UNL1       -0.0775
     16 O         -22.1903    0.8483   28.9091 O.3     1  UNL1       -0.4728
     17 C         -21.0394    0.2774   28.3499 C.3     1  UNL1        0.2406
     18 F         -27.1872    0.9702   27.8168 F       1  UNL1       -0.2032
     19 C         -20.2153    1.3409   27.9301 C.3     1  UNL1        0.2247
     20 O         -20.8286    2.5171   28.1918 O.3     1  UNL1       -0.2164
     21 C         -19.1727    1.4637   28.8804 C.3     1  UNL1        0.1789
     22 O         -18.3378    2.5341   28.6417 O.3     1  UNL1       -0.3483
     23 C         -19.0031    3.7290   28.3147 C.3     1  UNL1        0.1742
@<TRIPOS>BOND
     1     4    11    1
     2    11    12    1
     3    11    13    1
     4     7    14    1
     5     1    15    1
     6     5    16    1
     7    16    17    1
     8     2    18    1
     9    17    19    1
    10    19    20    1
    11    19    21    1
    12    21    22    1
    13    22    23    1
    14     1     2   ar
    15     2     3   ar
    16     9     8   ar
    17     8     7   ar
    18     7     1   ar
    19     3     4   ar
    20     4     5   ar
    21     5     6   ar
    22     6    10   ar
    23    10     9   ar
    24     9     3   ar
