@<TRIPOS>MOLECULE
No_3236-gen_results/8p0m/2024-11-26-14-13-15/
 29 31 0 0 0
SMALL
GASTEIGER

@<TRIPOS>ATOM
      1 C         -28.0162   -0.8135   28.8779 C.ar    1  UNL1        0.1410
      2 C         -27.0636   -0.1190   28.6079 C.ar    1  UNL1        0.0367
      3 C         -26.9716    0.7139   27.5060 C.ar    1  UNL1        0.0012
      4 C         -28.1053    0.7744   26.6421 C.ar    1  UNL1        0.0052
      5 C         -29.2041    0.1179   27.0477 C.ar    1  UNL1        0.1391
      6 C         -29.2127   -0.6088   28.1281 C.ar    1  UNL1        0.0662
      7 C         -25.7106    1.4518   27.1380 C.ar    1  UNL1       -0.0001
      8 C         -25.2074    2.4128   27.9320 C.ar    1  UNL1       -0.0000
      9 C         -24.2878    2.8213   28.1828 C.ar    1  UNL1       -0.0000
     10 C         -23.0796    2.2449   27.3693 C.ar    1  UNL1       -0.0000
     11 C         -23.4280    1.2098   26.5252 C.ar    1  UNL1       -0.0000
     12 C         -24.6823    0.7243   26.4558 C.ar    1  UNL1       -0.0000
     13 C         -27.9914    1.6099   25.4422 C.3     1  UNL1        0.0246
     14 C         -28.3255    2.9300   25.6002 C.3     1  UNL1        0.0048
     15 C         -27.6872    0.9774   24.2224 C.3     1  UNL1        0.0048
     16 O         -27.8609   -1.5532   30.0573 O.3     1  UNL1       -0.4714
     17 F         -30.2653    0.1463   26.2953 F       1  UNL1       -0.2044
     18 C         -28.5990   -1.4747   31.0722 C.3     1  UNL1        0.2525
     19 C         -26.4264    3.1789   28.8474 C.ar    1  UNL1       -0.0003
     20 C         -26.2751    4.3495   29.0605 C.ar    1  UNL1       -0.0000
     21 C         -26.7102    4.7901   30.3591 C.ar    1  UNL1       -0.0003
     22 C         -27.3208    4.3721   31.0362 C.ar    1  UNL1       -0.0039
     23 C         -27.6996    2.9222   30.7870 C.ar    1  UNL1       -0.0178
     24 C         -26.5913    2.3282   30.1255 C.ar    1  UNL1       -0.0039
     25 C         -28.1238    2.1295   32.0729 C.3     1  UNL1        0.0523
     26 C         -29.4926    1.8763   32.1729 C.2     1  UNL1       -0.0214
     27 C         -30.1777    2.5456   32.9233 C.2     1  UNL1       -0.0042
     28 C         -31.5739    2.3951   32.8949 C.2     1  UNL1       -0.0003
     29 C         -32.4974    3.1299   33.6628 C.2     1  UNL1       -0.0000
@<TRIPOS>BOND
     1     3     7    1
     2     4    13    1
     3    13    14    1
     4    13    15    1
     5     1    16    1
     6     5    17    1
     7    16    18    1
     8     8    19    1
     9    23    25    1
    10    25    26    1
    11    26    27    2
    12    27    28    1
    13    28    29    2
    14     1     2   ar
    15     2     3   ar
    16     3     4   ar
    17     4     5   ar
    18     5     6   ar
    19     6     1   ar
    20    19    20   ar
    21    20    21   ar
    22    21    22   ar
    23    22    23   ar
    24    23    24   ar
    25    24    19   ar
    26     7     8   ar
    27     8     9   ar
    28     9    10   ar
    29    10    11   ar
    30    11    12   ar
    31    12     7   ar
