@<TRIPOS>MOLECULE
No_3237-gen_results/8p0m/2024-11-26-14-13-15/
 22 24 0 0 0
SMALL
GASTEIGER

@<TRIPOS>ATOM
      1 C         -28.0162   -0.8135   28.8779 C.ar    1  UNL1        0.0381
      2 C         -27.0636   -0.1189   28.6079 C.ar    1  UNL1        0.0093
      3 C         -25.7923   -0.4302   29.0761 C.ar    1  UNL1        0.0347
      4 C         -25.5756   -1.5654   29.9363 C.ar    1  UNL1        0.0098
      5 C         -26.7354   -2.3004   30.2173 C.ar    1  UNL1        0.0381
      6 C         -27.9184   -1.9537   29.7629 C.ar    1  UNL1        0.1488
      7 O         -29.0001   -2.7012   30.1151 O.3     1  UNL1       -0.4210
      8 BR        -24.2168    0.5765   28.7081 Br      1  UNL1       -0.0490
      9 C         -29.3707   -2.8246   31.4486 C.2     1  UNL1        0.3457
     10 C         -29.9465   -1.8020   31.9834 C.ar    1  UNL1        0.0760
     11 C         -30.5109   -0.8842   31.2849 C.ar    1  UNL1        0.0065
     12 C         -30.6634    0.3626   31.8824 C.ar    1  UNL1        0.0002
     13 C         -30.5981    0.4828   33.2895 C.ar    1  UNL1        0.0000
     14 C         -29.6362   -1.5932   33.4440 C.ar    1  UNL1        0.0065
     15 C         -29.9177   -0.4045   34.0474 C.ar    1  UNL1        0.0002
     16 O         -29.2139   -4.0244   31.9521 O.2     1  UNL1       -0.2445
     17 C         -27.1665    1.1106   27.7155 C.ar    1  UNL1        0.0006
     18 C         -27.3877    2.2177   28.3763 C.ar    1  UNL1        0.0000
     19 C         -27.2203    0.9205   26.3648 C.ar    1  UNL1        0.0000
     20 C         -27.6539    3.4208   27.5791 C.ar    1  UNL1        0.0000
     21 C         -27.4450    2.0109   25.5178 C.ar    1  UNL1        0.0000
     22 C         -27.6240    3.3042   26.1271 C.ar    1  UNL1        0.0000
@<TRIPOS>BOND
     1     6     7    1
     2     3     8    1
     3     7     9    1
     4     9    10    1
     5     9    16    2
     6     2    17    1
     7     1     2   ar
     8     2     3   ar
     9     3     4   ar
    10     4     5   ar
    11     5     6   ar
    12     6     1   ar
    13    17    18   ar
    14    18    20   ar
    15    20    22   ar
    16    22    21   ar
    17    21    19   ar
    18    19    17   ar
    19    10    11   ar
    20    11    12   ar
    21    12    13   ar
    22    13    15   ar
    23    15    14   ar
    24    14    10   ar
