@<TRIPOS>MOLECULE
No_3238-gen_results/8p0m/2024-11-26-14-13-15/
 32 35 0 0 0
SMALL
GASTEIGER

@<TRIPOS>ATOM
      1 O         -28.1229   -1.3353   28.4874 O.2     1  UNL1       -0.2749
      2 C         -27.4806   -0.4044   28.7094 C.2     1  UNL1        0.2252
      3 C         -26.3804   -0.0867   27.9394 C.3     1  UNL1        0.0787
      4 N         -27.4232    0.1749   30.0549 N.am    1  UNL1       -0.2812
      5 C         -26.1558    0.1159   26.9677 C.3     1  UNL1        0.0135
      6 C         -27.1674    0.2216   25.9335 C.3     1  UNL1        0.0228
      7 C         -28.3369    0.6480   26.2612 C.ar    1  UNL1       -0.0228
      8 C         -29.3467    0.6897   25.1945 C.ar    1  UNL1       -0.0043
      9 C         -30.6911    0.9918   25.5014 C.ar    1  UNL1       -0.0006
     10 C         -30.9981    1.3501   26.8244 C.ar    1  UNL1       -0.0040
     11 C         -30.0567    1.3477   27.8123 C.ar    1  UNL1       -0.0181
     12 C         -28.7823    1.0049   27.5465 C.ar    1  UNL1       -0.0079
     13 C         -27.9118   -0.0131   30.9705 C.3     1  UNL1        0.0933
     14 C         -28.3779    2.4923   27.7783 C.2     1  UNL1       -0.0046
     15 C         -30.5811    1.1751   29.1642 C.3     1  UNL1        0.0526
     16 C         -26.8152   -0.0623   24.5181 C.3     1  UNL1        0.0047
     17 C         -27.6339   -0.3409   31.9171 C.3     1  UNL1        0.0216
     18 C         -31.3612    0.2235   29.6033 C.ar    1  UNL1       -0.0178
     19 C         -31.8212    0.1531   30.8939 C.ar    1  UNL1       -0.0039
     20 C         -32.6321   -0.9383   31.3493 C.ar    1  UNL1       -0.0003
     21 C         -32.9834   -1.8749   30.3723 C.ar    1  UNL1       -0.0000
     22 C         -32.5709   -1.8664   29.0847 C.ar    1  UNL1       -0.0003
     23 C         -31.7720   -0.8266   28.7094 C.ar    1  UNL1       -0.0039
     24 C         -26.7356   -0.0384   32.3776 C.3     1  UNL1        0.0035
     25 C         -25.8013    0.2702   30.4956 C.3     1  UNL1        0.0758
     26 C         -25.6047    0.1941   31.8417 C.3     1  UNL1        0.0199
     27 C         -25.0467    0.1000   28.9324 C.3     1  UNL1        0.0289
     28 C         -27.2303    2.9785   28.0779 C.2     1  UNL1       -0.0144
     29 C         -26.8960    4.3299   28.3577 C.3     1  UNL1        0.1401
     30 C         -25.5660    4.7124   28.7542 C.2     1  UNL1        0.3692
     31 O         -25.3483    5.9164   29.0649 O.co2   1  UNL1       -0.2453
     32 O         -24.5544    4.0108   28.2924 O.co2   1  UNL1       -0.2453
@<TRIPOS>BOND
     1     1     2    2
     2     2     3    1
     3     2     4   am
     4     3     5    1
     5     5     6    1
     6     6     7    1
     7     4    13    1
     8    12    14    1
     9    11    15    1
    10     6    16    1
    11    17    24    1
    12     4    25    1
    13    25    26    1
    14     3    27    1
    15    25    27    1
    16    14    28    2
    17    28    29    1
    18    29    30    1
    19    30    31   ar
    20    30    32   ar
    21    15    18    1
    22    13    17    1
    23    24    26    1
    24    18    19   ar
    25    19    20   ar
    26    20    21   ar
    27    21    22   ar
    28    22    23   ar
    29    23    18   ar
    30     7     8   ar
    31     8     9   ar
    32     9    10   ar
    33    10    11   ar
    34    11    12   ar
    35    12     7   ar
