@<TRIPOS>MOLECULE
No_3239-gen_results/8p0m/2024-11-26-14-13-15/
 15 16 0 0 0
SMALL
GASTEIGER

@<TRIPOS>ATOM
      1 C         -28.0162   -0.8135   28.8779 C.ar    1  UNL1        0.0066
      2 C         -27.0636   -0.1190   28.6079 C.ar    1  UNL1        0.0002
      3 C         -25.7647   -0.3897   29.0360 C.ar    1  UNL1        0.0000
      4 C         -25.5296   -1.5302   29.9014 C.ar    1  UNL1        0.0002
      5 C         -26.6888   -2.2893   30.1810 C.ar    1  UNL1        0.0066
      6 C         -27.8727   -1.9508   29.7373 C.ar    1  UNL1        0.0798
      7 C         -24.5491    0.4100   28.7341 C.ar    1  UNL1        0.0000
      8 C         -24.4789    1.1871   27.6843 C.ar    1  UNL1        0.0000
      9 C         -23.2830    1.8356   27.3522 C.ar    1  UNL1        0.0000
     10 C         -22.1028    1.6619   28.0350 C.ar    1  UNL1        0.0000
     11 C         -23.3238    0.1535   29.4730 C.ar    1  UNL1        0.0000
     12 C         -22.1169    0.8126   29.1066 C.ar    1  UNL1        0.0000
     13 C         -29.0413   -2.7826   30.1570 C.2     1  UNL1        0.3878
     14 O         -28.9690   -4.0050   30.2407 O.co2   1  UNL1       -0.2406
     15 O         -30.1654   -2.2347   30.3591 O.co2   1  UNL1       -0.2406
@<TRIPOS>BOND
     1     3     7    1
     2     6    13    1
     3    13    14   ar
     4    13    15   ar
     5     7     8   ar
     6     8     9   ar
     7     9    10   ar
     8    10    12   ar
     9    12    11   ar
    10    11     7   ar
    11     1     2   ar
    12     2     3   ar
    13     3     4   ar
    14     4     5   ar
    15     5     6   ar
    16     6     1   ar
