@<TRIPOS>MOLECULE
No_324-gen_results/8p0m/2024-11-26-14-13-15/
 34 39 0 0 0
SMALL
GASTEIGER

@<TRIPOS>ATOM
      1 C         -28.0162   -0.8135   28.8779 C.ar    1  UNL1       -0.0043
      2 C         -28.4690   -0.7850   29.8287 C.ar    1  UNL1        0.0062
      3 C         -26.5455   -0.8762   28.8500 C.ar    1  UNL1       -0.0255
      4 C         -25.8041   -1.0324   30.0571 C.ar    1  UNL1       -0.0215
      5 C         -26.5373   -1.0386   31.2171 C.ar    1  UNL1        0.0023
      6 C         -27.8843   -0.9532   31.1862 C.ar    1  UNL1        0.0795
      7 C         -24.3555   -1.1121   30.0346 C.3     1  UNL1        0.0523
      8 C         -23.6610    0.1027   29.8448 C.ar    1  UNL1       -0.0178
      9 C         -23.9525    1.2330   30.4520 C.ar    1  UNL1       -0.0035
     10 C         -22.5070    0.1052   28.9319 C.ar    1  UNL1       -0.0039
     11 C         -22.0627    1.2509   28.2955 C.ar    1  UNL1       -0.0003
     12 C         -25.0897    1.3304   31.4027 C.ar    1  UNL1        0.0040
     13 C         -25.3876    2.7027   31.9204 C.ar    1  UNL1        0.0494
     14 C         -22.8500    2.4609   28.4434 C.ar    1  UNL1        0.0000
     15 C         -23.7132    2.4973   29.6238 C.ar    1  UNL1        0.0010
     16 C         -25.7552   -0.7533   27.5682 C.3     1  UNL1        0.0307
     17 C         -25.1572    3.6735   31.3091 C.ar    1  UNL1        0.0733
     18 C         -24.3094    3.7284   30.1402 C.ar    1  UNL1        0.0166
     19 C         -28.7439   -1.0022   32.4283 C.2     1  UNL1        0.3877
     20 O         -29.2395   -1.9400   32.7900 O.co2   1  UNL1       -0.2406
     21 O         -29.0477    0.2463   32.9114 O.co2   1  UNL1       -0.2406
     22 C         -26.3548    2.6249   33.1352 C.ar    1  UNL1        0.1454
     23 N         -26.6487    1.8590   33.7912 N.ar    1  UNL1       -0.2251
     24 C         -27.0290    1.8994   35.0400 C.ar    1  UNL1        0.1192
     25 C         -27.2984    3.2480   35.3666 C.ar    1  UNL1        0.0982
     26 N         -26.5079    3.9135   33.8282 N.ar    1  UNL1       -0.3059
     27 C         -26.5325    5.1871   33.7044 C.3     1  UNL1        0.1355
     28 C         -27.0667    5.6860   32.8687 C.ar    1  UNL1        0.0157
     29 C         -27.7114    6.5162   32.8179 C.ar    1  UNL1       -0.0011
     30 C         -28.4406    7.0041   31.6432 C.ar    1  UNL1       -0.0002
     31 C         -28.1246    6.4608   30.4602 C.ar    1  UNL1        0.0013
     32 C         -27.2059    5.4977   30.3829 C.ar    1  UNL1        0.0162
     33 C         -26.6735    5.0321   31.5386 C.ar    1  UNL1        0.0683
     34 N         -25.9268    4.2513   31.5572 N.pl3   1  UNL1       -0.2126
@<TRIPOS>BOND
     1     4     7    1
     2     7     8    1
     3     3    16    1
     4     6    19    1
     5    19    20   ar
     6    19    21   ar
     7    13    22    1
     8    22    23   ar
     9    23    24   ar
    10    24    25   ar
    11    22    26   ar
    12    25    26   ar
    13    26    27    1
    14    17    34    1
    15    33    34    1
    16    27    28    1
    17     8     9   ar
    18    15    14   ar
    19    14    11   ar
    20    11    10   ar
    21    10     8   ar
    22     9    12   ar
    23    12    13   ar
    24    13    17   ar
    25    17    18   ar
    26    18    15   ar
    27    15     9   ar
    28     1     2   ar
    29     2     6   ar
    30     6     5   ar
    31     5     4   ar
    32     4     3   ar
    33     3     1   ar
    34    28    29   ar
    35    29    30   ar
    36    30    31   ar
    37    31    32   ar
    38    32    33   ar
    39    33    28   ar
