@<TRIPOS>MOLECULE
No_3241-gen_results/8p0m/2024-11-26-14-13-15/
 29 34 0 0 0
SMALL
GASTEIGER

@<TRIPOS>ATOM
      1 C         -28.0162   -0.8135   28.8779 C.ar    1  UNL1        0.0185
      2 C         -27.0636   -0.1190   28.6079 C.ar    1  UNL1        0.0268
      3 C         -26.9716    0.7139   27.5060 C.ar    1  UNL1       -0.0032
      4 C         -28.1053    0.7744   26.6421 C.ar    1  UNL1       -0.0067
      5 C         -29.2008    0.1044   27.0527 C.ar    1  UNL1        0.0662
      6 C         -29.2096   -0.6029   28.1853 C.ar    1  UNL1        0.0772
      7 N         -30.3077    0.2215   26.2218 N.am    1  UNL1       -0.2532
      8 C         -30.2379    0.2365   24.9221 C.2     1  UNL1        0.2300
      9 C         -29.1586    1.0085   24.4065 C.3     1  UNL1        0.0903
     10 C         -27.8868    1.0003   25.1879 C.3     1  UNL1        0.0372
     11 C         -31.6141   -0.3198   26.7214 C.3     1  UNL1        0.1262
     12 C         -31.9999    0.1921   27.8936 C.ar    1  UNL1        0.0141
     13 C         -33.0259    0.6483   28.0445 C.ar    1  UNL1       -0.0012
     14 C         -33.3810    1.3938   29.2259 C.ar    1  UNL1       -0.0002
     15 C         -32.5280    1.4340   30.3286 C.ar    1  UNL1        0.0015
     16 C         -31.3201    0.8333   30.2090 C.ar    1  UNL1        0.0174
     17 C         -30.9678    0.2749   28.9694 C.ar    1  UNL1        0.0617
     18 N         -29.7194   -0.1749   28.8716 N.ar    1  UNL1       -0.3040
     19 C         -29.3277   -0.0827   30.3616 C.ar    1  UNL1        0.0801
     20 C         -30.1398    0.2516   31.0492 C.ar    1  UNL1        0.0204
     21 O         -31.0259   -0.1640   24.1156 O.2     1  UNL1       -0.2745
     22 C         -25.7496   -0.1256   29.4820 C.3     1  UNL1        0.2449
     23 N         -25.3816   -0.8423   30.2105 N.3     1  UNL1       -0.2429
     24 F         -25.2884    1.0876   29.6600 F       1  UNL1       -0.2140
     25 C         -25.6271   -1.5839   30.9184 C.3     1  UNL1        0.0748
     26 C         -23.8761   -1.1452   29.7536 C.3     1  UNL1        0.0748
     27 C         -23.4312   -2.1406   29.1243 C.3     1  UNL1        0.0175
     28 C         -24.0899   -3.3651   29.5682 C.3     1  UNL1        0.0029
     29 C         -25.4263   -3.1448   30.2718 C.3     1  UNL1        0.0175
@<TRIPOS>BOND
     1     5     7    1
     2     7     8   am
     3     8     9    1
     4     4    10    1
     5     7    11    1
     6    11    12    1
     7     6    18    1
     8    17    18   ar
     9    18    19   ar
    10    16    20   ar
    11    19    20   ar
    12     8    21    2
    13     2    22    1
    14    22    23    1
    15    22    24    1
    16    23    25    1
    17    23    26    1
    18    26    27    1
    19    25    29    1
    20    28    29    1
    21    10     9    1
    22    28    27    1
    23     1     2   ar
    24     2     3   ar
    25     3     4   ar
    26     4     5   ar
    27     5     6   ar
    28     6     1   ar
    29    12    13   ar
    30    13    14   ar
    31    14    15   ar
    32    15    16   ar
    33    16    17   ar
    34    17    12   ar
