@<TRIPOS>MOLECULE
No_3242-gen_results/8p0m/2024-11-26-14-13-15/
 19 20 0 0 0
SMALL
GASTEIGER

@<TRIPOS>ATOM
      1 C         -28.0162   -0.8135   28.8779 C.3     1  UNL1        0.1633
      2 C         -27.0636   -0.1190   28.6079 C.ar    1  UNL1        0.0026
      3 C         -25.7647   -0.3897   29.0360 C.ar    1  UNL1       -0.0064
      4 C         -24.5516    0.4058   28.7646 C.ar    1  UNL1       -0.0162
      5 C         -24.6957    1.4480   27.7988 C.ar    1  UNL1        0.0511
      6 C         -26.0010    1.6784   27.2965 C.ar    1  UNL1        0.0040
      7 C         -27.0736    0.9682   27.6500 C.ar    1  UNL1       -0.0022
      8 N         -28.6562   -0.5986   30.0686 N.2     1  UNL1       -0.2072
      9 C         -28.4566    0.3656   30.7387 C.1     1  UNL1        0.0919
     10 N         -28.7161    0.8494   31.6658 N.2     1  UNL1       -0.2142
     11 C         -23.5233    2.2203   27.4830 C.2     1  UNL1        0.2645
     12 N         -22.3373    1.7157   27.7449 N.am    1  UNL1       -0.2013
     13 C         -22.1619    0.7363   28.7110 C.3     1  UNL1        0.1201
     14 C         -23.2317   -0.0056   29.1618 C.3     1  UNL1        0.0499
     15 O         -23.5981    3.1985   26.6778 O.2     1  UNL1       -0.2684
     16 C         -28.2277    2.1317   32.1290 C.3     1  UNL1        0.1140
     17 C         -28.3582    2.9546   32.9031 C.3     1  UNL1        0.0271
     18 C         -26.9679    2.2799   31.2567 C.3     1  UNL1        0.0251
     19 C         -26.1193    3.4820   31.4250 C.3     1  UNL1        0.0021
@<TRIPOS>BOND
     1     1     8    1
     2     8     9    2
     3     9    10    2
     4     5    11    1
     5    11    12   am
     6     4    14    1
     7    13    14    1
     8    11    15    2
     9    10    16    1
    10    16    17    1
    11    16    18    1
    12    18    19    1
    13     1     2    1
    14    13    12    1
    15     2     3   ar
    16     3     4   ar
    17     4     5   ar
    18     5     6   ar
    19     6     7   ar
    20     7     2   ar
