@<TRIPOS>MOLECULE
No_3243-gen_results/8p0m/2024-11-26-14-13-15/
 16 16 0 0 0
SMALL
GASTEIGER

@<TRIPOS>ATOM
      1 C         -28.0162   -0.8135   28.8779 C.ar    1  UNL1        0.0369
      2 C         -28.4690   -0.7850   29.8287 C.ar    1  UNL1        0.0780
      3 C         -26.5455   -0.8762   28.8500 C.ar    1  UNL1        0.1508
      4 C         -25.8041   -1.0324   30.0571 C.ar    1  UNL1        0.0850
      5 C         -26.5373   -1.0386   31.2171 C.ar    1  UNL1        0.0139
      6 C         -27.8843   -0.9532   31.1862 C.ar    1  UNL1        0.0075
      7 CL        -24.1391   -1.1177   30.0459 Cl      1  UNL1       -0.0799
      8 C         -30.0640   -0.7738   30.1217 C.2     1  UNL1        0.3435
      9 O         -30.6857   -0.0825   29.4286 O.3     1  UNL1       -0.4112
     10 O         -30.6249   -1.5342   30.9941 O.2     1  UNL1       -0.2448
     11 F         -25.7786   -0.8303   27.7131 F       1  UNL1       -0.2033
     12 C         -31.7966    0.2352   29.2932 C.3     1  UNL1        0.4120
     13 C         -32.2043    1.0589   28.3134 C.2     1  UNL1        0.3829
     14 O         -31.5315    1.9248   27.8738 O.2     1  UNL1       -0.2521
     15 F         -33.3627    0.8842   27.7301 F       1  UNL1       -0.1566
     16 O         -32.6705   -0.7458   29.5911 O.3     1  UNL1       -0.1626
@<TRIPOS>BOND
     1     4     7    1
     2     2     8    1
     3     8     9    1
     4     8    10    2
     5     3    11    1
     6     9    12    1
     7    12    13    1
     8    13    14    2
     9    13    15    1
    10    12    16    1
    11     1     2   ar
    12     2     6   ar
    13     6     5   ar
    14     5     4   ar
    15     4     3   ar
    16     3     1   ar
