@<TRIPOS>MOLECULE
No_3244-gen_results/8p0m/2024-11-26-14-13-15/
 23 25 0 0 0
SMALL
GASTEIGER

@<TRIPOS>ATOM
      1 C         -28.0162   -0.8135   28.8779 C.ar    1  UNL1        0.0023
      2 C         -28.4690   -0.7850   29.8287 C.ar    1  UNL1        0.0757
      3 C         -27.1356    0.2359   28.5352 C.ar    1  UNL1       -0.0192
      4 C         -26.3351    0.2900   27.2835 C.3     1  UNL1        0.0275
      5 C         -29.3807   -1.9134   30.3549 C.2     1  UNL1        0.3457
      6 C         -28.2295    0.3010   30.9036 C.ar    1  UNL1        0.0065
      7 C         -25.3800    1.2740   27.0672 C.3     1  UNL1        0.0238
      8 C         -27.4150    1.3108   30.6139 C.ar    1  UNL1        0.0027
      9 C         -26.7451    1.3177   29.4039 C.ar    1  UNL1        0.0313
     10 C         -25.1639    2.3202   27.9821 C.3     1  UNL1        0.1651
     11 C         -25.8103    2.3449   29.1044 C.2     1  UNL1        0.1831
     12 O         -28.9654   -2.9395   30.5158 O.2     1  UNL1       -0.2445
     13 O         -30.6694   -1.7062   30.2662 O.3     1  UNL1       -0.4210
     14 C         -24.1223    3.3274   27.5305 C.2     1  UNL1        0.3716
     15 O         -23.4119    3.1210   26.4428 O.co2   1  UNL1       -0.2452
     16 O         -24.2207    4.5703   27.9531 O.co2   1  UNL1       -0.2452
     17 O         -25.5814    3.3016   30.0635 O.2     1  UNL1       -0.2908
     18 C         -31.2737   -0.7209   30.1241 C.ar    1  UNL1        0.1488
     19 C         -32.5899   -0.7586   29.9384 C.ar    1  UNL1        0.0376
     20 C         -33.3723    0.4472   29.7388 C.ar    1  UNL1        0.0031
     21 C         -32.6818    1.6937   29.7365 C.ar    1  UNL1        0.0002
     22 C         -31.3170    1.7327   29.8807 C.ar    1  UNL1        0.0031
     23 C         -30.6583    0.6328   30.0461 C.ar    1  UNL1        0.0376
@<TRIPOS>BOND
     1     3     4    1
     2     2     5    1
     3     7    10    1
     4     9    11    1
     5    10    11    1
     6     5    12    2
     7     5    13    1
     8    10    14    1
     9    14    15   ar
    10    14    16   ar
    11    11    17    2
    12    13    18    1
    13     4     7    1
    14     1     2   ar
    15     2     6   ar
    16     6     8   ar
    17     8     9   ar
    18     9     3   ar
    19     3     1   ar
    20    18    19   ar
    21    19    20   ar
    22    20    21   ar
    23    21    22   ar
    24    22    23   ar
    25    23    18   ar
