@<TRIPOS>MOLECULE
No_3245-gen_results/8p0m/2024-11-26-14-13-15/
 26 30 0 0 0
SMALL
GASTEIGER

@<TRIPOS>ATOM
      1 C         -28.0162   -0.8135   28.8779 C.ar    1  UNL1        0.0114
      2 C         -27.0636   -0.1189   28.6079 C.ar    1  UNL1        0.0010
      3 C         -25.7923   -0.4302   29.0761 C.ar    1  UNL1        0.0038
      4 C         -24.5456    0.3494   28.8225 C.ar    1  UNL1        0.0462
      5 C         -24.6586    1.4196   27.8878 C.ar    1  UNL1        0.0853
      6 C         -25.9471    1.6811   27.3792 C.ar    1  UNL1        0.0178
      7 C         -27.0439    0.9739   27.6871 C.ar    1  UNL1        0.0015
      8 C         -28.0241   -1.6475   30.1262 C.ar    1  UNL1        0.0577
      9 C         -26.7278   -2.0846   30.5807 C.ar    1  UNL1        0.0114
     10 C         -25.5915   -1.4064   30.1489 C.ar    1  UNL1        0.0010
     11 N         -23.5241    2.1263   27.5429 N.ar    1  UNL1       -0.2239
     12 C         -22.2618    1.6476   27.8904 C.ar    1  UNL1        0.1996
     13 N         -22.1073    0.6978   28.7724 N.ar    1  UNL1       -0.2124
     14 C         -23.2079   -0.0534   29.2088 C.ar    1  UNL1        0.1415
     15 C         -28.3496    1.3115   27.0278 C.ar    1  UNL1        0.0000
     16 C         -28.3089    1.8759   25.8345 C.ar    1  UNL1        0.0000
     17 C         -27.1370    2.7445   25.5389 C.ar    1  UNL1        0.0000
     18 C         -25.9636    2.6188   26.2499 C.ar    1  UNL1        0.0015
     19 CL        -29.3537   -2.5621   30.5647 Cl      1  UNL1       -0.0822
     20 CL        -22.9142   -1.3482   30.2245 Cl      1  UNL1       -0.0612
     21 C         -29.4769    2.2297   25.0960 C.ar    1  UNL1        0.0000
     22 C         -30.1270    3.3044   25.3587 C.ar    1  UNL1        0.0000
     23 C         -31.3389    3.7145   24.6462 C.ar    1  UNL1        0.0000
     24 C         -31.7785    2.8711   23.6429 C.ar    1  UNL1        0.0000
     25 C         -29.8662    1.3822   24.0725 C.ar    1  UNL1        0.0000
     26 C         -31.0262    1.7083   23.3423 C.ar    1  UNL1        0.0000
@<TRIPOS>BOND
     1     8    19    1
     2    14    20    1
     3    16    21    1
     4     1     2   ar
     5     3    10   ar
     6    10     9   ar
     7     9     8   ar
     8     8     1   ar
     9    21    22   ar
    10    22    23   ar
    11    23    24   ar
    12    24    26   ar
    13    26    25   ar
    14    25    21   ar
    15     2     3   ar
    16     3     4   ar
    17     5     6   ar
    18     7     2   ar
    19     6     7   ar
    20     7    15   ar
    21    15    16   ar
    22    16    17   ar
    23    17    18   ar
    24    18     6   ar
    25     4     5   ar
    26     5    11   ar
    27    11    12   ar
    28    12    13   ar
    29    13    14   ar
    30    14     4   ar
