@<TRIPOS>MOLECULE
No_3246-gen_results/8p0m/2024-11-26-14-13-15/
 16 17 0 0 0
SMALL
GASTEIGER

@<TRIPOS>ATOM
      1 C         -28.0162   -0.8135   28.8779 C.ar    1  UNL1        0.0039
      2 C         -27.0636   -0.1189   28.6079 C.ar    1  UNL1       -0.0001
      3 C         -25.7923   -0.4302   29.0761 C.ar    1  UNL1       -0.0000
      4 C         -24.5456    0.3494   28.8225 C.ar    1  UNL1       -0.0000
      5 C         -23.2409    0.0217   29.3323 C.ar    1  UNL1       -0.0000
      6 C         -27.8820   -1.8995   29.8633 C.ar    1  UNL1        0.0714
      7 C         -26.6526   -2.3142   30.3138 C.ar    1  UNL1        0.0039
      8 C         -25.5153   -1.5607   29.9787 C.ar    1  UNL1       -0.0001
      9 C         -22.1645    0.7936   28.9524 C.ar    1  UNL1        0.0000
     10 C         -22.1241    1.7484   27.9889 C.ar    1  UNL1        0.0000
     11 C         -24.5235    1.3782   27.7946 C.ar    1  UNL1       -0.0000
     12 C         -23.3387    2.0417   27.4305 C.ar    1  UNL1        0.0000
     13 C         -29.1398   -2.5681   30.2783 C.3     1  UNL1        0.4186
     14 F         -30.1601   -2.1352   29.7583 F       1  UNL1       -0.1659
     15 F         -29.0230   -3.8990   30.1113 F       1  UNL1       -0.1659
     16 F         -29.1470   -2.4257   31.6714 F       1  UNL1       -0.1659
@<TRIPOS>BOND
     1     3     4    1
     2     6    13    1
     3    13    14    1
     4    13    15    1
     5    13    16    1
     6     1     2   ar
     7     2     3   ar
     8     3     8   ar
     9     8     7   ar
    10     7     6   ar
    11     6     1   ar
    12     4     5   ar
    13     5     9   ar
    14     9    10   ar
    15    10    12   ar
    16    12    11   ar
    17    11     4   ar
