@<TRIPOS>MOLECULE
No_3247-gen_results/8p0m/2024-11-26-14-13-15/
 20 21 0 0 0
SMALL
GASTEIGER

@<TRIPOS>ATOM
      1 C         -28.0162   -0.8135   28.8779 C.ar    1  UNL1        0.0000
      2 C         -28.4690   -0.7850   29.8287 C.ar    1  UNL1        0.0000
      3 C         -27.0871    0.2903   28.6377 C.ar    1  UNL1        0.0002
      4 C         -26.2516    0.4114   27.4223 C.ar    1  UNL1        0.0062
      5 C         -28.3141   -0.1267   30.7102 C.ar    1  UNL1        0.0000
      6 C         -27.4825    1.0076   30.8097 C.ar    1  UNL1        0.0000
      7 C         -26.7770    1.1718   29.6871 C.ar    1  UNL1        0.0000
      8 C         -24.9302    0.3522   27.6131 C.ar    1  UNL1        0.0002
      9 C         -24.0605    0.2065   26.5386 C.ar    1  UNL1        0.0000
     10 C         -26.8304    0.5255   26.1978 C.ar    1  UNL1        0.0757
     11 C         -26.0384    0.4611   25.0390 C.ar    1  UNL1        0.0064
     12 C         -24.6474    0.3637   25.2191 C.ar    1  UNL1        0.0002
     13 C         -28.2720    0.5332   26.0220 C.2     1  UNL1        0.3417
     14 O         -29.0176    1.1187   26.7201 O.2     1  UNL1       -0.2449
     15 O         -28.7427   -0.3585   25.0640 O.3     1  UNL1       -0.4331
     16 C         -29.8937   -0.0211   24.3863 C.3     1  UNL1        0.3170
     17 C         -30.9990   -0.1101   25.1989 C.2     1  UNL1        0.3623
     18 O         -31.3614   -0.9552   25.6316 O.2     1  UNL1       -0.2459
     19 O         -31.8437    0.9737   25.0286 O.3     1  UNL1       -0.4418
     20 C         -31.6565    2.0558   24.5981 C.3     1  UNL1        0.2557
@<TRIPOS>BOND
     1     3     4    1
     2    10    13    1
     3    13    14    2
     4    13    15    1
     5    15    16    1
     6    16    17    1
     7    17    18    2
     8    17    19    1
     9    19    20    1
    10     4     8   ar
    11     8     9   ar
    12     9    12   ar
    13    12    11   ar
    14    11    10   ar
    15    10     4   ar
    16     1     2   ar
    17     2     5   ar
    18     5     6   ar
    19     6     7   ar
    20     7     3   ar
    21     3     1   ar
