@<TRIPOS>MOLECULE
No_3248-gen_results/8p0m/2024-11-26-14-13-15/
 23 27 0 0 0
SMALL
GASTEIGER

@<TRIPOS>ATOM
      1 C         -28.0162   -0.8135   28.8779 C.3     1  UNL1        0.0536
      2 C         -27.0636   -0.1189   28.6079 C.ar    1  UNL1       -0.0032
      3 C         -27.0010    0.6913   27.4910 C.ar    1  UNL1       -0.0069
      4 C         -25.8548    1.4825   27.0830 C.ar    1  UNL1       -0.0224
      5 C         -24.6901    1.4526   27.8807 C.ar    1  UNL1       -0.0072
      6 C         -24.7379    0.6010   29.0416 C.ar    1  UNL1       -0.0058
      7 C         -25.8234   -0.1688   29.3887 C.ar    1  UNL1        0.0625
      8 C         -29.2455   -0.0678   29.1937 C.2     1  UNL1       -0.0213
      9 C         -29.5938    0.1182   30.4252 C.2     1  UNL1       -0.0029
     10 C         -28.6786   -0.0141   31.4308 C.ar    1  UNL1        0.0149
     11 C         -28.9486   -0.0817   32.6749 C.ar    1  UNL1        0.0013
     12 C         -27.9042   -0.3023   33.6514 C.ar    1  UNL1        0.0001
     13 C         -26.5561   -0.4172   33.2558 C.ar    1  UNL1        0.0013
     14 C         -26.3120   -0.3869   31.9316 C.ar    1  UNL1        0.0165
     15 C         -27.2969   -0.1771   31.0244 C.ar    1  UNL1        0.0701
     16 N         -26.7266   -0.0934   29.8944 N.pl3   1  UNL1       -0.2169
     17 N         -26.3643    1.3917   30.0591 N.pl3   1  UNL1       -0.2339
     18 C         -25.5992    2.3262   30.3232 C.3     1  UNL1        0.1016
     19 C         -24.2660    1.6755   30.2793 C.3     1  UNL1        0.0495
     20 C         -27.5717    2.3120   29.6966 C.2     1  UNL1        0.0759
     21 C         -27.4657    3.5423   30.3399 C.2     1  UNL1       -0.0070
     22 C         -25.9554    3.6734   30.3060 C.3     1  UNL1        0.0493
     23 C         -25.8380    2.1803   25.8060 C.3     1  UNL1        0.0310
@<TRIPOS>BOND
     1     1     2    1
     2     1     8    1
     3     8     9    2
     4     9    10    1
     5     7    16    1
     6    15    16    1
     7    16    17    1
     8    17    18    1
     9     6    19    1
    10    18    19    1
    11    17    20    1
    12    20    21    2
    13    18    22    1
    14    21    22    1
    15     4    23    1
    16     2     3   ar
    17     3     4   ar
    18     4     5   ar
    19     5     6   ar
    20     6     7   ar
    21     7     2   ar
    22    10    11   ar
    23    11    12   ar
    24    12    13   ar
    25    13    14   ar
    26    14    15   ar
    27    15    10   ar
