@<TRIPOS>MOLECULE
No_3249-gen_results/8p0m/2024-11-26-14-13-15/
 26 29 0 0 0
SMALL
GASTEIGER

@<TRIPOS>ATOM
      1 C         -28.0162   -0.8135   28.8779 C.ar    1  UNL1        0.0030
      2 C         -27.0636   -0.1189   28.6079 C.ar    1  UNL1        0.0353
      3 C         -26.9716    0.7139   27.5060 C.ar    1  UNL1       -0.0152
      4 C         -28.1053    0.7744   26.6421 C.ar    1  UNL1        0.0007
      5 C         -29.2041    0.1179   27.0477 C.ar    1  UNL1        0.0536
      6 C         -29.2127   -0.6088   28.1281 C.ar    1  UNL1        0.0046
      7 C         -25.7106    1.4518   27.1380 C.3     1  UNL1        0.0448
      8 C         -24.6052    0.9253   27.6902 C.ar    1  UNL1       -0.0153
      9 C         -23.3376    1.6509   27.5494 C.ar    1  UNL1       -0.0039
     10 C         -22.1760    1.2277   28.2868 C.ar    1  UNL1       -0.0003
     11 C         -22.1814    0.0854   29.0261 C.ar    1  UNL1        0.0001
     12 C         -23.3607   -0.6935   29.1008 C.ar    1  UNL1        0.0029
     13 C         -24.5306   -0.2411   28.4874 C.ar    1  UNL1        0.0353
     14 C         -25.7150   -0.6112   29.1351 C.2     1  UNL1        0.1950
     15 C         -25.7732    2.6005   26.3017 C.3     1  UNL1        0.0094
     16 O         -25.7682   -1.4828   30.0763 O.2     1  UNL1       -0.2866
     17 C         -30.3550    0.4039   26.1187 C.2     1  UNL1        0.2528
     18 O         -31.3852    0.0559   26.3085 O.2     1  UNL1       -0.2696
     19 N         -29.9998    0.6956   24.7751 N.am    1  UNL1       -0.2534
     20 C         -30.9990    0.8332   23.7465 C.ar    1  UNL1        0.0542
     21 C         -28.9091   -0.0636   24.1301 C.3     1  UNL1        0.1203
     22 C         -32.0343    0.1043   23.5488 C.ar    1  UNL1        0.0149
     23 C         -31.0428    2.2086   23.1901 C.ar    1  UNL1        0.0149
     24 C         -32.0041    2.5338   22.2470 C.ar    1  UNL1        0.0013
     25 C         -33.0215    1.6041   21.9057 C.ar    1  UNL1        0.0001
     26 C         -32.9716    0.3637   22.5759 C.ar    1  UNL1        0.0013
@<TRIPOS>BOND
     1     3     7    1
     2     7     8    1
     3     2    14    1
     4    13    14    1
     5     7    15    1
     6    14    16    2
     7     5    17    1
     8    17    18    2
     9    17    19   am
    10    19    20    1
    11    19    21    1
    12     1     2   ar
    13     2     3   ar
    14     3     4   ar
    15     4     5   ar
    16     5     6   ar
    17     6     1   ar
    18     8     9   ar
    19     9    10   ar
    20    10    11   ar
    21    11    12   ar
    22    12    13   ar
    23    13     8   ar
    24    20    22   ar
    25    22    26   ar
    26    26    25   ar
    27    25    24   ar
    28    24    23   ar
    29    23    20   ar
