@<TRIPOS>MOLECULE
No_325-gen_results/8p0m/2024-11-26-14-13-15/
 27 29 0 0 0
SMALL
GASTEIGER

@<TRIPOS>ATOM
      1 C         -28.0162   -0.8135   28.8779 C.2     1  UNL1        0.0526
      2 C         -27.0636   -0.1190   28.6079 C.2     1  UNL1        0.0026
      3 C         -25.7647   -0.3897   29.0360 C.3     1  UNL1        0.1803
      4 C         -24.5516    0.4058   28.7646 C.3     1  UNL1        0.0481
      5 C         -24.6957    1.4480   27.7988 C.3     1  UNL1        0.0991
      6 C         -25.9755    1.7250   27.3077 C.3     1  UNL1        0.0240
      7 C         -27.0718    1.0134   27.6535 C.3     1  UNL1        0.1246
      8 C         -28.6043   -0.4743   30.2323 C.2     1  UNL1        0.2489
      9 N         -28.2472    0.2907   30.9004 N.am    1  UNL1       -0.2716
     10 O         -29.6448   -1.3787   30.5490 O.2     1  UNL1       -0.2699
     11 C         -28.8529    0.5816   32.2842 C.3     1  UNL1        0.0987
     12 C         -23.5008    2.2412   27.5186 C.3     1  UNL1        0.3976
     13 F         -23.7419    3.2620   26.8811 F       1  UNL1       -0.1701
     14 F         -22.7591    2.5556   28.5846 F       1  UNL1       -0.1701
     15 F         -22.5987    1.4692   26.7022 F       1  UNL1       -0.1701
     16 C         -28.3734    1.3554   27.0666 C.2     1  UNL1        0.3681
     17 O         -29.0754    2.0087   27.6316 O.co2   1  UNL1       -0.2453
     18 O         -28.6983    0.5570   25.9874 O.co2   1  UNL1       -0.2453
     19 F         -25.5187   -1.3777   29.8942 F       1  UNL1       -0.2328
     20 C         -28.7175    1.5615   32.7356 C.3     1  UNL1        0.0476
     21 C         -27.7107    2.6037   32.3430 C.ar    1  UNL1       -0.0228
     22 C         -27.1272    2.3458   31.0533 C.ar    1  UNL1       -0.0062
     23 C         -27.4661    1.3434   30.4725 C.3     1  UNL1        0.1201
     24 C         -26.2393    3.4911   30.6442 C.ar    1  UNL1       -0.0029
     25 C         -26.4926    4.8171   30.9960 C.ar    1  UNL1       -0.0003
     26 C         -26.7402    5.0289   32.2944 C.ar    1  UNL1       -0.0003
     27 C         -27.7778    4.0488   32.9528 C.ar    1  UNL1       -0.0045
@<TRIPOS>BOND
     1     1     2    2
     2     2     3    1
     3     3     4    1
     4     4     5    1
     5     5     6    1
     6     2     7    1
     7     6     7    1
     8     1     8    1
     9     8     9   am
    10     8    10    2
    11     9    11    1
    12     5    12    1
    13    12    13    1
    14    12    14    1
    15    12    15    1
    16     7    16    1
    17    16    17   ar
    18    16    18   ar
    19     3    19    1
    20    20    21    1
    21     9    23    1
    22    22    23    1
    23    11    20    1
    24    21    27   ar
    25    27    26   ar
    26    26    25   ar
    27    25    24   ar
    28    24    22   ar
    29    22    21   ar
