@<TRIPOS>MOLECULE
No_3250-gen_results/8p0m/2024-11-26-14-13-15/
 22 24 0 0 0
SMALL
GASTEIGER

@<TRIPOS>ATOM
      1 C         -28.0162   -0.8135   28.8779 C.ar    1  UNL1        0.1829
      2 C         -27.0636   -0.1189   28.6079 C.ar    1  UNL1        0.1752
      3 C         -25.7923   -0.4302   29.0761 C.ar    1  UNL1        0.0307
      4 C         -25.5756   -1.5654   29.9363 C.ar    1  UNL1        0.0033
      5 C         -26.7354   -2.3004   30.2173 C.ar    1  UNL1        0.0146
      6 C         -27.9184   -1.9537   29.7629 C.ar    1  UNL1        0.0944
      7 F         -27.1354    0.9934   27.8754 F       1  UNL1       -0.2009
      8 CL        -29.2641   -2.9086   30.2210 Cl      1  UNL1       -0.0790
      9 C         -24.5178    0.3609   28.7535 C.ar    1  UNL1        0.0045
     10 C         -23.3315    0.0050   29.3398 C.ar    1  UNL1        0.0002
     11 C         -22.2051    0.7990   29.0568 C.ar    1  UNL1        0.0023
     12 C         -22.1075    1.7111   28.0496 C.ar    1  UNL1        0.0296
     13 C         -23.2722    2.0291   27.3834 C.ar    1  UNL1        0.1401
     14 C         -24.4818    1.3513   27.7227 C.ar    1  UNL1        0.0297
     15 F         -23.3540    2.9436   26.4520 F       1  UNL1       -0.2042
     16 O         -29.3092   -0.5579   28.4936 O.3     1  UNL1       -0.4504
     17 C         -30.2560   -0.0716   29.2606 C.ar    1  UNL1        0.1454
     18 C         -30.8309    1.0708   28.6966 C.ar    1  UNL1        0.0375
     19 C         -31.7301    1.6523   29.4860 C.ar    1  UNL1        0.0031
     20 C         -32.2365    0.9387   30.4838 C.ar    1  UNL1        0.0002
     21 C         -31.7134   -0.1849   31.0212 C.ar    1  UNL1        0.0031
     22 C         -30.6671   -0.7001   30.3894 C.ar    1  UNL1        0.0375
@<TRIPOS>BOND
     1     2     7    1
     2     6     8    1
     3     3     9    1
     4    13    15    1
     5     1    16    1
     6    16    17    1
     7    17    18   ar
     8    18    19   ar
     9    19    20   ar
    10    20    21   ar
    11    21    22   ar
    12    22    17   ar
    13     1     2   ar
    14     2     3   ar
    15     3     4   ar
    16     4     5   ar
    17     5     6   ar
    18     6     1   ar
    19     9    10   ar
    20    10    11   ar
    21    11    12   ar
    22    12    13   ar
    23    13    14   ar
    24    14     9   ar
