@<TRIPOS>MOLECULE
No_3251-gen_results/8p0m/2024-11-26-14-13-15/
 26 28 0 0 0
SMALL
GASTEIGER

@<TRIPOS>ATOM
      1 C         -28.0162   -0.8135   28.8779 C.ar    1  UNL1        0.0255
      2 C         -28.4690   -0.7850   29.8287 C.ar    1  UNL1        0.1398
      3 C         -27.1356    0.2359   28.5352 C.ar    1  UNL1       -0.0170
      4 C         -26.8745    1.2825   29.3982 C.ar    1  UNL1       -0.0040
      5 C         -28.3613    0.1987   30.9244 C.ar    1  UNL1        0.0296
      6 C         -27.5277    1.2234   30.6356 C.ar    1  UNL1        0.0020
      7 C         -26.3987    0.2949   27.2279 C.3     1  UNL1        0.0633
      8 C         -25.0392    0.2356   27.3538 C.3     1  UNL1        0.0294
      9 C         -27.0287    0.3958   26.0087 C.3     1  UNL1        0.1875
     10 C         -28.3713    0.5360   25.8782 C.ar    1  UNL1        0.0104
     11 C         -29.1580    0.8966   26.9253 C.ar    1  UNL1        0.0049
     12 C         -30.5977    1.1279   26.5683 C.ar    1  UNL1        0.0795
     13 C         -30.9539    0.9813   25.2767 C.ar    1  UNL1        0.0066
     14 C         -28.8767    0.6546   24.6184 C.ar    1  UNL1       -0.0016
     15 C         -30.1539    0.8300   24.2796 C.ar    1  UNL1       -0.0000
     16 F         -26.3087    0.3258   24.9911 F       1  UNL1       -0.2321
     17 C         -24.1148    1.1494   27.9586 C.2     1  UNL1       -0.0260
     18 C         -23.1780    0.9759   28.6204 C.2     1  UNL1       -0.0049
     19 C         -22.3121    0.3475   28.6509 C.2     1  UNL1       -0.0049
     20 C         -21.9270   -0.5041   27.7914 C.2     1  UNL1       -0.0261
     21 C         -23.0760   -1.1883   27.3160 C.3     1  UNL1        0.0264
     22 C         -24.4100   -1.0440   27.1169 C.3     1  UNL1        0.0094
     23 C         -31.5900    1.4027   27.6822 C.2     1  UNL1        0.3877
     24 O         -31.5476    2.3454   28.4315 O.co2   1  UNL1       -0.2406
     25 O         -32.4566    0.4436   27.8495 O.co2   1  UNL1       -0.2406
     26 F         -29.4423   -1.7638   30.2391 F       1  UNL1       -0.2042
@<TRIPOS>BOND
     1     3     7    1
     2     7     8    1
     3     7     9    1
     4     9    10    1
     5     9    16    1
     6     8    17    1
     7    17    18    2
     8    18    19    1
     9    19    20    2
    10    20    21    1
    11     8    22    1
    12    21    22    1
    13    12    23    1
    14    23    24   ar
    15    23    25   ar
    16     2    26    1
    17    10    11   ar
    18    11    12   ar
    19    12    13   ar
    20    13    15   ar
    21    15    14   ar
    22    14    10   ar
    23     1     2   ar
    24     2     5   ar
    25     5     6   ar
    26     6     4   ar
    27     4     3   ar
    28     3     1   ar
