@<TRIPOS>MOLECULE
No_3252-gen_results/8p0m/2024-11-26-14-13-15/
 18 20 0 0 0
SMALL
GASTEIGER

@<TRIPOS>ATOM
      1 C         -28.0162   -0.8135   28.8779 C.3     1  UNL1        0.0526
      2 C         -27.0636   -0.1189   28.6079 C.ar    1  UNL1       -0.0178
      3 C         -25.7923   -0.4302   29.0761 C.ar    1  UNL1       -0.0039
      4 C         -24.5456    0.3494   28.8225 C.ar    1  UNL1        0.0005
      5 C         -24.6586    1.4196   27.8878 C.ar    1  UNL1        0.0106
      6 C         -25.9471    1.6811   27.3792 C.ar    1  UNL1        0.0005
      7 C         -27.1795    1.0029   27.7610 C.ar    1  UNL1       -0.0039
      8 C         -29.2216   -0.0607   29.3364 C.ar    1  UNL1       -0.0178
      9 C         -29.6467   -0.2631   30.4462 C.ar    1  UNL1       -0.0039
     10 C         -30.7856    0.5101   30.9250 C.ar    1  UNL1       -0.0003
     11 C         -31.4333    1.3118   30.0166 C.ar    1  UNL1       -0.0000
     12 C         -30.9467    1.4280   28.7635 C.ar    1  UNL1       -0.0003
     13 C         -29.8234    0.7519   28.3701 C.ar    1  UNL1       -0.0039
     14 C         -23.4897    2.1571   27.5672 C.ar    1  UNL1        0.0576
     15 CL        -23.5840    3.4156   26.6256 Cl      1  UNL1       -0.0822
     16 C         -22.1651    1.6714   27.9123 C.ar    1  UNL1        0.0114
     17 C         -22.0337    0.6286   28.8006 C.ar    1  UNL1        0.0009
     18 C         -23.2246   -0.1086   29.2083 C.ar    1  UNL1        0.0000
@<TRIPOS>BOND
     1     1     2    1
     2     1     8    1
     3    14    15    1
     4     2     3   ar
     5     3     4   ar
     6     5     6   ar
     7     6     7   ar
     8     7     2   ar
     9     8     9   ar
    10     9    10   ar
    11    10    11   ar
    12    11    12   ar
    13    12    13   ar
    14    13     8   ar
    15     4     5   ar
    16     5    14   ar
    17    14    16   ar
    18    16    17   ar
    19    17    18   ar
    20    18     4   ar
