@<TRIPOS>MOLECULE
No_3253-gen_results/8p0m/2024-11-26-14-13-15/
 14 14 0 0 0
SMALL
GASTEIGER

@<TRIPOS>ATOM
      1 C         -28.0162   -0.8135   28.8779 C.ar    1  UNL1        0.0001
      2 C         -27.0636   -0.1189   28.6079 C.ar    1  UNL1        0.0000
      3 C         -26.9716    0.7139   27.5060 C.ar    1  UNL1        0.0002
      4 C         -28.1053    0.7744   26.6421 C.ar    1  UNL1        0.0046
      5 C         -29.2041    0.1179   27.0477 C.ar    1  UNL1        0.0550
      6 C         -30.3488    0.2568   26.2203 C.2     1  UNL1        0.2648
      7 C         -29.1817   -0.6758   28.1173 C.ar    1  UNL1        0.0046
      8 N         -30.8575    1.2554   25.9148 N.am    1  UNL1       -0.1998
      9 O         -30.9580   -0.8365   25.7742 O.2     1  UNL1       -0.2684
     10 C         -32.0641    1.5235   25.0313 C.3     1  UNL1        0.1388
     11 C         -25.6869    1.4415   27.1380 C.2     1  UNL1        0.0017
     12 C         -24.5603    1.0333   27.7783 C.2     1  UNL1        0.0225
     13 C         -23.3968    1.8869   27.5833 C.2     1  UNL1        0.1221
     14 N         -22.2435    1.6298   28.3249 N.2     1  UNL1       -0.1464
@<TRIPOS>BOND
     1     5     6    1
     2     6     8   am
     3     6     9    2
     4     8    10    1
     5     3    11    1
     6    11    12    2
     7    12    13    1
     8    13    14    2
     9     1     2   ar
    10     2     3   ar
    11     3     4   ar
    12     4     5   ar
    13     5     7   ar
    14     7     1   ar
