@<TRIPOS>MOLECULE
No_3254-gen_results/8p0m/2024-11-26-14-13-15/
 18 19 0 0 0
SMALL
GASTEIGER

@<TRIPOS>ATOM
      1 C         -28.0162   -0.8135   28.8779 C.ar    1  UNL1       -0.0003
      2 C         -28.4690   -0.7850   29.8287 C.ar    1  UNL1       -0.0000
      3 C         -27.0871    0.2903   28.6377 C.ar    1  UNL1       -0.0040
      4 C         -26.2516    0.4114   27.4223 C.2     1  UNL1       -0.0005
      5 C         -28.3913    0.1041   30.9805 C.ar    1  UNL1       -0.0003
      6 C         -27.5332    1.1666   30.7866 C.ar    1  UNL1       -0.0043
      7 C         -26.8281    1.2557   29.6454 C.ar    1  UNL1       -0.0225
      8 C         -25.1383    0.6747   27.2309 C.2     1  UNL1       -0.0016
      9 C         -24.3156    0.8665   28.4421 C.2     1  UNL1        0.0087
     10 C         -23.3530    0.3539   28.6370 C.2     1  UNL1       -0.0019
     11 C         -22.3332    0.6856   29.7210 C.2     1  UNL1       -0.0021
     12 C         -23.0324    1.4709   30.6881 C.2     1  UNL1        0.0073
     13 C         -24.5955    1.7686   29.6399 C.3     1  UNL1        0.1596
     14 O         -24.8053    3.1638   29.5839 O.3     1  UNL1       -0.3448
     15 C         -26.4893    2.4758   29.3348 C.3     1  UNL1        0.0224
     16 C         -27.1011    3.7153   30.2301 C.3     1  UNL1        0.0047
     17 C         -24.8924    3.8054   30.7853 C.3     1  UNL1        0.1749
     18 C         -26.7027    2.9805   27.8903 C.3     1  UNL1        0.0047
@<TRIPOS>BOND
     1     3     4    1
     2     4     8    2
     3     8     9    1
     4     9    10    2
     5    10    11    1
     6    11    12    2
     7     9    13    1
     8    12    13    1
     9    13    14    1
    10     7    15    1
    11    15    16    1
    12    14    17    1
    13    15    18    1
    14     1     2   ar
    15     2     5   ar
    16     5     6   ar
    17     6     7   ar
    18     7     3   ar
    19     3     1   ar
