@<TRIPOS>MOLECULE
No_3255-gen_results/8p0m/2024-11-26-14-13-15/
 14 15 0 0 0
SMALL
GASTEIGER

@<TRIPOS>ATOM
      1 C         -28.0162   -0.8135   28.8779 C.ar    1  UNL1        0.0369
      2 C         -28.4690   -0.7850   29.8287 C.ar    1  UNL1        0.1391
      3 C         -26.5042   -0.7777   28.8766 C.ar    1  UNL1        0.0031
      4 C         -25.9500    0.1157   29.4052 C.ar    1  UNL1        0.0002
      5 C         -27.9964    0.1190   30.9527 C.ar    1  UNL1        0.0369
      6 C         -26.6037    0.4647   30.8030 C.ar    1  UNL1        0.0031
      7 O         -29.8344   -1.0426   30.0554 O.3     1  UNL1       -0.4706
      8 C         -30.1176   -2.2790   30.4707 C.3     1  UNL1        0.2320
      9 C         -31.0664   -2.4187   31.4474 C.ar    1  UNL1        0.0212
     10 C         -31.8126   -1.4823   31.7844 C.ar    1  UNL1       -0.0007
     11 C         -32.7650   -1.5727   32.8827 C.ar    1  UNL1       -0.0002
     12 C         -32.9491   -2.8017   33.4319 C.ar    1  UNL1       -0.0000
     13 C         -31.1814   -3.7049   32.1878 C.ar    1  UNL1       -0.0007
     14 C         -32.1251   -3.8522   33.1401 C.ar    1  UNL1       -0.0002
@<TRIPOS>BOND
     1     2     7    1
     2     7     8    1
     3     8     9    1
     4     1     2   ar
     5     2     5   ar
     6     5     6   ar
     7     6     4   ar
     8     4     3   ar
     9     3     1   ar
    10     9    10   ar
    11    10    11   ar
    12    11    12   ar
    13    12    14   ar
    14    14    13   ar
    15    13     9   ar
