@<TRIPOS>MOLECULE
No_3256-gen_results/8p0m/2024-11-26-14-13-15/
 14 15 0 0 0
SMALL
GASTEIGER

@<TRIPOS>ATOM
      1 O         -28.1229   -1.3353   28.4874 O.2     1  UNL1       -0.2684
      2 C         -27.0637   -0.8242   28.8687 C.2     1  UNL1        0.2645
      3 C         -26.4017   -0.0623   28.6224 C.ar    1  UNL1        0.0513
      4 N         -26.2652   -1.8674   29.7609 N.am    1  UNL1       -0.2013
      5 C         -25.0436    0.3924   29.0662 C.ar    1  UNL1       -0.0096
      6 C         -24.4695   -0.5141   30.0040 C.3     1  UNL1        0.0501
      7 C         -25.1312   -1.6601   30.2898 C.3     1  UNL1        0.1201
      8 C         -26.9035    1.1104   27.6616 C.ar    1  UNL1        0.0043
      9 C         -26.1394    1.6808   26.7897 C.ar    1  UNL1        0.0003
     10 C         -24.7356    2.0279   27.2474 C.ar    1  UNL1        0.0063
     11 C         -24.1388    1.1962   28.2386 C.ar    1  UNL1        0.0760
     12 C         -22.7457    1.4313   28.5753 C.2     1  UNL1        0.3874
     13 O         -22.2576    1.2002   29.6221 O.co2   1  UNL1       -0.2406
     14 O         -21.8779    1.4779   27.5164 O.co2   1  UNL1       -0.2406
@<TRIPOS>BOND
     1     1     2    2
     2     2     3    1
     3     2     4   am
     4     6     7    1
     5    11    12    1
     6    12    13   ar
     7    12    14   ar
     8     5     6    1
     9     7     4    1
    10     3     5   ar
    11     5    11   ar
    12    11    10   ar
    13    10     9   ar
    14     9     8   ar
    15     8     3   ar
