@<TRIPOS>MOLECULE
No_3258-gen_results/8p0m/2024-11-26-14-13-15/
 25 29 0 0 0
SMALL
GASTEIGER

@<TRIPOS>ATOM
      1 C         -28.0162   -0.8135   28.8779 C.ar    1  UNL1        0.0030
      2 C         -28.4690   -0.7850   29.8287 C.ar    1  UNL1       -0.0002
      3 C         -28.1816    0.4277   28.1134 C.ar    1  UNL1        0.0343
      4 C         -27.4498    0.6435   26.8500 C.ar    1  UNL1        0.1452
      5 C         -27.8596    1.4573   25.9076 C.ar    1  UNL1        0.0375
      6 C         -29.4263    0.1097   30.4178 C.ar    1  UNL1       -0.0039
      7 C         -29.6233    1.2198   29.7351 C.ar    1  UNL1       -0.0177
      8 C         -28.9609    1.4529   28.5513 C.ar    1  UNL1       -0.0007
      9 C         -28.7886    2.5164   26.2663 C.ar    1  UNL1        0.0031
     10 C         -29.3391    2.4434   27.6394 C.ar    1  UNL1       -0.0004
     11 O         -26.5696   -0.2826   26.3795 O.3     1  UNL1       -0.4535
     12 C         -25.1884    0.1971   26.4350 C.ar    1  UNL1        0.1461
     13 C         -24.4726    0.0449   27.6742 C.ar    1  UNL1        0.0489
     14 C         -23.4151    0.8491   27.9135 C.ar    1  UNL1        0.0607
     15 C         -22.8721    1.6849   26.8633 C.ar    1  UNL1        0.0116
     16 C         -23.6287    1.8864   25.7245 C.ar    1  UNL1        0.0040
     17 C         -24.8241    1.1714   25.5321 C.ar    1  UNL1        0.0375
     18 CL        -22.5362    0.6534   29.3730 Cl      1  UNL1       -0.0821
     19 C         -30.3059    3.5190   28.0579 C.ar    1  UNL1       -0.0037
     20 C         -30.7233    4.4889   27.2020 C.ar    1  UNL1       -0.0003
     21 C         -31.5886    5.4480   27.6142 C.ar    1  UNL1       -0.0000
     22 C         -32.1090    5.4187   28.8769 C.ar    1  UNL1       -0.0003
     23 C         -31.6799    4.4312   29.7379 C.ar    1  UNL1       -0.0039
     24 C         -30.7317    3.4697   29.3599 C.ar    1  UNL1       -0.0178
     25 C         -30.5314    2.2535   30.2374 C.3     1  UNL1        0.0526
@<TRIPOS>BOND
     1     4    11    1
     2    11    12    1
     3    14    18    1
     4    10    19    1
     5     7    25    1
     6    24    25    1
     7    12    13   ar
     8    13    14   ar
     9    14    15   ar
    10    15    16   ar
    11    16    17   ar
    12    17    12   ar
    13     3     4   ar
    14     4     5   ar
    15     5     9   ar
    16     9    10   ar
    17    10     8   ar
    18     1     2   ar
    19     2     6   ar
    20     6     7   ar
    21     7     8   ar
    22     8     3   ar
    23     3     1   ar
    24    19    20   ar
    25    20    21   ar
    26    21    22   ar
    27    22    23   ar
    28    23    24   ar
    29    24    19   ar
