@<TRIPOS>MOLECULE
No_3259-gen_results/8p0m/2024-11-26-14-13-15/
 29 31 0 0 0
SMALL
GASTEIGER

@<TRIPOS>ATOM
      1 C         -28.0162   -0.8135   28.8779 C.ar    1  UNL1        0.0026
      2 C         -28.4690   -0.7850   29.8287 C.ar    1  UNL1        0.0795
      3 C         -27.1356    0.2359   28.5352 C.ar    1  UNL1       -0.0179
      4 C         -26.8745    1.2825   29.3982 C.ar    1  UNL1       -0.0039
      5 C         -28.3613    0.1987   30.9244 C.ar    1  UNL1        0.0066
      6 C         -27.5277    1.2234   30.6356 C.ar    1  UNL1       -0.0001
      7 C         -26.3987    0.2949   27.2279 C.3     1  UNL1        0.0481
      8 C         -25.0392    0.2356   27.3538 C.2     1  UNL1       -0.0214
      9 C         -27.0287    0.3958   26.0087 C.3     1  UNL1        0.0304
     10 C         -28.3713    0.5360   25.8782 C.ar    1  UNL1       -0.0217
     11 C         -29.1580    0.8966   26.9253 C.ar    1  UNL1        0.0023
     12 C         -30.5977    1.1279   26.5683 C.ar    1  UNL1        0.0795
     13 C         -30.9538    0.9813   25.2767 C.ar    1  UNL1        0.0066
     14 C         -28.9522    0.5375   24.5882 C.ar    1  UNL1       -0.0043
     15 C         -30.1936    0.7615   24.2798 C.ar    1  UNL1       -0.0001
     16 C         -26.1597    0.3334   24.8719 C.3     1  UNL1        0.0053
     17 C         -24.2023    1.2576   26.9767 C.2     1  UNL1        0.0302
     18 C         -24.1012    1.5341   25.4937 C.3     1  UNL1        0.0266
     19 C         -25.1035    1.3377   24.6096 C.3     1  UNL1        0.0048
     20 C         -22.9635    2.4366   25.2187 C.3     1  UNL1        0.0048
     21 C         -31.5848    1.4677   27.6843 C.2     1  UNL1        0.3877
     22 O         -32.0544    0.6016   28.3527 O.co2   1  UNL1       -0.2406
     23 O         -31.4523    2.7328   28.1376 O.co2   1  UNL1       -0.2406
     24 C         -29.5000   -1.9067   30.3385 C.2     1  UNL1        0.3877
     25 O         -30.6855   -1.7560   30.1830 O.co2   1  UNL1       -0.2406
     26 O         -29.0567   -2.7762   31.1489 O.co2   1  UNL1       -0.2406
     27 C         -23.0634    1.6569   27.7884 C.2     1  UNL1        0.2799
     28 N         -23.1905    1.6377   29.1133 N.am    1  UNL1       -0.0840
     29 O         -22.0362    2.2140   27.3144 O.2     1  UNL1       -0.2670
@<TRIPOS>BOND
     1     3     7    1
     2     7     8    1
     3     7     9    1
     4     9    10    1
     5     9    16    1
     6     8    17    2
     7    17    18    1
     8    16    19    1
     9    18    19    1
    10    18    20    1
    11    12    21    1
    12    21    22   ar
    13    21    23   ar
    14     2    24    1
    15    24    25   ar
    16    24    26   ar
    17    17    27    1
    18    27    28   am
    19    27    29    2
    20    10    11   ar
    21    11    12   ar
    22    12    13   ar
    23    13    15   ar
    24    15    14   ar
    25    14    10   ar
    26     1     2   ar
    27     2     5   ar
    28     5     6   ar
    29     6     4   ar
    30     4     3   ar
    31     3     1   ar
