@<TRIPOS>MOLECULE
No_3261-gen_results/8p0m/2024-11-26-14-13-15/
 22 22 0 0 0
SMALL
GASTEIGER

@<TRIPOS>ATOM
      1 C         -28.0162   -0.8135   28.8779 C.ar    1  UNL1        0.0103
      2 C         -28.4690   -0.7850   29.8287 C.ar    1  UNL1        0.0759
      3 C         -28.1816    0.4277   28.1134 C.ar    1  UNL1        0.0719
      4 C         -28.9841    1.4155   28.5154 C.ar    1  UNL1        0.0113
      5 C         -29.3802    0.1384   30.4612 C.ar    1  UNL1        0.0139
      6 C         -29.5415    1.2736   29.7242 C.ar    1  UNL1        0.0836
      7 C         -27.4586    0.4934   26.7701 C.3     1  UNL1        0.4186
      8 F         -26.3677   -0.2536   26.7330 F       1  UNL1       -0.1659
      9 F         -27.0122    1.7725   26.4880 F       1  UNL1       -0.1659
     10 F         -28.2693    0.1668   25.7289 F       1  UNL1       -0.1659
     11 P         -30.6417    2.5399   30.3624 P.3     1  UNL1        0.4070
     12 O         -31.5451    2.9444   29.6149 O.2     1  UNL1       -0.2495
     13 O         -31.1939    1.8955   31.6882 O.3     1  UNL1       -0.1353
     14 O         -29.5591    3.5870   30.8077 O.3     1  UNL1       -0.1912
     15 CL        -28.5404    3.5878   31.8147 Cl      1  UNL1        0.0699
     16 C         -28.2870   -2.0850   30.7818 C.2     1  UNL1        0.3417
     17 O         -27.6441   -3.0117   30.4101 O.2     1  UNL1       -0.2449
     18 O         -29.1253   -2.1944   31.8093 O.3     1  UNL1       -0.4341
     19 C         -30.2039   -3.0696   31.7759 C.3     1  UNL1        0.3084
     20 C         -30.5740   -3.5747   33.0037 C.2     1  UNL1        0.3544
     21 O         -31.1092   -4.6380   33.0250 O.2     1  UNL1       -0.2550
     22 F         -30.2222   -3.0817   34.0862 F       1  UNL1       -0.1595
@<TRIPOS>BOND
     1     3     7    1
     2     7     8    1
     3     7     9    1
     4     7    10    1
     5     6    11    1
     6    11    12    2
     7    11    13    1
     8    11    14    1
     9    14    15    1
    10     2    16    1
    11    16    17    2
    12    16    18    1
    13    18    19    1
    14    19    20    1
    15    20    21    2
    16    20    22    1
    17     1     2   ar
    18     2     5   ar
    19     5     6   ar
    20     6     4   ar
    21     4     3   ar
    22     3     1   ar
