@<TRIPOS>MOLECULE
No_3262-gen_results/8p0m/2024-11-26-14-13-15/
 35 38 0 0 0
SMALL
GASTEIGER

@<TRIPOS>ATOM
      1 O         -28.1229   -1.3353   28.4874 O.2     1  UNL1       -0.2695
      2 C         -27.4806   -0.4044   28.7094 C.2     1  UNL1        0.2552
      3 C         -26.3804   -0.0867   27.9394 C.ar    1  UNL1        0.0540
      4 N         -27.8993    0.6459   29.6321 N.am    1  UNL1       -0.2185
      5 C         -26.3190    0.9178   27.1016 C.ar    1  UNL1        0.0044
      6 C         -25.2038    1.1966   26.2779 C.ar    1  UNL1        0.0001
      7 C         -23.9447    0.6962   26.7050 C.ar    1  UNL1        0.0000
      8 C         -23.9368   -0.1735   27.7893 C.ar    1  UNL1        0.0001
      9 C         -25.0682   -0.5827   28.4384 C.ar    1  UNL1        0.0045
     10 C         -29.0765    0.3969   30.4090 C.2     1  UNL1        0.2552
     11 C         -27.1168    1.7582   29.9063 C.3     1  UNL1        0.1280
     12 C         -26.6031    1.7943   31.2982 C.ar    1  UNL1       -0.0019
     13 C         -25.8795    1.1581   31.7228 C.ar    1  UNL1       -0.0026
     14 C         -25.4111    1.2546   33.1996 C.ar    1  UNL1       -0.0003
     15 C         -25.9854    2.2672   33.9246 C.ar    1  UNL1       -0.0000
     16 C         -27.2035    2.9307   32.1062 C.ar    1  UNL1       -0.0026
     17 C         -26.8496    3.1063   33.3738 C.ar    1  UNL1       -0.0003
     18 C         -29.0131   -0.3998   31.4797 C.ar    1  UNL1        0.0540
     19 C         -28.3728   -1.1705   31.8514 C.ar    1  UNL1        0.0045
     20 C         -28.4480   -2.0562   33.0713 C.ar    1  UNL1        0.0001
     21 C         -29.6128   -1.8679   33.8392 C.ar    1  UNL1        0.0000
     22 C         -30.5236   -0.8900   33.4395 C.ar    1  UNL1        0.0001
     23 C         -30.3357   -0.1068   32.3353 C.ar    1  UNL1        0.0045
     24 O         -30.0442    0.9876   29.8218 O.2     1  UNL1       -0.2695
     25 C         -27.4921    4.2029   34.1971 C.ar    1  UNL1        0.0002
     26 C         -28.5059    4.7476   33.8776 C.ar    1  UNL1        0.0000
     27 C         -29.1858    5.4219   34.2379 C.ar    1  UNL1        0.0002
     28 C         -28.7672    6.0930   35.5476 C.ar    1  UNL1        0.0066
     29 C         -27.5913    5.6444   36.0805 C.ar    1  UNL1        0.0798
     30 C         -26.9080    4.6834   35.4337 C.ar    1  UNL1        0.0066
     31 C         -27.0180    6.1955   37.3482 C.2     1  UNL1        0.3878
     32 O         -26.2828    5.7099   37.9512 O.co2   1  UNL1       -0.2406
     33 O         -27.6828    7.3432   37.8175 O.co2   1  UNL1       -0.2406
     34 C         -27.5742    1.4814   26.4657 C.2     1  UNL1        0.0001
     35 C         -28.0707    1.3022   25.4716 C.2     1  UNL1        0.0000
@<TRIPOS>BOND
     1     1     2    2
     2     2     3    1
     3     2     4   am
     4     4    10   am
     5     4    11    1
     6    11    12    1
     7    10    18    1
     8    10    24    2
     9    17    25    1
    10    29    31    1
    11    31    32   ar
    12    31    33   ar
    13     5    34    1
    14    34    35    2
    15    12    13   ar
    16    13    14   ar
    17    14    15   ar
    18    15    17   ar
    19    17    16   ar
    20    16    12   ar
    21     3     5   ar
    22     5     6   ar
    23     6     7   ar
    24     7     8   ar
    25     8     9   ar
    26     9     3   ar
    27    18    19   ar
    28    19    20   ar
    29    20    21   ar
    30    21    22   ar
    31    22    23   ar
    32    23    18   ar
    33    25    26   ar
    34    26    27   ar
    35    27    28   ar
    36    28    29   ar
    37    29    30   ar
    38    30    25   ar
