@<TRIPOS>MOLECULE
No_3263-gen_results/8p0m/2024-11-26-14-13-15/
 14 14 0 0 0
SMALL
GASTEIGER

@<TRIPOS>ATOM
      1 C         -28.0162   -0.8135   28.8779 C.ar    1  UNL1       -0.0000
      2 C         -28.4690   -0.7850   29.8287 C.ar    1  UNL1       -0.0000
      3 C         -27.1356    0.2359   28.5352 C.ar    1  UNL1       -0.0006
      4 C         -26.8050    1.0509   29.2763 C.ar    1  UNL1       -0.0000
      5 C         -28.2372    0.1503   30.9300 C.ar    1  UNL1       -0.0000
      6 C         -27.3522    1.1239   30.6071 C.ar    1  UNL1       -0.0000
      7 C         -26.5755   -0.0057   27.1381 C.2     1  UNL1       -0.0083
      8 C         -25.9182    1.1915   26.5563 C.2     1  UNL1       -0.0388
      9 C         -25.2536    1.1067   25.3886 C.3     1  UNL1        0.0265
     10 C         -25.9919    2.4499   27.1773 C.3     1  UNL1        0.0852
     11 C         -26.7940    3.2045   26.9119 C.3     1  UNL1        0.0102
     12 C         -24.7078    2.7275   27.9224 C.3     1  UNL1        0.3220
     13 F         -23.7054    2.0479   27.8931 F       1  UNL1       -0.1981
     14 F         -24.6873    3.7411   28.7970 F       1  UNL1       -0.1981
@<TRIPOS>BOND
     1     3     7    1
     2     7     8    2
     3     8     9    1
     4     8    10    1
     5    10    11    1
     6    10    12    1
     7    12    13    1
     8    12    14    1
     9     1     2   ar
    10     2     5   ar
    11     5     6   ar
    12     6     4   ar
    13     4     3   ar
    14     3     1   ar
