@<TRIPOS>MOLECULE
No_3264-gen_results/8p0m/2024-11-26-14-13-15/
 18 19 0 0 0
SMALL
GASTEIGER

@<TRIPOS>ATOM
      1 C         -28.0162   -0.8135   28.8779 C.ar    1  UNL1        0.0296
      2 C         -27.0636   -0.1190   28.6079 C.ar    1  UNL1        0.0023
      3 C         -25.7923   -0.4302   29.0761 C.ar    1  UNL1        0.0003
      4 C         -25.5756   -1.5654   29.9363 C.ar    1  UNL1        0.0023
      5 C         -26.7354   -2.3004   30.2173 C.ar    1  UNL1        0.0296
      6 C         -27.9184   -1.9537   29.7629 C.ar    1  UNL1        0.1401
      7 F         -28.9649   -2.6957   30.0722 F       1  UNL1       -0.2042
      8 C         -24.6807    0.5315   28.7646 C.ar    1  UNL1        0.0062
      9 C         -24.6691    1.7998   29.3181 C.ar    1  UNL1        0.0760
     10 C         -23.8203    2.7514   28.7206 C.ar    1  UNL1        0.0065
     11 C         -22.8504    2.3651   27.7446 C.ar    1  UNL1        0.0002
     12 C         -22.8069    1.0502   27.3046 C.ar    1  UNL1        0.0000
     13 C         -23.7367    0.1666   27.7362 C.ar    1  UNL1        0.0002
     14 C         -25.5789    2.2584   30.3261 C.2     1  UNL1        0.3458
     15 O         -25.2225    2.1709   31.4282 O.2     1  UNL1       -0.2445
     16 O         -26.5279    3.0045   29.9911 O.3     1  UNL1       -0.4179
     17 C         -27.2328    3.7614   30.8041 C.2     1  UNL1        0.1832
     18 C         -27.5971    3.3354   31.8189 C.2     1  UNL1        0.0440
@<TRIPOS>BOND
     1     6     7    1
     2     3     8    1
     3     9    14    1
     4    14    15    2
     5    14    16    1
     6    16    17    1
     7    17    18    2
     8     1     2   ar
     9     2     3   ar
    10     3     4   ar
    11     4     5   ar
    12     5     6   ar
    13     6     1   ar
    14     8     9   ar
    15     9    10   ar
    16    10    11   ar
    17    11    12   ar
    18    12    13   ar
    19    13     8   ar
