@<TRIPOS>MOLECULE
No_3265-gen_results/8p0m/2024-11-26-14-13-15/
 35 37 0 0 0
SMALL
GASTEIGER

@<TRIPOS>ATOM
      1 C         -28.0162   -0.8135   28.8779 C.3     1  UNL1        0.0689
      2 C         -27.0636   -0.1189   28.6079 C.ar    1  UNL1       -0.0147
      3 C         -26.9716    0.7139   27.5060 C.ar    1  UNL1        0.0517
      4 C         -25.8206    1.4910   27.1160 C.ar    1  UNL1        0.0084
      5 C         -24.8580    1.3421   27.6008 C.ar    1  UNL1        0.0332
      6 C         -23.5687    2.1107   27.3209 C.ar    1  UNL1        0.1479
      7 N         -23.7824    2.7538   26.1406 N.ar    1  UNL1       -0.2277
      8 C         -25.6694   -0.2406   29.2437 C.ar    1  UNL1       -0.0039
      9 C         -24.5790    0.4894   28.8423 C.ar    1  UNL1        0.0025
     10 N         -22.3678    1.9660   27.8353 N.pl3   1  UNL1       -0.2081
     11 C         -27.9891   -1.2771   30.3479 C.3     1  UNL1        0.2333
     12 C         -29.1396   -1.9759   30.8386 C.2     1  UNL1        0.2722
     13 N         -28.9899   -2.7447   31.8142 N.am    1  UNL1       -0.2033
     14 O         -30.2668   -1.8494   30.3387 O.2     1  UNL1       -0.2706
     15 C         -30.0981   -3.6311   32.3817 C.3     1  UNL1        0.1156
     16 O         -26.8097   -2.0702   30.6545 O.3     1  UNL1       -0.2128
     17 C         -28.2565    0.8645   26.7375 C.2     1  UNL1        0.2687
     18 O         -28.3710    0.7029   25.5724 O.2     1  UNL1       -0.2680
     19 N         -29.2567    1.5722   27.3596 N.am    1  UNL1       -0.1755
     20 C         -30.5278    1.7778   26.7494 C.ar    1  UNL1        0.0737
     21 C         -21.4321    1.0929   27.9690 C.3     1  UNL1        0.2272
     22 C         -21.3819    0.2027   29.0653 C.2     1  UNL1        0.3865
     23 O         -21.9548    0.3421   30.1054 O.co2   1  UNL1       -0.2437
     24 O         -20.7809   -1.0010   28.8360 O.co2   1  UNL1       -0.2437
     25 C         -25.9460    2.3316   25.9615 C.ar    1  UNL1        0.0209
     26 C         -24.8823    3.0376   25.5476 C.ar    1  UNL1        0.1004
     27 C         -31.1900    2.6289   27.0971 C.ar    1  UNL1        0.0166
     28 C         -32.4695    2.9354   26.5011 C.ar    1  UNL1        0.0013
     29 C         -32.8718    2.1132   25.4087 C.ar    1  UNL1        0.0001
     30 C         -32.0315    1.0892   25.0100 C.ar    1  UNL1        0.0013
     31 C         -30.8589    0.8791   25.6656 C.ar    1  UNL1        0.0166
     32 C         -30.2424   -3.5591   33.5357 C.3     1  UNL1        0.0281
     33 C         -30.1084   -2.3549   34.1221 C.3     1  UNL1        0.0279
     34 C         -30.7104   -1.2862   33.6565 C.2     1  UNL1       -0.0261
     35 C         -30.1551   -0.0870   33.9038 C.2     1  UNL1       -0.0049
@<TRIPOS>BOND
     1     6    10    1
     2     1    11    1
     3    11    12    1
     4    12    13   am
     5    12    14    2
     6    13    15    1
     7    11    16    1
     8     3    17    1
     9    17    18    2
    10    17    19   am
    11    19    20    1
    12    10    21    1
    13    21    22    1
    14    22    23   ar
    15    22    24   ar
    16    15    32    1
    17    32    33    1
    18    33    34    1
    19    34    35    2
    20     1     2    1
    21     2     3   ar
    22     3     4   ar
    23     5     9   ar
    24     9     8   ar
    25     8     2   ar
    26    20    27   ar
    27    27    28   ar
    28    28    29   ar
    29    29    30   ar
    30    30    31   ar
    31    31    20   ar
    32     4     5   ar
    33     5     6   ar
    34     6     7   ar
    35     7    26   ar
    36    26    25   ar
    37    25     4   ar
