@<TRIPOS>MOLECULE
No_3266-gen_results/8p0m/2024-11-26-14-13-15/
 16 17 0 0 0
SMALL
GASTEIGER

@<TRIPOS>ATOM
      1 C         -28.0162   -0.8135   28.8779 C.ar    1  UNL1        0.0053
      2 C         -28.4690   -0.7850   29.8287 C.ar    1  UNL1        0.0715
      3 C         -28.1816    0.4277   28.1134 C.ar    1  UNL1        0.0176
      4 C         -28.9841    1.4155   28.5154 C.ar    1  UNL1        0.0015
      5 C         -28.3375   -2.0481   30.7873 C.3     1  UNL1        0.4186
      6 C         -29.5615    1.2930   29.7416 C.ar    1  UNL1       -0.0000
      7 C         -29.3196    0.1647   30.4451 C.ar    1  UNL1        0.0039
      8 F         -29.1342   -2.8864   30.7723 F       1  UNL1       -0.1659
      9 F         -28.1362   -1.6801   32.0666 F       1  UNL1       -0.1659
     10 F         -27.1068   -2.6499   30.4683 F       1  UNL1       -0.1659
     11 C         -27.4490    0.4946   26.7288 C.ar    1  UNL1        0.0813
     12 N         -28.1017    0.4468   25.6193 N.ar    1  UNL1       -0.2438
     13 C         -26.0075    0.5571   26.6802 C.ar    1  UNL1        0.0191
     14 C         -25.5458    0.7625   25.3645 C.ar    1  UNL1        0.0031
     15 C         -27.6166    0.4783   24.4249 C.ar    1  UNL1        0.0988
     16 C         -26.2293    0.6002   24.2442 C.ar    1  UNL1        0.0207
@<TRIPOS>BOND
     1     2     5    1
     2     5     8    1
     3     5     9    1
     4     5    10    1
     5     3    11    1
     6    11    12   ar
     7    12    15   ar
     8    15    16   ar
     9    16    14   ar
    10    14    13   ar
    11    13    11   ar
    12     1     2   ar
    13     2     7   ar
    14     7     6   ar
    15     6     4   ar
    16     4     3   ar
    17     3     1   ar
