@<TRIPOS>MOLECULE
No_3268-gen_results/8p0m/2024-11-26-14-13-15/
 34 38 0 0 0
SMALL
GASTEIGER

@<TRIPOS>ATOM
      1 C         -28.0162   -0.8135   28.8779 C.ar    1  UNL1       -0.0039
      2 C         -28.4690   -0.7850   29.8287 C.ar    1  UNL1       -0.0003
      3 C         -27.1356    0.2359   28.5352 C.ar    1  UNL1       -0.0180
      4 C         -26.8745    1.2825   29.3982 C.ar    1  UNL1       -0.0005
      5 C         -28.3613    0.1987   30.9244 C.ar    1  UNL1       -0.0000
      6 C         -27.5277    1.2234   30.6356 C.ar    1  UNL1       -0.0001
      7 C         -26.3987    0.2949   27.2279 C.3     1  UNL1        0.0486
      8 C         -25.0392    0.2356   27.3538 C.ar    1  UNL1       -0.0179
      9 C         -27.0287    0.3958   26.0087 C.3     1  UNL1        0.0304
     10 C         -28.3713    0.5360   25.8782 C.ar    1  UNL1       -0.0219
     11 C         -28.8860    0.5071   24.5687 C.ar    1  UNL1       -0.0043
     12 C         -30.2841    0.5712   24.3900 C.ar    1  UNL1       -0.0003
     13 C         -31.1106    0.6022   25.4906 C.ar    1  UNL1       -0.0000
     14 C         -30.6219    0.5694   26.7682 C.ar    1  UNL1       -0.0002
     15 C         -29.2916    0.5546   26.9892 C.ar    1  UNL1       -0.0043
     16 C         -26.1668    0.4589   24.8759 C.3     1  UNL1        0.0054
     17 C         -24.3948   -0.3287   28.4858 C.ar    1  UNL1       -0.0007
     18 C         -23.1212   -0.0263   28.8447 C.ar    1  UNL1        0.0417
     19 C         -22.3503    0.8498   28.0196 C.ar    1  UNL1        0.1957
     20 C         -22.9866    1.5106   26.9499 C.ar    1  UNL1        0.0417
     21 C         -24.3121    1.3294   26.7184 C.ar    1  UNL1       -0.0007
     22 C         -31.6241    0.6747   27.8989 C.ar    1  UNL1        0.0022
     23 C         -32.7638    1.2968   27.8903 C.ar    1  UNL1        0.0296
     24 C         -33.6062    1.3739   29.0153 C.ar    1  UNL1        0.1401
     25 C         -33.1975    0.7513   30.2113 C.ar    1  UNL1        0.0296
     26 C         -32.0022    0.0607   30.2499 C.ar    1  UNL1        0.0023
     27 C         -31.2038    0.0304   29.1969 C.ar    1  UNL1        0.0001
     28 O         -21.1019    1.1644   28.3113 O.3     1  UNL1       -0.2866
     29 C         -27.3664    2.3714   31.6066 C.ar    1  UNL1        0.0033
     30 C         -26.6686    3.1672   31.4780 C.ar    1  UNL1        0.0420
     31 C         -25.8910    3.4276   30.4471 C.ar    1  UNL1        0.1957
     32 C         -25.9557    2.4075   29.2523 C.ar    1  UNL1        0.0417
     33 O         -25.0230    4.4049   30.1577 O.3     1  UNL1       -0.2866
     34 F         -34.7593    2.0287   28.9254 F       1  UNL1       -0.2042
@<TRIPOS>BOND
     1     3     7    1
     2     7     8    1
     3     7     9    1
     4     9    10    1
     5     9    16    1
     6    14    22    1
     7    19    28    1
     8    31    33    1
     9    24    34    1
    10     6    29   ar
    11    29    30   ar
    12    30    31   ar
    13    31    32   ar
    14    32     4   ar
    15    22    23   ar
    16    23    24   ar
    17    24    25   ar
    18    25    26   ar
    19    26    27   ar
    20    27    22   ar
    21    10    11   ar
    22    11    12   ar
    23    12    13   ar
    24    13    14   ar
    25    14    15   ar
    26    15    10   ar
    27     8    17   ar
    28    17    18   ar
    29    18    19   ar
    30    19    20   ar
    31    20    21   ar
    32    21     8   ar
    33     1     2   ar
    34     2     5   ar
    35     5     6   ar
    36     6     4   ar
    37     4     3   ar
    38     3     1   ar
