@<TRIPOS>MOLECULE
No_3269-gen_results/8p0m/2024-11-26-14-13-15/
 15 16 0 0 0
SMALL
GASTEIGER

@<TRIPOS>ATOM
      1 O         -28.1229   -1.3353   28.4874 O.2     1  UNL1       -0.2733
      2 C         -27.0637   -0.8242   28.8687 C.2     1  UNL1        0.2414
      3 C         -25.9464   -1.0396   28.8492 C.3     1  UNL1        0.0876
      4 C         -24.7602   -0.1562   29.1644 C.3     1  UNL1        0.0208
      5 C         -23.3890   -0.4551   29.0162 C.3     1  UNL1        0.0722
      6 N         -27.3395    0.3834   29.7632 N.am    1  UNL1       -0.2054
      7 C         -26.4205    1.2770   30.1889 C.3     1  UNL1        0.1152
      8 C         -25.0644    1.0553   29.9319 C.3     1  UNL1        0.0246
      9 C         -22.5196    0.5596   28.4465 C.2     1  UNL1        0.0818
     10 C         -21.1273    0.2213   28.3366 C.2     1  UNL1        0.1011
     11 N         -20.8557   -1.0196   28.8246 N.2     1  UNL1       -0.2467
     12 C         -22.6092   -1.5737   29.3680 C.2     1  UNL1        0.0767
     13 C         -22.9209    1.9374   28.0563 C.2     1  UNL1        0.3857
     14 O         -23.8584    2.4910   28.4478 O.co2   1  UNL1       -0.2408
     15 O         -21.9220    2.6171   27.5241 O.co2   1  UNL1       -0.2408
@<TRIPOS>BOND
     1     1     2    2
     2     2     3    1
     3     3     4    1
     4     4     5    1
     5     2     6   am
     6     4     8    1
     7     7     8    1
     8     5     9    1
     9     9    10    2
    10    10    11    1
    11     5    12    1
    12    11    12    2
    13     9    13    1
    14    13    14   ar
    15    13    15   ar
    16     7     6    1
