@<TRIPOS>MOLECULE
No_3270-gen_results/8p0m/2024-11-26-14-13-15/
 27 29 0 0 0
SMALL
GASTEIGER

@<TRIPOS>ATOM
      1 C         -28.0162   -0.8135   28.8779 C.ar    1  UNL1        0.0114
      2 C         -28.4690   -0.7850   29.8287 C.ar    1  UNL1        0.0585
      3 C         -28.1960    0.3478   28.0550 C.ar    1  UNL1        0.0019
      4 C         -29.0191    1.3501   28.3782 C.ar    1  UNL1        0.0114
      5 C         -29.4107    0.1803   30.3782 C.ar    1  UNL1        0.0228
      6 C         -29.6059    1.2495   29.6193 C.ar    1  UNL1        0.0585
      7 C         -27.4598    0.3802   26.7091 C.ar    1  UNL1        0.0063
      8 C         -26.4659    1.4084   26.5648 C.ar    1  UNL1        0.0010
      9 C         -26.1328    2.2743   27.5481 C.ar    1  UNL1        0.0114
     10 C         -25.0443    3.1709   27.3110 C.ar    1  UNL1        0.0577
     11 C         -24.2528    2.9993   26.1703 C.ar    1  UNL1        0.0114
     12 C         -24.4149    1.9905   25.3348 C.ar    1  UNL1        0.0009
     13 C         -25.4977    1.1146   25.5111 C.ar    1  UNL1        0.0001
     14 CL        -30.5642    2.6375   29.9779 Cl      1  UNL1       -0.0822
     15 C         -25.8371   -0.0218   24.7882 C.ar    1  UNL1        0.0002
     16 C         -28.3200    0.5028   25.5700 C.ar    1  UNL1        0.0761
     17 C         -27.5047    0.1649   24.4016 C.ar    1  UNL1        0.0065
     18 C         -29.6284    0.6326   25.4744 C.2     1  UNL1        0.3481
     19 O         -30.1869    1.7612   25.5125 O.2     1  UNL1       -0.2444
     20 O         -30.3819   -0.4649   25.4379 O.3     1  UNL1       -0.3814
     21 CL        -28.3451   -2.1790   30.9934 Cl      1  UNL1       -0.0822
     22 CL        -24.7952    4.5398   28.3498 Cl      1  UNL1       -0.0822
     23 C         -31.7362   -0.4379   25.7111 C.2     1  UNL1        0.4290
     24 C         -32.1300   -1.6518   26.3217 C.2     1  UNL1        0.4626
     25 O         -33.0673   -1.8804   26.6882 O.co2   1  UNL1       -0.2332
     26 O         -31.2385   -2.6153   26.4394 O.co2   1  UNL1       -0.2332
     27 O         -32.4335    0.4654   25.5176 O.2     1  UNL1       -0.2369
@<TRIPOS>BOND
     1     3     7    1
     2     6    14    1
     3    16    18    1
     4    18    19    2
     5    18    20    1
     6     2    21    1
     7    10    22    1
     8    20    23    1
     9    23    24    1
    10    24    25   ar
    11    24    26   ar
    12    23    27    2
    13     8     9   ar
    14     9    10   ar
    15    10    11   ar
    16    11    12   ar
    17    12    13   ar
    18     1     2   ar
    19     2     5   ar
    20     5     6   ar
    21     6     4   ar
    22     4     3   ar
    23     3     1   ar
    24     7     8   ar
    25     8    13   ar
    26    13    15   ar
    27    15    17   ar
    28    17    16   ar
    29    16     7   ar
