@<TRIPOS>MOLECULE
No_3271-gen_results/8p0m/2024-11-26-14-13-15/
 19 21 0 0 0
SMALL
GASTEIGER

@<TRIPOS>ATOM
      1 C         -28.0162   -0.8135   28.8779 C.ar    1  UNL1        0.0015
      2 C         -28.4690   -0.7850   29.8287 C.ar    1  UNL1        0.0000
      3 C         -27.1356    0.2359   28.5352 C.ar    1  UNL1        0.0194
      4 C         -26.8745    1.2825   29.3982 C.ar    1  UNL1        0.0087
      5 C         -28.3613    0.1987   30.9244 C.ar    1  UNL1        0.0000
      6 C         -27.5277    1.2234   30.6356 C.ar    1  UNL1        0.0003
      7 C         -26.3879    0.2914   27.2334 C.ar    1  UNL1        0.1004
      8 N         -25.5573    1.3117   27.0292 N.ar    1  UNL1       -0.2258
      9 C         -25.3185    2.3151   27.9426 C.ar    1  UNL1        0.1740
     10 C         -25.9663    2.3298   29.1445 C.ar    1  UNL1        0.0883
     11 N         -24.4406    3.3144   27.5149 N.pl3   1  UNL1       -0.1071
     12 C         -25.6925    3.4589   30.0808 C.2     1  UNL1        0.2518
     13 O         -24.9697    3.2715   31.0073 O.2     1  UNL1       -0.2698
     14 N         -26.2890    4.6160   29.8449 N.am    1  UNL1       -0.2760
     15 C         -26.1370    5.7211   30.8029 C.3     1  UNL1        0.0937
     16 C         -27.2151    4.9165   28.7295 C.3     1  UNL1        0.0937
     17 C         -26.8272    6.5378   30.9031 C.3     1  UNL1        0.0216
     18 C         -28.1404    5.9543   28.9582 C.3     1  UNL1        0.0216
     19 C         -27.8460    6.9249   29.9292 C.3     1  UNL1        0.0035
@<TRIPOS>BOND
     1     9    11    1
     2    10    12    1
     3    12    13    2
     4    12    14   am
     5    14    15    1
     6    14    16    1
     7    17    19    1
     8    18    19    1
     9    15    17    1
    10    18    16    1
    11     4    10   ar
    12    10     9   ar
    13     9     8   ar
    14     8     7   ar
    15     7     3   ar
    16     1     2   ar
    17     2     5   ar
    18     5     6   ar
    19     6     4   ar
    20     4     3   ar
    21     3     1   ar
