@<TRIPOS>MOLECULE
No_3273-gen_results/8p0m/2024-11-26-14-13-15/
 12 13 0 0 0
SMALL
GASTEIGER

@<TRIPOS>ATOM
      1 C         -28.0162   -0.8135   28.8779 C.ar    1  UNL1        0.0000
      2 C         -27.0636   -0.1189   28.6079 C.ar    1  UNL1        0.0000
      3 C         -26.8756    1.1325   28.9134 C.ar    1  UNL1        0.0007
      4 C         -25.6883    1.9515   28.5672 C.ar    1  UNL1        0.0103
      5 C         -24.6394    1.2834   27.8753 C.ar    1  UNL1        0.0684
      6 C         -24.8181   -0.0802   27.6166 C.ar    1  UNL1        0.0103
      7 C         -25.9311   -0.7717   27.9696 C.ar    1  UNL1        0.0007
      8 C         -28.6536   -0.5272   30.2401 C.ar    1  UNL1        0.0000
      9 C         -28.8474    0.8243   30.5135 C.ar    1  UNL1        0.0000
     10 C         -27.6851    1.6562   30.0705 C.ar    1  UNL1        0.0000
     11 C         -23.4724    1.9593   27.3589 C.1     1  UNL1        0.1004
     12 N         -22.3289    2.4034   27.6621 N.1     1  UNL1       -0.1908
@<TRIPOS>BOND
     1     5    11    1
     2    11    12    3
     3     3     4   ar
     4     4     5   ar
     5     5     6   ar
     6     6     7   ar
     7     7     2   ar
     8     1     2   ar
     9     2     3   ar
    10     3    10   ar
    11    10     9   ar
    12     9     8   ar
    13     8     1   ar
