@<TRIPOS>MOLECULE
No_3275-gen_results/8p0m/2024-11-26-14-13-15/
 18 20 0 0 0
SMALL
GASTEIGER

@<TRIPOS>ATOM
      1 C         -28.0162   -0.8135   28.8779 C.ar    1  UNL1       -0.0013
      2 C         -27.0636   -0.1190   28.6079 C.ar    1  UNL1        0.0124
      3 C         -25.7923   -0.4302   29.0761 C.ar    1  UNL1       -0.0013
      4 C         -25.5756   -1.5654   29.9363 C.ar    1  UNL1       -0.0002
      5 C         -26.7354   -2.3004   30.2173 C.ar    1  UNL1       -0.0000
      6 C         -27.9184   -1.9537   29.7629 C.ar    1  UNL1       -0.0002
      7 C         -27.3243    1.0850   27.8190 C.3     1  UNL1        0.1716
      8 N         -27.6406    1.1118   26.7083 N.pl3   1  UNL1       -0.2924
      9 C         -27.9924   -0.0062   26.0870 C.2     1  UNL1        0.0579
     10 C         -28.7299    0.0426   25.2755 C.2     1  UNL1       -0.0086
     11 C         -27.9199    2.2568   25.9631 C.3     1  UNL1        0.0806
     12 C         -27.6161    3.5538   26.6011 C.3     1  UNL1        0.0491
     13 C         -28.7674    2.0032   24.9167 C.3     1  UNL1        0.0472
     14 N         -26.8276    2.1930   28.5081 N.3     1  UNL1       -0.1860
     15 CA        -27.0383    3.4755   27.8672 C.3     1  UNL1        0.1791
     16 C         -26.5426    4.6537   28.5747 C.2     1  UNL1        0.3804
     17 O         -27.0900    5.6260   28.4741 O.co2   1  UNL1       -0.2441
     18 OXT       -25.3844    4.4647   29.2732 O.co2   1  UNL1       -0.2441
@<TRIPOS>BOND
     1     2     7    1
     2     7     8    1
     3     8     9    1
     4     9    10    2
     5     8    11    1
     6    11    12    1
     7    10    13    1
     8    11    13    1
     9    12    15    1
    10    14    15    1
    11    15    16    1
    12    16    17   ar
    13    16    18   ar
    14     7    14    1
    15     1     2   ar
    16     2     3   ar
    17     3     4   ar
    18     4     5   ar
    19     5     6   ar
    20     6     1   ar
