@<TRIPOS>MOLECULE
No_3276-gen_results/8p0m/2024-11-26-14-13-15/
 21 23 0 0 0
SMALL
GASTEIGER

@<TRIPOS>ATOM
      1 C         -28.0162   -0.8135   28.8779 C.ar    1  UNL1       -0.0007
      2 C         -28.4690   -0.7850   29.8287 C.ar    1  UNL1        0.0102
      3 C         -26.5455   -0.8762   28.8500 C.ar    1  UNL1        0.0112
      4 C         -25.8041   -1.0324   30.0571 C.ar    1  UNL1        0.0577
      5 C         -27.9437   -0.9869   31.2075 C.ar    1  UNL1       -0.0007
      6 C         -26.5825   -1.0386   31.2231 C.ar    1  UNL1        0.0112
      7 C         -30.0279   -0.6588   29.6965 C.3     1  UNL1        0.1766
      8 N         -30.8399   -1.4373   30.1917 N.3     1  UNL1       -0.1485
      9 N         -30.4675    0.3585   28.9678 N.3     1  UNL1       -0.1485
     10 C         -31.7894    0.4675   28.7658 C.3     1  UNL1        0.3211
     11 C         -32.1482   -1.4185   30.0515 C.3     1  UNL1        0.3211
     12 N         -32.6324   -0.3739   29.2656 N.pl3   1  UNL1       -0.2270
     13 F         -32.2140    1.4548   28.0336 F       1  UNL1       -0.1938
     14 F         -32.8904   -2.3502   30.4284 F       1  UNL1       -0.1938
     15 CL        -24.1515   -1.1526   30.0843 Cl      1  UNL1       -0.0822
     16 C         -34.0822   -0.2995   29.0872 C.ar    1  UNL1        0.0543
     17 C         -34.5927    0.2016   28.3009 C.ar    1  UNL1        0.0147
     18 C         -36.0231    0.1511   28.1424 C.ar    1  UNL1        0.0013
     19 C         -36.6877   -0.6055   29.0971 C.ar    1  UNL1        0.0001
     20 C         -36.0238   -1.2555   30.0733 C.ar    1  UNL1        0.0013
     21 C         -34.7057   -1.1265   30.1407 C.ar    1  UNL1        0.0147
@<TRIPOS>BOND
     1     2     7    1
     2     7     9    1
     3     9    10    1
     4     8    11    1
     5    10    12    1
     6    11    12    1
     7    10    13    1
     8    11    14    1
     9     4    15    1
    10    12    16    1
    11     7     8    1
    12     1     2   ar
    13     2     5   ar
    14     5     6   ar
    15     6     4   ar
    16     4     3   ar
    17     3     1   ar
    18    16    17   ar
    19    17    18   ar
    20    18    19   ar
    21    19    20   ar
    22    20    21   ar
    23    21    16   ar
