@<TRIPOS>MOLECULE
No_3277-gen_results/8p0m/2024-11-26-14-13-15/
 25 26 0 0 0
SMALL
GASTEIGER

@<TRIPOS>ATOM
      1 C         -28.0162   -0.8135   28.8779 C.ar    1  UNL1        0.0104
      2 C         -28.4690   -0.7850   29.8287 C.ar    1  UNL1        0.0797
      3 C         -27.1356    0.2359   28.5352 C.ar    1  UNL1        0.0716
      4 C         -26.3351    0.2900   27.2835 C.3     1  UNL1        0.4186
      5 C         -28.2789    0.0305   30.6941 C.ar    1  UNL1        0.0066
      6 C         -27.4578    1.1551   30.6624 C.ar    1  UNL1        0.0001
      7 C         -26.7863    1.2369   29.4971 C.ar    1  UNL1        0.0038
      8 F         -25.3290   -0.1953   27.3993 F       1  UNL1       -0.1659
      9 F         -27.0525   -0.3722   26.2863 F       1  UNL1       -0.1659
     10 F         -25.7747    1.4011   26.8338 F       1  UNL1       -0.1659
     11 C         -29.4239   -2.0407   30.2022 C.2     1  UNL1        0.3877
     12 O         -30.0220   -1.9693   31.2023 O.co2   1  UNL1       -0.2406
     13 O         -29.3143   -3.1313   29.5977 O.co2   1  UNL1       -0.2406
     14 C         -27.2261    2.1444   31.6643 C.2     1  UNL1        0.0038
     15 C         -26.3714    2.9366   31.6048 C.2     1  UNL1        0.0714
     16 C         -26.0292    4.0397   32.5980 C.ar    1  UNL1        0.0039
     17 C         -24.9600    4.9914   32.4346 C.ar    1  UNL1       -0.0001
     18 C         -24.6889    6.0080   33.3364 C.ar    1  UNL1       -0.0000
     19 C         -25.4317    6.0797   34.5193 C.ar    1  UNL1       -0.0000
     20 C         -26.4392    5.1803   34.7101 C.ar    1  UNL1       -0.0000
     21 C         -26.7184    4.1669   33.8174 C.ar    1  UNL1       -0.0001
     22 C         -24.9641    2.4349   31.2919 C.3     1  UNL1        0.4186
     23 F         -24.7815    1.3133   31.5963 F       1  UNL1       -0.1659
     24 F         -24.7758    2.6356   29.9060 F       1  UNL1       -0.1659
     25 F         -23.8991    3.0406   31.8070 F       1  UNL1       -0.1659
@<TRIPOS>BOND
     1     3     4    1
     2     4     8    1
     3     4     9    1
     4     4    10    1
     5     2    11    1
     6    11    12   ar
     7    11    13   ar
     8     6    14    1
     9    14    15    2
    10    15    16    1
    11    15    22    1
    12    22    23    1
    13    22    24    1
    14    22    25    1
    15     1     2   ar
    16     2     5   ar
    17     5     6   ar
    18     6     7   ar
    19     7     3   ar
    20     3     1   ar
    21    16    17   ar
    22    17    18   ar
    23    18    19   ar
    24    19    20   ar
    25    20    21   ar
    26    21    16   ar
