@<TRIPOS>MOLECULE
No_3278-gen_results/8p0m/2024-11-26-14-13-15/
 19 21 0 0 0
SMALL
GASTEIGER

@<TRIPOS>ATOM
      1 C         -28.0162   -0.8135   28.8779 C.3     1  UNL1        0.0051
      2 C         -28.4690   -0.7850   29.8287 C.3     1  UNL1        0.0279
      3 C         -27.0871    0.2903   28.6377 C.3     1  UNL1        0.0050
      4 C         -26.0238    0.3644   29.2526 C.3     1  UNL1        0.0257
      5 C         -26.2460    0.4334   30.7986 C.2     1  UNL1       -0.0307
      6 C         -29.5736   -1.6268   30.3318 C.ar    1  UNL1       -0.0089
      7 C         -27.2659    0.3800   31.1362 C.2     1  UNL1       -0.0304
      8 C         -28.3466   -0.0995   30.6830 C.3     1  UNL1        0.0301
      9 C         -29.3264   -2.9077   30.4541 C.ar    1  UNL1       -0.0030
     10 C         -30.3181   -3.9268   30.2980 C.ar    1  UNL1       -0.0002
     11 C         -31.5777   -3.5344   30.0443 C.ar    1  UNL1        0.0012
     12 C         -30.9920   -1.5157   30.1410 C.ar    1  UNL1        0.0438
     13 N         -31.3342   -0.0539   30.0712 N.pl3   1  UNL1       -0.3077
     14 C         -31.9025   -2.3002   30.0730 C.ar    1  UNL1        0.0142
     15 C         -31.7236    0.6373   31.0667 C.3     1  UNL1        0.0908
     16 C         -32.0738    1.9842   30.8461 C.3     1  UNL1        0.0215
     17 C         -31.2741    0.6363   28.7609 C.3     1  UNL1        0.0908
     18 C         -31.5412    1.6170   28.6344 C.3     1  UNL1        0.0215
     19 C         -31.9783    2.5364   29.6446 C.3     1  UNL1        0.0035
@<TRIPOS>BOND
     1     1     2    1
     2     1     3    1
     3     3     4    1
     4     4     5    1
     5     2     6    1
     6     5     7    2
     7     2     8    1
     8     7     8    1
     9    12    13    1
    10    13    15    1
    11    13    17    1
    12    16    19    1
    13    18    19    1
    14    15    16    1
    15    18    17    1
    16     6     9   ar
    17     9    10   ar
    18    10    11   ar
    19    11    14   ar
    20    14    12   ar
    21    12     6   ar
