@<TRIPOS>MOLECULE
No_3279-gen_results/8p0m/2024-11-26-14-13-15/
 18 19 0 0 0
SMALL
GASTEIGER

@<TRIPOS>ATOM
      1 C         -28.0162   -0.8135   28.8779 C.3     1  UNL1        0.1550
      2 C         -27.0636   -0.1189   28.6079 C.3     1  UNL1        0.1819
      3 F         -27.0788    0.9846   29.1738 F       1  UNL1       -0.2304
      4 C         -26.7804    0.1060   27.1177 C.ar    1  UNL1        0.0114
      5 C         -25.7187   -0.8149   29.1546 C.ar    1  UNL1        0.0114
      6 C         -25.5905   -2.0965   29.3403 C.ar    1  UNL1       -0.0014
      7 C         -29.3045   -0.1785   28.9238 C.2     1  UNL1        0.3682
      8 O         -29.6618    0.5111   29.9463 O.co2   1  UNL1       -0.2455
      9 C         -24.3438   -2.6584   29.6278 C.ar    1  UNL1       -0.0002
     10 C         -23.2569   -1.8471   29.6576 C.ar    1  UNL1       -0.0000
     11 C         -24.3917   -0.1424   29.0948 C.ar    1  UNL1       -0.0014
     12 C         -23.2242   -0.5742   29.3504 C.ar    1  UNL1       -0.0002
     13 O         -30.0558   -0.3211   27.8981 O.co2   1  UNL1       -0.2455
     14 C         -27.7986    0.6988   26.3884 C.ar    1  UNL1       -0.0014
     15 C         -25.6115   -0.2690   26.4302 C.ar    1  UNL1       -0.0014
     16 C         -27.5693    0.9372   25.0306 C.ar    1  UNL1       -0.0002
     17 C         -25.4367    0.1378   25.0983 C.ar    1  UNL1       -0.0002
     18 C         -26.4186    0.6769   24.4114 C.ar    1  UNL1       -0.0000
@<TRIPOS>BOND
     1     1     2    1
     2     2     3    1
     3     2     4    1
     4     2     5    1
     5     1     7    1
     6     7     8   ar
     7     7    13   ar
     8     4    14   ar
     9    14    16   ar
    10    16    18   ar
    11    18    17   ar
    12    17    15   ar
    13    15     4   ar
    14     5     6   ar
    15     6     9   ar
    16     9    10   ar
    17    10    12   ar
    18    12    11   ar
    19    11     5   ar
