@<TRIPOS>MOLECULE
No_328-gen_results/8p0m/2024-11-26-14-13-15/
 11 10 0 0 0
SMALL
GASTEIGER

@<TRIPOS>ATOM
      1 F         -28.0727   -1.2542   28.5316 F       1  UNL1       -0.2027
      2 C         -27.3591   -0.3792   28.7224 C.3     1  UNL1        0.2815
      3 F         -26.3180   -0.6608   29.1159 F       1  UNL1       -0.2027
      4 C         -27.9301    0.6892   29.6024 C.3     1  UNL1        0.1755
      5 C         -27.1711    0.2908   27.2968 C.3     1  UNL1        0.0672
      6 N         -27.8424    0.4568   30.7825 N.3     1  UNL1       -0.1254
      7 C         -28.1671    0.6116   26.4881 C.3     1  UNL1        0.0060
      8 C         -25.7867    0.5066   26.8205 C.3     1  UNL1        0.0312
      9 C         -24.6728    0.3021   27.6311 C.2     1  UNL1       -0.0305
     10 C         -24.4954    0.2025   28.7010 C.2     1  UNL1       -0.0304
     11 C         -22.9850    0.3966   29.2336 C.3     1  UNL1        0.0303
@<TRIPOS>BOND
     1     1     2    1
     2     2     3    1
     3     2     4    1
     4     2     5    1
     5     4     6    1
     6     5     7    1
     7     5     8    1
     8     8     9    1
     9     9    10    2
    10    10    11    1
