@<TRIPOS>MOLECULE
No_3280-gen_results/8p0m/2024-11-26-14-13-15/
 10 10 0 0 0
SMALL
GASTEIGER

@<TRIPOS>ATOM
      1 O         -28.1229   -1.3353   28.4874 O.2     1  UNL1       -0.2684
      2 C         -27.0637   -0.8242   28.8687 C.2     1  UNL1        0.2648
      3 C         -26.4017   -0.0623   28.6224 C.ar    1  UNL1        0.0550
      4 N         -26.5721   -1.5844   30.1172 N.am    1  UNL1       -0.1998
      5 C         -26.6982    0.9644   27.6453 C.ar    1  UNL1        0.0046
      6 C         -25.7832    1.8129   27.0351 C.ar    1  UNL1        0.0001
      7 C         -24.4346    1.9091   27.5889 C.ar    1  UNL1        0.0000
      8 C         -24.0815    1.0037   28.5745 C.ar    1  UNL1        0.0001
      9 C         -24.9283    0.0868   29.0484 C.ar    1  UNL1        0.0046
     10 C         -27.3909   -2.7710   30.6241 C.3     1  UNL1        0.1388
@<TRIPOS>BOND
     1     1     2    2
     2     2     3    1
     3     2     4   am
     4     4    10    1
     5     3     5   ar
     6     5     6   ar
     7     6     7   ar
     8     7     8   ar
     9     8     9   ar
    10     9     3   ar
