@<TRIPOS>MOLECULE
No_3281-gen_results/8p0m/2024-11-26-14-13-15/
 35 38 0 0 0
SMALL
GASTEIGER

@<TRIPOS>ATOM
      1 C         -28.0162   -0.8135   28.8779 C.ar    1  UNL1       -0.0026
      2 C         -28.4690   -0.7850   29.8287 C.ar    1  UNL1       -0.0024
      3 C         -28.1960    0.3478   28.0550 C.ar    1  UNL1       -0.0003
      4 C         -29.0191    1.3501   28.3782 C.ar    1  UNL1       -0.0000
      5 C         -28.3170   -1.9812   30.8560 C.3     1  UNL1        0.1189
      6 C         -29.5950    1.2859   29.6049 C.ar    1  UNL1       -0.0003
      7 C         -29.3465    0.2093   30.3749 C.ar    1  UNL1       -0.0026
      8 N         -28.1267   -3.1188   30.3757 N.pl3   1  UNL1       -0.2881
      9 C         -27.0027   -3.4826   29.7808 C.ar    1  UNL1        0.1365
     10 C         -29.1386   -4.1853   30.3329 C.3     1  UNL1        0.1047
     11 N         -25.9366   -2.6844   29.7993 N.ar    1  UNL1       -0.1972
     12 C         -24.7270   -3.1381   29.2750 C.ar    1  UNL1        0.2420
     13 N         -24.6838   -4.3837   28.9197 N.ar    1  UNL1       -0.2105
     14 C         -26.6302   -4.8419   29.6771 C.ar    1  UNL1        0.0551
     15 C         -25.4854   -5.2587   29.1522 C.ar    1  UNL1        0.1048
     16 C         -29.6164   -4.4621   31.6738 C.3     1  UNL1        0.0890
     17 BR        -31.0240   -5.0385   31.6291 Br      1  UNL1       -0.0789
     18 N         -23.7403   -2.2013   29.0088 N.pl3   1  UNL1       -0.1776
     19 C         -23.8977   -0.9426   28.7249 C.ar    1  UNL1        0.0736
     20 C         -22.8363   -0.0157   28.9233 C.ar    1  UNL1        0.0163
     21 C         -22.9273    1.3184   28.4820 C.ar    1  UNL1       -0.0029
     22 C         -24.1110    1.7923   27.8600 C.ar    1  UNL1       -0.0218
     23 C         -25.1066    0.8496   27.6904 C.ar    1  UNL1       -0.0029
     24 C         -24.9763   -0.4639   28.0512 C.ar    1  UNL1        0.0163
     25 C         -24.2360    3.1764   27.4402 C.3     1  UNL1        0.0310
     26 C         -25.0493    4.0263   28.1816 C.3     1  UNL1        0.0310
     27 C         -25.6214    3.7125   29.3998 C.ar    1  UNL1       -0.0220
     28 C         -26.4299    4.6616   30.0684 C.ar    1  UNL1       -0.0043
     29 C         -27.0317    4.3528   31.3388 C.ar    1  UNL1       -0.0005
     30 C         -26.7828    3.0624   31.8427 C.ar    1  UNL1        0.0011
     31 C         -25.9940    2.1430   31.2419 C.ar    1  UNL1        0.0433
     32 C         -25.4080    2.4963   30.0005 C.ar    1  UNL1       -0.0031
     33 C         -25.7665    0.8544   31.8702 C.3     1  UNL1        0.3410
     34 F         -25.2532    0.0001   31.1196 F       1  UNL1       -0.1933
     35 F         -24.8779    1.0223   32.9294 F       1  UNL1       -0.1933
@<TRIPOS>BOND
     1     2     5    1
     2     5     8    1
     3     8     9    1
     4     8    10    1
     5    10    16    1
     6    16    17    1
     7    12    18    1
     8    18    19    1
     9    22    25    1
    10    25    26    1
    11    26    27    1
    12    31    33    1
    13    33    34    1
    14    33    35    1
    15    27    28   ar
    16    28    29   ar
    17    29    30   ar
    18    30    31   ar
    19    31    32   ar
    20    32    27   ar
    21     9    11   ar
    22    11    12   ar
    23    12    13   ar
    24    13    15   ar
    25    15    14   ar
    26    14     9   ar
    27    19    20   ar
    28    20    21   ar
    29    21    22   ar
    30    22    23   ar
    31    23    24   ar
    32    24    19   ar
    33     1     2   ar
    34     2     7   ar
    35     7     6   ar
    36     6     4   ar
    37     4     3   ar
    38     3     1   ar
