@<TRIPOS>MOLECULE
No_3283-gen_results/8p0m/2024-11-26-14-13-15/
 14 15 0 0 0
SMALL
GASTEIGER

@<TRIPOS>ATOM
      1 C         -28.0162   -0.8135   28.8779 C.ar    1  UNL1        0.0031
      2 C         -28.4690   -0.7850   29.8287 C.ar    1  UNL1        0.0002
      3 C         -26.5042   -0.7777   28.8766 C.ar    1  UNL1        0.0369
      4 C         -25.8103   -0.8531   30.1028 C.ar    1  UNL1        0.1391
      5 C         -27.9906   -0.8916   31.2257 C.ar    1  UNL1        0.0031
      6 C         -26.6042   -0.8676   31.2652 C.ar    1  UNL1        0.0369
      7 O         -24.5004   -0.7818   30.1446 O.3     1  UNL1       -0.4706
      8 C         -23.8455    0.2950   29.6103 C.3     1  UNL1        0.2320
      9 C         -23.7114    0.4342   28.3257 C.ar    1  UNL1        0.0212
     10 C         -23.2177    1.5105   27.9302 C.ar    1  UNL1       -0.0007
     11 C         -23.2808    1.8735   26.5774 C.ar    1  UNL1       -0.0002
     12 C         -24.1650    1.1490   25.7334 C.ar    1  UNL1       -0.0000
     13 C         -24.8762    0.1298   26.2519 C.ar    1  UNL1       -0.0002
     14 C         -24.7279   -0.2185   27.5655 C.ar    1  UNL1       -0.0007
@<TRIPOS>BOND
     1     4     7    1
     2     7     8    1
     3     8     9    1
     4     9    10   ar
     5    10    11   ar
     6    11    12   ar
     7    12    13   ar
     8    13    14   ar
     9    14     9   ar
    10     1     2   ar
    11     2     5   ar
    12     5     6   ar
    13     6     4   ar
    14     4     3   ar
    15     3     1   ar
