@<TRIPOS>MOLECULE
No_3284-gen_results/8p0m/2024-11-26-14-13-15/
 28 30 0 0 0
SMALL
GASTEIGER

@<TRIPOS>ATOM
      1 C         -28.0162   -0.8135   28.8779 C.ar    1  UNL1        0.0800
      2 C         -27.0636   -0.1190   28.6079 C.ar    1  UNL1        0.0066
      3 C         -26.9716    0.7139   27.5060 C.ar    1  UNL1        0.0006
      4 C         -28.1053    0.7744   26.6421 C.ar    1  UNL1        0.0066
      5 C         -29.2008    0.1044   27.0527 C.ar    1  UNL1        0.0800
      6 C         -28.0219   -1.5899   30.0879 C.2     1  UNL1        0.3878
      7 C         -29.1640   -0.6394   28.1484 C.ar    1  UNL1        0.0132
      8 O         -27.1149   -2.3777   30.3500 O.co2   1  UNL1       -0.2406
      9 O         -28.8356   -1.3561   31.0564 O.co2   1  UNL1       -0.2406
     10 C         -30.3679    0.2024   26.1540 C.2     1  UNL1        0.3878
     11 O         -31.2658   -0.4277   26.3170 O.co2   1  UNL1       -0.2406
     12 O         -30.5335    1.2260   25.3562 O.co2   1  UNL1       -0.2406
     13 C         -25.6947    1.4243   27.1165 C.ar    1  UNL1        0.0044
     14 C         -25.2682    2.4585   28.0003 C.ar    1  UNL1        0.0550
     15 C         -23.9756    3.0109   27.7196 C.ar    1  UNL1        0.0046
     16 C         -23.2426    2.4975   26.5966 C.ar    1  UNL1        0.0001
     17 C         -23.7509    1.4706   25.8477 C.ar    1  UNL1        0.0000
     18 C         -24.9600    0.9286   26.0721 C.ar    1  UNL1        0.0001
     19 C         -25.9654    3.0609   29.1053 C.2     1  UNL1        0.2651
     20 N         -27.0432    2.6746   29.4304 N.am    1  UNL1       -0.1968
     21 C         -27.7134    3.2115   30.5674 C.3     1  UNL1        0.1418
     22 O         -25.3979    4.1552   29.5658 O.2     1  UNL1       -0.2684
     23 C         -28.6583    3.9864   30.4636 C.ar    1  UNL1       -0.0006
     24 C         -29.3115    4.2536   29.2365 C.ar    1  UNL1       -0.0026
     25 C         -30.3829    5.1587   29.0738 C.ar    1  UNL1       -0.0003
     26 C         -30.8490    5.7682   30.1750 C.ar    1  UNL1       -0.0000
     27 C         -30.3462    5.5721   31.4188 C.ar    1  UNL1       -0.0003
     28 C         -29.2774    4.7018   31.6117 C.ar    1  UNL1       -0.0026
@<TRIPOS>BOND
     1     1     6    1
     2     6     8   ar
     3     6     9   ar
     4     5    10    1
     5    10    11   ar
     6    10    12   ar
     7     3    13    1
     8    14    19    1
     9    19    20   am
    10    20    21    1
    11    19    22    2
    12    21    23    1
    13    13    14   ar
    14    14    15   ar
    15    15    16   ar
    16    16    17   ar
    17    17    18   ar
    18    18    13   ar
    19     1     2   ar
    20     2     3   ar
    21     3     4   ar
    22     4     5   ar
    23     5     7   ar
    24     7     1   ar
    25    23    24   ar
    26    24    25   ar
    27    25    26   ar
    28    26    27   ar
    29    27    28   ar
    30    28    23   ar
