@<TRIPOS>MOLECULE
No_3285-gen_results/8p0m/2024-11-26-14-13-15/
 12 12 0 0 0
SMALL
GASTEIGER

@<TRIPOS>ATOM
      1 C         -28.0162   -0.8135   28.8779 C.2     1  UNL1        0.0777
      2 C         -27.0636   -0.1190   28.6079 C.2     1  UNL1       -0.0377
      3 C         -25.7647   -0.3897   29.0360 C.3     1  UNL1        0.0226
      4 C         -24.5516    0.4058   28.7646 C.3     1  UNL1        0.0104
      5 C         -24.6957    1.4480   27.7988 C.3     1  UNL1        0.0440
      6 C         -25.9755    1.7250   27.3077 C.3     1  UNL1        0.0104
      7 C         -27.0718    1.0134   27.6535 C.3     1  UNL1        0.0226
      8 C         -29.2099   -0.0501   29.3493 C.2     1  UNL1        0.3873
      9 O         -29.6363    0.6945   28.7664 O.co2   1  UNL1       -0.2406
     10 O         -29.7661   -0.5567   30.4761 O.co2   1  UNL1       -0.2406
     11 C         -23.5041    2.2343   27.5044 C.2     1  UNL1        0.0953
     12 N         -22.5483    1.9527   27.2977 N.2     1  UNL1       -0.1514
@<TRIPOS>BOND
     1     1     2    2
     2     2     3    1
     3     3     4    1
     4     4     5    1
     5     5     6    1
     6     2     7    1
     7     6     7    1
     8     1     8    1
     9     8     9   ar
    10     8    10   ar
    11     5    11    1
    12    11    12    2
