@<TRIPOS>MOLECULE
No_3286-gen_results/8p0m/2024-11-26-14-13-15/
 12 12 0 0 0
SMALL
GASTEIGER

@<TRIPOS>ATOM
      1 O         -28.1229   -1.3353   28.4874 O.2     1  UNL1       -0.2730
      2 C         -27.4806   -0.4044   28.7094 C.2     1  UNL1        0.2450
      3 C         -27.1904    0.2460   29.5268 C.3     1  UNL1        0.1007
      4 N         -26.6871   -0.0001   27.4423 N.am    1  UNL1       -0.2046
      5 C         -26.3501    1.4331   29.7418 C.3     1  UNL1        0.0266
      6 C         -25.8648    1.0936   27.4148 C.3     1  UNL1        0.1264
      7 C         -25.6589    1.8314   28.5720 C.3     1  UNL1        0.1258
      8 C         -24.7826    2.9683   28.5480 C.2     1  UNL1        0.3661
      9 O         -23.9503    3.1556   27.6719 O.co2   1  UNL1       -0.2456
     10 O         -25.1174    4.0501   29.2660 O.co2   1  UNL1       -0.2456
     11 C         -27.8908   -0.1071   30.9450 C.2     1  UNL1       -0.0173
     12 C         -28.8805   -0.9026   30.9279 C.2     1  UNL1       -0.0044
@<TRIPOS>BOND
     1     1     2    2
     2     2     3    1
     3     2     4   am
     4     4     6    1
     5     5     7    1
     6     6     7    1
     7     7     8    1
     8     8     9   ar
     9     8    10   ar
    10     3    11    1
    11    11    12    2
    12     3     5    1
