@<TRIPOS>MOLECULE
No_3287-gen_results/8p0m/2024-11-26-14-13-15/
 19 19 0 0 0
SMALL
GASTEIGER

@<TRIPOS>ATOM
      1 O         -28.1229   -1.3353   28.4874 O.2     1  UNL1       -0.2745
      2 C         -28.5208   -0.4363   29.0779 C.2     1  UNL1        0.2318
      3 C         -28.5894    0.5916   28.9464 C.3     1  UNL1        0.0904
      4 N         -28.7866   -0.8872   30.4874 N.am    1  UNL1       -0.2267
      5 C         -27.7841    1.2822   27.9869 C.3     1  UNL1        0.0359
      6 C         -27.2940    2.5462   27.9405 C.ar    1  UNL1       -0.0216
      7 C         -27.3399    3.2829   29.1341 C.ar    1  UNL1       -0.0034
      8 C         -26.8235    4.5867   29.1869 C.ar    1  UNL1        0.0111
      9 C         -26.1898    5.1210   28.0229 C.ar    1  UNL1        0.0577
     10 C         -26.0495    4.3434   26.8511 C.ar    1  UNL1        0.0111
     11 C         -26.5844    3.0705   26.8494 C.ar    1  UNL1       -0.0034
     12 C         -28.7485   -2.3036   30.9211 C.3     1  UNL1        0.1228
     13 CL        -25.4378    6.6953   28.0530 Cl      1  UNL1       -0.0822
     14 C         -29.3254    0.0043   31.5194 C.2     1  UNL1        0.2534
     15 O         -28.7533    0.3365   32.3060 O.2     1  UNL1       -0.2725
     16 C         -30.7193    0.3890   31.1658 C.3     1  UNL1        0.1973
     17 N         -30.9386    1.6228   31.4738 N.pl3   1  UNL1       -0.2265
     18 C         -31.6544    2.5033   30.7047 C.2     1  UNL1        0.0807
     19 C         -31.6891    3.9213   31.1034 C.2     1  UNL1        0.0188
@<TRIPOS>BOND
     1     1     2    2
     2     2     3    1
     3     2     4   am
     4     3     5    1
     5     4    12    1
     6     9    13    1
     7     4    14   am
     8    14    15    2
     9    14    16    1
    10    16    17    1
    11    17    18    1
    12    18    19    2
    13     5     6    1
    14     6     7   ar
    15     7     8   ar
    16     8     9   ar
    17     9    10   ar
    18    10    11   ar
    19    11     6   ar
