@<TRIPOS>MOLECULE
No_3288-gen_results/8p0m/2024-11-26-14-13-15/
 24 25 0 0 0
SMALL
GASTEIGER

@<TRIPOS>ATOM
      1 C         -28.0162   -0.8135   28.8779 C.2     1  UNL1        0.2495
      2 C         -27.0636   -0.1189   28.6079 C.ar    1  UNL1        0.0539
      3 C         -26.9287    1.1713   29.0083 C.ar    1  UNL1        0.0119
      4 C         -25.7702    2.0341   28.6884 C.ar    1  UNL1        0.0905
      5 C         -24.7141    1.4431   27.9188 C.ar    1  UNL1        0.0640
      6 C         -24.8590    0.0783   27.5836 C.ar    1  UNL1        0.0118
      7 C         -25.9647   -0.6606   27.9164 C.ar    1  UNL1        0.0054
      8 N         -27.9821   -1.6367   30.0748 N.am    1  UNL1       -0.2644
      9 O         -29.2163   -0.4132   28.6627 O.2     1  UNL1       -0.2699
     10 C         -29.0156   -2.4825   30.5856 C.3     1  UNL1        0.2047
     11 CL        -23.3343    2.2875   27.5163 Cl      1  UNL1       -0.0820
     12 C         -26.6535   -2.0472   30.6398 C.3     1  UNL1        0.1157
     13 C         -28.9320   -3.8212   30.2959 C.2     1  UNL1        0.3420
     14 O         -29.8390   -4.5824   30.6202 O.3     1  UNL1       -0.4229
     15 O         -27.9112   -4.3204   29.5727 O.2     1  UNL1       -0.2478
     16 C         -25.6273    3.4530   29.0865 C.2     1  UNL1        0.3886
     17 O         -25.7149    4.3171   28.1825 O.co2   1  UNL1       -0.2405
     18 O         -25.5517    3.7027   30.3591 O.co2   1  UNL1       -0.2405
     19 C         -31.0806   -4.3256   30.2230 C.ar    1  UNL1        0.1485
     20 C         -31.7794   -3.5556   30.3231 C.ar    1  UNL1        0.0376
     21 C         -31.4089   -5.4414   29.1262 C.ar    1  UNL1        0.0376
     22 C         -33.0869   -3.3811   29.7703 C.ar    1  UNL1        0.0031
     23 C         -32.6332   -5.3865   28.4951 C.ar    1  UNL1        0.0031
     24 C         -33.4947   -4.3596   28.8298 C.ar    1  UNL1        0.0002
@<TRIPOS>BOND
     1     1     2    1
     2     1     8   am
     3     1     9    2
     4     8    10    1
     5     5    11    1
     6     8    12    1
     7    10    13    1
     8    13    14    1
     9    13    15    2
    10     4    16    1
    11    16    17   ar
    12    16    18   ar
    13    14    19    1
    14    19    20   ar
    15    20    22   ar
    16    22    24   ar
    17    24    23   ar
    18    23    21   ar
    19    21    19   ar
    20     2     3   ar
    21     3     4   ar
    22     4     5   ar
    23     5     6   ar
    24     6     7   ar
    25     7     2   ar
