@<TRIPOS>MOLECULE
No_3289-gen_results/8p0m/2024-11-26-14-13-15/
 14 14 0 0 0
SMALL
GASTEIGER

@<TRIPOS>ATOM
      1 C         -28.0162   -0.8135   28.8779 C.ar    1  UNL1        0.0038
      2 C         -28.4690   -0.7850   29.8287 C.ar    1  UNL1       -0.0003
      3 C         -28.1960    0.3478   28.0550 C.ar    1  UNL1        0.0712
      4 C         -29.0191    1.3501   28.3782 C.ar    1  UNL1        0.0015
      5 C         -29.6249    1.2683   29.6012 C.ar    1  UNL1        0.0020
      6 C         -29.3821    0.1816   30.4004 C.ar    1  UNL1       -0.0024
      7 C         -27.4591    0.3787   26.7048 C.3     1  UNL1        0.4186
      8 F         -26.4838   -0.2522   26.6134 F       1  UNL1       -0.1659
      9 F         -28.3021   -0.0126   25.6776 F       1  UNL1       -0.1659
     10 F         -27.0256    1.6777   26.3475 F       1  UNL1       -0.1659
     11 C         -30.5294    2.2955   30.0937 C.3     1  UNL1        0.1515
     12 N         -30.3825    2.7891   31.1876 N.2     1  UNL1       -0.2687
     13 C         -30.2532    3.8795   31.6890 C.2     1  UNL1        0.0675
     14 C         -30.0981    4.2164   33.1186 C.3     1  UNL1        0.0529
@<TRIPOS>BOND
     1     3     7    1
     2     7     8    1
     3     7     9    1
     4     7    10    1
     5     5    11    1
     6    11    12    1
     7    12    13    2
     8    13    14    1
     9     1     2   ar
    10     2     6   ar
    11     6     5   ar
    12     5     4   ar
    13     4     3   ar
    14     3     1   ar
