@<TRIPOS>MOLECULE
No_329-gen_results/8p0m/2024-11-26-14-13-15/
 17 17 0 0 0
SMALL
GASTEIGER

@<TRIPOS>ATOM
      1 C         -28.0162   -0.8135   28.8779 C.ar    1  UNL1        0.0417
      2 C         -27.0636   -0.1189   28.6079 C.ar    1  UNL1       -0.0010
      3 C         -25.7923   -0.4302   29.0761 C.ar    1  UNL1       -0.0220
      4 C         -25.5756   -1.5654   29.9363 C.ar    1  UNL1       -0.0010
      5 C         -26.7354   -2.3004   30.2173 C.ar    1  UNL1        0.0417
      6 C         -27.9184   -1.9537   29.7629 C.ar    1  UNL1        0.1957
      7 O         -29.0001   -2.7012   30.1151 O.3     1  UNL1       -0.2866
      8 C         -24.5290    0.3490   28.7998 C.3     1  UNL1        0.0267
      9 C         -24.1172    1.3368   29.6649 C.3     1  UNL1        0.0084
     10 C         -24.8612    1.7921   30.6279 C.3     1  UNL1        0.0223
     11 C         -22.7711    1.8475   29.4070 C.3     1  UNL1        0.0007
     12 C         -24.8892    1.3954   31.7159 C.3     1  UNL1        0.0047
     13 C         -25.8317    2.7662   30.1088 C.2     1  UNL1       -0.0265
     14 C         -25.7047    3.6742   29.3174 C.2     1  UNL1       -0.0049
     15 C         -26.6778    4.6398   28.9145 C.2     1  UNL1       -0.0049
     16 C         -27.9111    4.4240   29.3945 C.2     1  UNL1       -0.0258
     17 C         -28.1888    3.4206   30.2918 C.3     1  UNL1        0.0307
@<TRIPOS>BOND
     1     6     7    1
     2     3     8    1
     3     8     9    1
     4     9    10    1
     5     9    11    1
     6    10    12    1
     7    10    13    1
     8    13    14    2
     9    14    15    1
    10    15    16    2
    11    16    17    1
    12     1     2   ar
    13     2     3   ar
    14     3     4   ar
    15     4     5   ar
    16     5     6   ar
    17     6     1   ar
