@<TRIPOS>MOLECULE
No_3290-gen_results/8p0m/2024-11-26-14-13-15/
 35 37 0 0 0
SMALL
GASTEIGER

@<TRIPOS>ATOM
      1 C         -28.0162   -0.8135   28.8779 C.3     1  UNL1        0.0653
      2 C         -27.0636   -0.1189   28.6079 C.ar    1  UNL1       -0.0190
      3 C         -25.7923   -0.4302   29.0761 C.ar    1  UNL1       -0.0040
      4 C         -24.5456    0.3494   28.8225 C.ar    1  UNL1        0.0043
      5 C         -24.6586    1.4196   27.8878 C.ar    1  UNL1        0.0566
      6 C         -25.9471    1.6811   27.3792 C.ar    1  UNL1        0.0043
      7 C         -27.0439    0.9739   27.6871 C.ar    1  UNL1       -0.0040
      8 C         -28.6597   -0.4600   30.2006 C.3     1  UNL1        0.1680
      9 C         -29.7497   -1.2486   30.6773 C.ar    1  UNL1        0.0094
     10 C         -23.4472    2.1466   27.5918 C.2     1  UNL1        0.2842
     11 N         -23.4743    3.1372   26.8115 N.am    1  UNL1       -0.0837
     12 O         -22.2874    1.7439   27.9660 O.2     1  UNL1       -0.2667
     13 C         -30.1923   -2.1841   29.8811 C.ar    1  UNL1        0.0030
     14 C         -31.3205   -2.9370   30.4471 C.ar    1  UNL1        0.0552
     15 C         -31.8230   -2.6617   31.6179 C.ar    1  UNL1        0.0046
     16 C         -31.3409   -1.6731   32.4317 C.ar    1  UNL1       -0.0001
     17 C         -30.2722   -0.9182   31.9851 C.ar    1  UNL1       -0.0016
     18 C         -28.9170    1.0396   30.4795 C.ar    1  UNL1        0.0094
     19 C         -29.7224    1.7912   29.7465 C.ar    1  UNL1        0.0030
     20 C         -29.8274    3.1330   30.0966 C.ar    1  UNL1        0.0548
     21 C         -28.4374    1.5069   31.7687 C.ar    1  UNL1       -0.0016
     22 C         -28.5162    2.8454   32.0641 C.ar    1  UNL1       -0.0001
     23 C         -29.2573    3.6748   31.2494 C.ar    1  UNL1        0.0045
     24 C         -30.6748    4.0232   29.2217 C.2     1  UNL1        0.2648
     25 N         -30.4910    5.1751   29.0740 N.am    1  UNL1       -0.1998
     26 O         -31.6205    3.4351   28.5985 O.2     1  UNL1       -0.2684
     27 C         -29.3937    5.9963   29.6476 C.3     1  UNL1        0.1388
     28 O         -27.5897   -0.7464   31.2464 O.3     1  UNL1       -0.2163
     29 C         -31.8490   -4.0083   29.5342 C.2     1  UNL1        0.2690
     30 O         -31.1895   -5.0456   29.3781 O.2     1  UNL1       -0.2680
     31 N         -33.1162   -4.0535   29.1904 N.am    1  UNL1       -0.1741
     32 C         -33.9826   -2.9059   29.2823 C.2     1  UNL1        0.0889
     33 C         -35.2522   -3.1255   28.9185 C.2     1  UNL1        0.0179
     34 C         -36.1586   -2.1268   28.9525 C.2     1  UNL1        0.0014
     35 C         -35.7457   -0.7996   29.4018 C.2     1  UNL1        0.0000
@<TRIPOS>BOND
     1     1     2    1
     2     1     8    1
     3     8     9    1
     4     5    10    1
     5    10    11   am
     6    10    12    2
     7     8    18    1
     8    20    24    1
     9    24    25   am
    10    24    26    2
    11    25    27    1
    12     8    28    1
    13    14    29    1
    14    29    30    2
    15    29    31   am
    16    31    32    1
    17    32    33    2
    18    33    34    1
    19    34    35    2
    20     2     3   ar
    21     3     4   ar
    22     4     5   ar
    23     5     6   ar
    24     6     7   ar
    25     7     2   ar
    26     9    13   ar
    27    13    14   ar
    28    14    15   ar
    29    15    16   ar
    30    16    17   ar
    31    17     9   ar
    32    18    19   ar
    33    19    20   ar
    34    20    23   ar
    35    23    22   ar
    36    22    21   ar
    37    21    18   ar
