@<TRIPOS>MOLECULE
No_3291-gen_results/8p0m/2024-11-26-14-13-15/
 20 22 0 0 0
SMALL
GASTEIGER

@<TRIPOS>ATOM
      1 C         -28.0162   -0.8135   28.8779 C.ar    1  UNL1        0.0066
      2 C         -27.0636   -0.1189   28.6079 C.ar    1  UNL1       -0.0001
      3 C         -27.0010    0.6913   27.4910 C.ar    1  UNL1       -0.0038
      4 C         -25.8548    1.4825   27.0830 C.ar    1  UNL1       -0.0003
      5 C         -25.8227    2.3296   25.9941 C.ar    1  UNL1       -0.0003
      6 C         -27.9874   -1.6326   30.1036 C.ar    1  UNL1        0.0798
      7 C         -26.7767   -1.8328   30.7473 C.ar    1  UNL1        0.0066
      8 C         -25.6300   -1.2164   30.3057 C.ar    1  UNL1        0.0002
      9 C         -25.7324   -0.3480   29.1642 C.ar    1  UNL1       -0.0000
     10 C         -26.9473    2.3496   25.1604 C.ar    1  UNL1       -0.0046
     11 C         -28.0269    1.5715   25.3671 C.ar    1  UNL1       -0.0253
     12 C         -28.0603    0.7622   26.4991 C.ar    1  UNL1       -0.0187
     13 C         -29.1706   -2.3707   30.5933 C.2     1  UNL1        0.3878
     14 O         -29.2001   -3.6044   30.6483 O.co2   1  UNL1       -0.2406
     15 O         -30.0778   -1.7488   31.1644 O.co2   1  UNL1       -0.2406
     16 C         -29.1591    1.6469   24.4801 C.3     1  UNL1        0.0338
     17 C         -29.8272    0.4805   24.4350 C.3     1  UNL1        0.0695
     18 C         -29.4871   -0.6501   25.1420 C.2     1  UNL1        0.1553
     19 C         -28.7497   -0.4872   26.3124 C.3     1  UNL1        0.0904
     20 O         -30.3109   -1.6899   25.0575 O.2     1  UNL1       -0.2957
@<TRIPOS>BOND
     1     6    13    1
     2    13    14   ar
     3    13    15   ar
     4    11    16    1
     5    17    18    1
     6    12    19    1
     7    18    19    1
     8    18    20    2
     9     2     3    1
    10    17    16    1
    11     3     4   ar
    12     4     5   ar
    13     5    10   ar
    14    10    11   ar
    15    11    12   ar
    16    12     3   ar
    17     1     2   ar
    18     2     9   ar
    19     9     8   ar
    20     8     7   ar
    21     7     6   ar
    22     6     1   ar
