@<TRIPOS>MOLECULE
No_3292-gen_results/8p0m/2024-11-26-14-13-15/
 35 37 0 0 0
SMALL
GASTEIGER

@<TRIPOS>ATOM
      1 C         -28.0162   -0.8135   28.8779 C.3     1  UNL1        0.1837
      2 C         -27.0636   -0.1190   28.6079 C.ar    1  UNL1        0.0424
      3 C         -27.0010    0.6913   27.4910 C.ar    1  UNL1        0.1472
      4 C         -25.8548    1.4825   27.0830 C.ar    1  UNL1        0.0412
      5 C         -24.6901    1.4526   27.8807 C.ar    1  UNL1        0.0506
      6 C         -24.7379    0.6010   29.0416 C.ar    1  UNL1        0.0038
      7 C         -25.8234   -0.1688   29.3887 C.ar    1  UNL1        0.0013
      8 CL        -28.1013   -1.8474   30.2999 Cl      1  UNL1       -0.0920
      9 C         -23.5174    2.2074   27.5644 C.2     1  UNL1        0.2417
     10 N         -22.5210    2.2085   28.3666 N.2     1  UNL1       -0.1156
     11 F         -23.4952    2.7743   26.4286 F       1  UNL1       -0.1815
     12 CL        -29.6201   -0.4873   28.3325 Cl      1  UNL1       -0.0920
     13 O         -28.0170    0.7683   26.6752 O.3     1  UNL1       -0.4213
     14 C         -28.0275    0.6022   25.4451 C.2     1  UNL1        0.3457
     15 C         -29.2044    0.2638   24.7892 C.ar    1  UNL1        0.0760
     16 C         -30.1568   -0.0369   25.5169 C.ar    1  UNL1        0.0065
     17 C         -31.3973   -0.6343   24.9747 C.ar    1  UNL1        0.0002
     18 C         -32.3988   -1.1992   25.8023 C.ar    1  UNL1        0.0000
     19 C         -33.2207   -2.0604   25.4076 C.ar    1  UNL1        0.0002
     20 C         -34.2122   -2.6630   26.2608 C.ar    1  UNL1        0.0065
     21 C         -34.1990   -2.2809   27.6094 C.ar    1  UNL1        0.0760
     22 C         -33.3177   -1.3617   28.0495 C.ar    1  UNL1        0.0065
     23 C         -32.3920   -0.8234   27.2045 C.ar    1  UNL1        0.0002
     24 O         -26.9509    0.7407   24.7518 O.2     1  UNL1       -0.2445
     25 C         -29.2900    0.1572   23.3696 C.ar    1  UNL1        0.0065
     26 C         -30.4337   -0.3694   22.9294 C.ar    1  UNL1        0.0002
     27 C         -31.4203   -0.8047   23.6621 C.ar    1  UNL1        0.0000
     28 C         -35.2675   -2.8855   28.4893 C.2     1  UNL1        0.3457
     29 O         -35.3970   -2.4994   29.6138 O.3     1  UNL1       -0.4214
     30 O         -35.8456   -3.8347   28.0853 O.2     1  UNL1       -0.2445
     31 C         -36.1442   -2.7294   30.4958 C.2     1  UNL1        0.1445
     32 C         -36.3022   -2.0905   31.3786 C.2     1  UNL1        0.0118
     33 C         -36.8595   -3.9996   30.3922 C.2     1  UNL1        0.0373
     34 C         -37.7768   -4.3736   31.4144 C.2     1  UNL1        0.0032
     35 C         -37.2212   -2.3322   32.5435 C.3     1  UNL1        0.0340
@<TRIPOS>BOND
     1     1     2    1
     2     1     8    1
     3     5     9    1
     4     9    10    2
     5     9    11    1
     6     1    12    1
     7     3    13    1
     8    13    14    1
     9    14    15    1
    10    17    18    1
    11    14    24    2
    12    21    28    1
    13    28    29    1
    14    28    30    2
    15    29    31    1
    16    31    32    2
    17    31    33    1
    18    33    34    2
    19    32    35    1
    20    18    19   ar
    21    19    20   ar
    22    20    21   ar
    23    21    22   ar
    24    22    23   ar
    25    23    18   ar
    26     2     3   ar
    27     3     4   ar
    28     4     5   ar
    29     5     6   ar
    30     6     7   ar
    31     7     2   ar
    32    15    16   ar
    33    16    17   ar
    34    17    27   ar
    35    27    26   ar
    36    26    25   ar
    37    25    15   ar
