@<TRIPOS>MOLECULE
No_3293-gen_results/8p0m/2024-11-26-14-13-15/
 16 18 0 0 0
SMALL
GASTEIGER

@<TRIPOS>ATOM
      1 N         -28.0544   -1.0498   28.7246 N.ar    1  UNL1       -0.2250
      2 C         -26.9659   -0.4722   28.7709 C.ar    1  UNL1        0.1655
      3 C         -26.8762    0.8133   29.2194 C.ar    1  UNL1        0.0762
      4 C         -28.0285    1.4778   29.6014 C.ar    1  UNL1        0.0079
      5 C         -29.1804    0.7711   29.5679 C.ar    1  UNL1        0.0209
      6 C         -29.1728   -0.5288   29.1671 C.ar    1  UNL1        0.1006
      7 N         -25.6508   -0.8920   28.4397 N.2     1  UNL1       -0.2233
      8 C         -24.7293    0.0230   28.4643 C.2     1  UNL1        0.1218
      9 C         -25.4396    1.1810   28.9842 C.2     1  UNL1        0.2160
     10 C         -23.3167    0.0528   28.2659 C.ar    1  UNL1        0.0209
     11 C         -22.4771   -0.8632   28.9789 C.ar    1  UNL1        0.0016
     12 C         -22.7541    1.1585   27.5768 C.ar    1  UNL1        0.0016
     13 C         -21.9759    1.8252   27.8634 C.ar    1  UNL1        0.0000
     14 C         -20.7640    0.9374   28.3543 C.ar    1  UNL1        0.0000
     15 C         -21.0758   -0.2612   29.0181 C.ar    1  UNL1        0.0000
     16 O         -24.9649    2.3918   29.2726 O.2     1  UNL1       -0.2849
@<TRIPOS>BOND
     1     2     7    1
     2     7     8    2
     3     3     9    1
     4     8     9    1
     5     8    10    1
     6     9    16    2
     7     1     2   ar
     8     2     3   ar
     9     3     4   ar
    10     4     5   ar
    11     5     6   ar
    12     6     1   ar
    13    10    11   ar
    14    11    15   ar
    15    15    14   ar
    16    14    13   ar
    17    13    12   ar
    18    12    10   ar
