@<TRIPOS>MOLECULE
No_3295-gen_results/8p0m/2024-11-26-14-13-15/
 16 17 0 0 0
SMALL
GASTEIGER

@<TRIPOS>ATOM
      1 C         -28.0162   -0.8135   28.8779 C.ar    1  UNL1        0.0002
      2 C         -27.0636   -0.1189   28.6079 C.ar    1  UNL1        0.0064
      3 C         -26.9716    0.7139   27.5060 C.ar    1  UNL1        0.0800
      4 C         -25.8205    1.4910   27.1160 C.ar    1  UNL1        0.0132
      5 C         -24.6562    1.4242   27.9180 C.ar    1  UNL1        0.0800
      6 C         -24.6847    0.5901   29.0659 C.ar    1  UNL1        0.0066
      7 C         -25.8099   -0.1265   29.3338 C.ar    1  UNL1        0.0004
      8 C         -28.0445   -1.5734   30.1690 C.ar    1  UNL1        0.0000
      9 C         -26.8172   -1.7595   30.8704 C.ar    1  UNL1        0.0000
     10 C         -25.7477   -0.9917   30.5376 C.ar    1  UNL1        0.0000
     11 C         -23.4587    2.2281   27.5845 C.2     1  UNL1        0.3878
     12 O         -23.5274    3.1694   26.8453 O.co2   1  UNL1       -0.2406
     13 O         -22.2004    1.7590   27.8871 O.co2   1  UNL1       -0.2406
     14 C         -28.0953    0.8137   26.5396 C.2     1  UNL1        0.3878
     15 O         -28.0151    0.6173   25.3697 O.co2   1  UNL1       -0.2406
     16 O         -29.2721    1.0140   27.0831 O.co2   1  UNL1       -0.2406
@<TRIPOS>BOND
     1     5    11    1
     2    11    12   ar
     3    11    13   ar
     4     3    14    1
     5    14    15   ar
     6    14    16   ar
     7     2     3   ar
     8     3     4   ar
     9     4     5   ar
    10     5     6   ar
    11     6     7   ar
    12     1     2   ar
    13     2     7   ar
    14     7    10   ar
    15    10     9   ar
    16     9     8   ar
    17     8     1   ar
