@<TRIPOS>MOLECULE
No_3296-gen_results/8p0m/2024-11-26-14-13-15/
 34 37 0 0 0
SMALL
GASTEIGER

@<TRIPOS>ATOM
      1 C         -28.0162   -0.8135   28.8779 C.ar    1  UNL1        0.0013
      2 C         -27.0636   -0.1190   28.6079 C.ar    1  UNL1        0.0002
      3 C         -26.9716    0.7139   27.5060 C.ar    1  UNL1        0.0013
      4 C         -28.1053    0.7744   26.6421 C.ar    1  UNL1        0.0153
      5 C         -29.2008    0.1044   27.0527 C.ar    1  UNL1        0.0614
      6 C         -29.2096   -0.6029   28.1853 C.ar    1  UNL1        0.0153
      7 N         -30.3077    0.2215   26.2218 N.am    1  UNL1       -0.2008
      8 C         -31.0284    1.0864   26.0542 C.ar    1  UNL1        0.0614
      9 C         -31.1128    2.1247   26.9127 C.ar    1  UNL1        0.0153
     10 C         -31.9119    1.1072   24.8303 C.ar    1  UNL1        0.0153
     11 C         -32.0143    3.2782   26.6847 C.ar    1  UNL1        0.0013
     12 C         -32.7741    2.2366   24.6181 C.ar    1  UNL1        0.0013
     13 C         -32.7902    3.2852   25.5029 C.ar    1  UNL1        0.0001
     14 C         -30.5643   -1.1184   25.5015 C.2     1  UNL1        0.4546
     15 O         -30.3566   -1.2629   24.3710 O.co2   1  UNL1       -0.2216
     16 O         -31.3499   -1.9597   26.1848 O.co2   1  UNL1       -0.2216
     17 C         -25.6778   -0.2964   29.3762 C.ar    1  UNL1        0.0044
     18 C         -24.9846    0.4111   29.8138 C.ar    1  UNL1        0.0550
     19 C         -23.6455    0.1452   30.4105 C.ar    1  UNL1        0.0046
     20 C         -23.2937   -1.1872   30.4428 C.ar    1  UNL1        0.0001
     21 C         -25.2459   -1.7746   29.3879 C.ar    1  UNL1        0.0001
     22 C         -24.0870   -2.1166   29.9111 C.ar    1  UNL1        0.0000
     23 C         -25.2380    1.9588   29.8367 C.2     1  UNL1        0.2651
     24 N         -26.2419    2.5158   29.8038 N.am    1  UNL1       -0.1962
     25 CA        -26.4364    3.8466   29.7489 C.3     1  UNL1        0.1507
     26 C         -27.0800    4.3806   28.7187 C.ar    1  UNL1        0.0000
     27 C         -27.6452    3.9817   27.8455 C.ar    1  UNL1       -0.0025
     28 C         -28.3720    4.6242   26.7527 C.ar    1  UNL1       -0.0003
     29 C         -28.2618    6.0420   26.7575 C.ar    1  UNL1       -0.0000
     30 C         -27.5509    6.6821   27.7248 C.ar    1  UNL1       -0.0003
     31 C         -26.9257    5.9705   28.7433 C.ar    1  UNL1       -0.0025
     32 O         -24.1631    2.6859   29.5103 O.2     1  UNL1       -0.2684
     33 C         -26.1596    4.5276   31.0630 C.3     1  UNL1        0.2081
     34 O         -27.0844    4.6937   31.7849 O.3     1  UNL1       -0.2181
@<TRIPOS>BOND
     1     5     7    1
     2     7     8    1
     3     7    14   am
     4    14    15   ar
     5    14    16   ar
     6     2    17    1
     7    18    23    1
     8    23    24   am
     9    24    25    1
    10    25    26    1
    11    23    32    2
    12    25    33    1
    13    33    34    1
    14     8     9   ar
    15     9    11   ar
    16    11    13   ar
    17    13    12   ar
    18    12    10   ar
    19    10     8   ar
    20     1     2   ar
    21     2     3   ar
    22     3     4   ar
    23     4     5   ar
    24     5     6   ar
    25     6     1   ar
    26    17    18   ar
    27    18    19   ar
    28    19    20   ar
    29    20    22   ar
    30    22    21   ar
    31    21    17   ar
    32    26    27   ar
    33    27    28   ar
    34    28    29   ar
    35    29    30   ar
    36    30    31   ar
    37    31    26   ar
