@<TRIPOS>MOLECULE
No_3299-gen_results/8p0m/2024-11-26-14-13-15/
 30 32 0 0 0
SMALL
GASTEIGER

@<TRIPOS>ATOM
      1 C         -28.0162   -0.8135   28.8779 C.ar    1  UNL1        0.1455
      2 C         -27.0636   -0.1189   28.6079 C.ar    1  UNL1        0.0371
      3 C         -25.7923   -0.4302   29.0761 C.ar    1  UNL1        0.0031
      4 C         -24.5456    0.3494   28.8225 C.ar    1  UNL1        0.0031
      5 C         -23.2409    0.0217   29.3323 C.ar    1  UNL1        0.0002
      6 C         -27.8820   -1.8995   29.8633 C.ar    1  UNL1        0.1136
      7 C         -26.6706   -2.3272   30.3212 C.ar    1  UNL1        0.0096
      8 C         -25.5433   -1.5852   29.9316 C.ar    1  UNL1        0.0004
      9 C         -22.1918    0.8302   29.0004 C.ar    1  UNL1        0.0031
     10 C         -22.1472    1.7783   28.0287 C.ar    1  UNL1        0.0369
     11 C         -24.5322    1.3987   27.8163 C.ar    1  UNL1        0.0369
     12 C         -23.3620    2.0694   27.4607 C.ar    1  UNL1        0.1387
     13 C         -29.0617   -2.7252   30.3001 C.2     1  UNL1        0.3907
     14 O         -29.2904   -2.7271   31.4994 O.co2   1  UNL1       -0.2404
     15 O         -29.9044   -3.1395   29.5289 O.co2   1  UNL1       -0.2404
     16 O         -23.4809    3.0204   26.5026 O.3     1  UNL1       -0.4714
     17 C         -24.7850    3.2968   26.0684 C.3     1  UNL1        0.2525
     18 O         -29.2720   -0.5990   28.6291 O.3     1  UNL1       -0.4675
     19 C         -29.6029    0.7053   28.2576 C.3     1  UNL1        0.2679
     20 C         -29.7877    0.8565   26.8526 C.2     1  UNL1        0.4041
     21 O         -29.0309    1.5611   26.2724 O.co2   1  UNL1       -0.2416
     22 O         -30.6519    0.1634   26.2969 O.co2   1  UNL1       -0.2416
     23 C         -30.8917    1.1738   29.0186 C.3     1  UNL1        0.0601
     24 C         -32.0511    1.2214   28.4874 C.3     1  UNL1        0.0307
     25 C         -32.4821    2.2763   27.8877 C.ar    1  UNL1       -0.0221
     26 C         -33.8184    2.3549   27.3233 C.ar    1  UNL1       -0.0043
     27 C         -34.2971    3.5390   26.7825 C.ar    1  UNL1       -0.0003
     28 C         -33.4002    4.6932   26.6655 C.ar    1  UNL1       -0.0000
     29 C         -32.0821    4.5900   27.1217 C.ar    1  UNL1       -0.0003
     30 C         -31.6750    3.4923   27.7318 C.ar    1  UNL1       -0.0043
@<TRIPOS>BOND
     1     3     4    1
     2     6    13    1
     3    13    14   ar
     4    13    15   ar
     5    12    16    1
     6    16    17    1
     7     1    18    1
     8    18    19    1
     9    19    20    1
    10    20    21   ar
    11    20    22   ar
    12    19    23    1
    13    23    24    1
    14    24    25    1
    15    25    26   ar
    16    26    27   ar
    17    27    28   ar
    18    28    29   ar
    19    29    30   ar
    20    30    25   ar
    21     1     2   ar
    22     2     3   ar
    23     3     8   ar
    24     8     7   ar
    25     7     6   ar
    26     6     1   ar
    27     4     5   ar
    28     5     9   ar
    29     9    10   ar
    30    10    12   ar
    31    12    11   ar
    32    11     4   ar
