@<TRIPOS>MOLECULE
No_33-gen_results/8p0m/2024-11-26-14-13-15/
 15 17 0 0 0
SMALL
GASTEIGER

@<TRIPOS>ATOM
      1 C         -28.0162   -0.8135   28.8779 C.ar    1  UNL1       -0.0026
      2 C         -28.4690   -0.7850   29.8287 C.ar    1  UNL1        0.0189
      3 C         -27.0871    0.2903   28.6377 C.ar    1  UNL1       -0.0194
      4 C         -26.2516    0.4114   27.4223 C.3     1  UNL1        0.0269
      5 C         -28.3913    0.1041   30.9805 C.ar    1  UNL1        0.0031
      6 C         -27.5332    1.1666   30.7866 C.ar    1  UNL1        0.0026
      7 C         -26.8281    1.2557   29.6454 C.ar    1  UNL1        0.0307
      8 C         -25.6444    1.6653   27.2216 C.3     1  UNL1        0.0128
      9 C         -25.3908    2.5602   28.2291 C.3     1  UNL1        0.0695
     10 C         -26.0983    2.4436   29.4094 C.2     1  UNL1        0.1727
     11 O         -25.8917    3.3852   30.3396 O.2     1  UNL1       -0.2913
     12 C         -29.4595   -2.0503   30.2217 C.ar    1  UNL1        0.0988
     13 N         -29.9279   -2.0869   31.4436 N.ar    1  UNL1       -0.2423
     14 C         -29.8342   -1.1817   32.4327 C.ar    1  UNL1        0.0989
     15 C         -29.0728   -0.1404   32.2708 C.ar    1  UNL1        0.0207
@<TRIPOS>BOND
     1     3     4    1
     2     4     8    1
     3     7    10    1
     4     9    10    1
     5    10    11    2
     6     8     9    1
     7     1     2   ar
     8     5     6   ar
     9     6     7   ar
    10     7     3   ar
    11     3     1   ar
    12     2     5   ar
    13     5    15   ar
    14    15    14   ar
    15    14    13   ar
    16    13    12   ar
    17    12     2   ar
