@<TRIPOS>MOLECULE
No_3300-gen_results/8p0m/2024-11-26-14-13-15/
 16 17 0 0 0
SMALL
GASTEIGER

@<TRIPOS>ATOM
      1 C         -28.0162   -0.8135   28.8779 C.ar    1  UNL1       -0.0036
      2 C         -28.4690   -0.7850   29.8287 C.ar    1  UNL1       -0.0003
      3 C         -27.0871    0.2903   28.6377 C.ar    1  UNL1       -0.0128
      4 C         -26.8317    1.2487   29.5869 C.ar    1  UNL1       -0.0036
      5 C         -28.3914    0.0801   31.0065 C.ar    1  UNL1       -0.0000
      6 C         -27.4940    1.1521   30.7841 C.ar    1  UNL1       -0.0003
      7 C         -26.3172    0.3994   27.3653 C.3     1  UNL1        0.0854
      8 C         -24.9405    0.2550   27.5028 C.ar    1  UNL1       -0.0128
      9 C         -24.1902    0.7222   26.3382 C.ar    1  UNL1       -0.0036
     10 C         -22.8277    1.0867   26.5756 C.ar    1  UNL1       -0.0003
     11 C         -22.2516    0.9346   27.8549 C.ar    1  UNL1       -0.0000
     12 C         -23.0282    0.4098   28.9059 C.ar    1  UNL1       -0.0003
     13 C         -24.3807    0.1782   28.7599 C.ar    1  UNL1       -0.0036
     14 C         -27.0239    0.3928   26.1785 C.2     1  UNL1        0.0752
     15 N         -27.6679    1.0801   25.6729 N.2     1  UNL1       -0.2707
     16 C         -28.3092    0.8403   24.4527 C.3     1  UNL1        0.1513
@<TRIPOS>BOND
     1     3     7    1
     2     7    14    1
     3    14    15    2
     4    15    16    1
     5     7     8    1
     6     8     9   ar
     7     9    10   ar
     8    10    11   ar
     9    11    12   ar
    10    12    13   ar
    11    13     8   ar
    12     1     2   ar
    13     2     5   ar
    14     5     6   ar
    15     6     4   ar
    16     4     3   ar
    17     3     1   ar
