@<TRIPOS>MOLECULE
No_3301-gen_results/8p0m/2024-11-26-14-13-15/
 16 17 0 0 0
SMALL
GASTEIGER

@<TRIPOS>ATOM
      1 C         -28.0162   -0.8135   28.8779 C.ar    1  UNL1       -0.0043
      2 C         -28.4690   -0.7850   29.8287 C.ar    1  UNL1       -0.0003
      3 C         -26.5455   -0.8762   28.8500 C.ar    1  UNL1       -0.0219
      4 C         -25.6825   -0.7773   27.6829 C.3     1  UNL1        0.0307
      5 C         -28.0261   -0.9156   30.9273 C.ar    1  UNL1       -0.0000
      6 C         -26.6223   -0.9928   31.2166 C.ar    1  UNL1       -0.0003
      7 C         -25.8198   -0.9885   30.1081 C.ar    1  UNL1       -0.0043
      8 C         -25.1878    0.5655   27.3385 C.3     1  UNL1        0.0267
      9 C         -23.9572    0.8566   27.8049 C.ar    1  UNL1       -0.0222
     10 C         -23.1817    0.2387   28.7659 C.ar    1  UNL1       -0.0043
     11 C         -21.8576    0.5364   29.0585 C.ar    1  UNL1       -0.0003
     12 C         -21.2086    1.4745   28.2439 C.ar    1  UNL1       -0.0000
     13 C         -23.0822    1.6797   26.9196 C.ar    1  UNL1       -0.0043
     14 C         -21.8286    2.0426   27.1989 C.ar    1  UNL1       -0.0003
     15 C         -25.9571    1.4386   26.5963 C.3     1  UNL1        0.0047
     16 C         -26.3362    2.5142   27.1002 C.3     1  UNL1        0.0004
@<TRIPOS>BOND
     1     3     4    1
     2     4     8    1
     3     8     9    1
     4     8    15    1
     5    15    16    1
     6     1     2   ar
     7     2     5   ar
     8     5     6   ar
     9     6     7   ar
    10     7     3   ar
    11     3     1   ar
    12     9    10   ar
    13    10    11   ar
    14    11    12   ar
    15    12    14   ar
    16    14    13   ar
    17    13     9   ar
