@<TRIPOS>MOLECULE
No_3302-gen_results/8p0m/2024-11-26-14-13-15/
 14 15 0 0 0
SMALL
GASTEIGER

@<TRIPOS>ATOM
      1 C         -28.0162   -0.8135   28.8779 C.ar    1  UNL1       -0.0039
      2 C         -28.4690   -0.7850   29.8287 C.ar    1  UNL1       -0.0003
      3 C         -26.5455   -0.8762   28.8500 C.ar    1  UNL1       -0.0178
      4 C         -25.6825   -0.7773   27.6829 C.3     1  UNL1        0.0526
      5 C         -27.9181   -1.0034   31.1877 C.ar    1  UNL1       -0.0000
      6 C         -26.5308   -1.0794   31.2463 C.ar    1  UNL1       -0.0003
      7 C         -25.7798   -1.0462   30.0905 C.ar    1  UNL1       -0.0039
      8 C         -25.2322    0.5793   27.3292 C.ar    1  UNL1       -0.0181
      9 C         -23.9816    0.8698   27.7676 C.ar    1  UNL1       -0.0082
     10 C         -23.4121    2.1478   27.3881 C.ar    1  UNL1       -0.0222
     11 C         -22.0918    2.5036   27.8131 C.3     1  UNL1        0.0310
     12 C         -25.9645    1.4410   26.5360 C.ar    1  UNL1       -0.0040
     13 C         -24.0528    2.9647   26.4879 C.ar    1  UNL1       -0.0043
     14 C         -25.3573    2.6322   26.0710 C.ar    1  UNL1       -0.0006
@<TRIPOS>BOND
     1     3     4    1
     2     4     8    1
     3    11    10    1
     4     8     9   ar
     5     9    10   ar
     6    10    13   ar
     7    13    14   ar
     8    14    12   ar
     9    12     8   ar
    10     1     2   ar
    11     2     5   ar
    12     5     6   ar
    13     6     7   ar
    14     7     3   ar
    15     3     1   ar
