@<TRIPOS>MOLECULE
No_3303-gen_results/8p0m/2024-11-26-14-13-15/
 23 25 0 0 0
SMALL
GASTEIGER

@<TRIPOS>ATOM
      1 C         -28.0162   -0.8135   28.8779 C.ar    1  UNL1        0.0369
      2 C         -27.0636   -0.1189   28.6079 C.ar    1  UNL1        0.0028
      3 C         -26.8756    1.1325   28.9134 C.ar    1  UNL1       -0.0032
      4 C         -27.9014    1.8066   29.6436 C.ar    1  UNL1        0.0027
      5 C         -29.0458   -0.2316   29.7181 C.ar    1  UNL1        0.1387
      6 C         -27.7521    3.2005   30.0171 C.ar    1  UNL1        0.0001
      7 C         -28.9510    1.0411   30.0482 C.ar    1  UNL1        0.0369
      8 C         -27.2119    3.9647   29.4058 C.ar    1  UNL1       -0.0003
      9 C         -26.5065    3.6667   28.1219 C.ar    1  UNL1       -0.0037
     10 C         -26.1880    2.3469   27.9047 C.ar    1  UNL1       -0.0155
     11 C         -25.3219    1.8580   26.8554 C.3     1  UNL1        0.0527
     12 C         -23.9855    1.4872   27.3721 C.ar    1  UNL1       -0.0155
     13 C         -22.8435    2.2842   27.1769 C.ar    1  UNL1       -0.0037
     14 C         -21.5882    1.8628   27.6953 C.ar    1  UNL1       -0.0003
     15 C         -21.5039    0.6101   28.4500 C.ar    1  UNL1       -0.0000
     16 C         -22.6561   -0.1767   28.5992 C.ar    1  UNL1       -0.0003
     17 C         -23.8607    0.2743   28.1095 C.ar    1  UNL1       -0.0037
     18 C         -25.9144    0.9020   25.9535 C.2     1  UNL1       -0.0370
     19 C         -25.0740    3.2026   26.0148 C.3     1  UNL1        0.0129
     20 O         -29.9931   -1.0981   30.1985 O.3     1  UNL1       -0.4714
     21 C         -30.9179   -0.6254   30.9527 C.3     1  UNL1        0.2525
     22 C         -25.1194    0.0995   25.2002 C.2     1  UNL1       -0.0085
     23 C         -27.2939    0.7993   25.7500 C.3     1  UNL1        0.0270
@<TRIPOS>BOND
     1    10    11    1
     2    11    12    1
     3    11    18    1
     4    11    19    1
     5     5    20    1
     6    20    21    1
     7    18    22    2
     8    18    23    1
     9    12    13   ar
    10    13    14   ar
    11    14    15   ar
    12    15    16   ar
    13    16    17   ar
    14    17    12   ar
    15     4     6   ar
    16     6     8   ar
    17     8     9   ar
    18     9    10   ar
    19    10     3   ar
    20     1     2   ar
    21     2     3   ar
    22     3     4   ar
    23     4     7   ar
    24     7     5   ar
    25     5     1   ar
