@<TRIPOS>MOLECULE
No_3304-gen_results/8p0m/2024-11-26-14-13-15/
 12 13 0 0 0
SMALL
GASTEIGER

@<TRIPOS>ATOM
      1 N         -28.0544   -1.0498   28.7246 N.ar    1  UNL1       -0.2292
      2 C         -27.7460   -0.0733   29.0098 C.ar    1  UNL1        0.1317
      3 C         -27.1741    0.7325   28.8254 C.ar    1  UNL1        0.0343
      4 C         -26.2627    0.6359   27.6462 C.ar    1  UNL1        0.0045
      5 C         -26.3245   -0.5476   27.0542 C.ar    1  UNL1        0.0208
      6 C         -27.1124   -1.4590   27.5802 C.ar    1  UNL1        0.1003
      7 N         -28.6841    0.1561   30.3239 N.pl3   1  UNL1       -0.2932
      8 C         -29.3604   -0.2985   30.9142 C.3     1  UNL1        0.0922
      9 C         -30.0255    0.1754   32.0815 C.3     1  UNL1        0.0215
     10 C         -29.5948    1.4552   32.3416 C.3     1  UNL1        0.0035
     11 C         -28.7298    2.1949   31.7456 C.3     1  UNL1        0.0215
     12 C         -28.1318    1.5925   30.6604 C.3     1  UNL1        0.0922
@<TRIPOS>BOND
     1     2     7    1
     2     7     8    1
     3     9    10    1
     4     7    12    1
     5    11    12    1
     6     8     9    1
     7    10    11    1
     8     1     2   ar
     9     2     3   ar
    10     3     4   ar
    11     4     5   ar
    12     5     6   ar
    13     6     1   ar
