@<TRIPOS>MOLECULE
No_3306-gen_results/8p0m/2024-11-26-14-13-15/
 18 20 0 0 0
SMALL
GASTEIGER

@<TRIPOS>ATOM
      1 N         -28.0544   -1.0498   28.7246 N.pl3   1  UNL1       -0.2306
      2 C         -26.9659   -0.4722   28.7709 C.ar    1  UNL1        0.0992
      3 C         -25.9289   -1.0196   29.5059 C.ar    1  UNL1        0.1533
      4 C         -24.6309   -0.4459   29.5994 C.ar    1  UNL1        0.0382
      5 C         -24.4031    0.7890   28.9309 C.ar    1  UNL1        0.0032
      6 C         -25.4769    1.3309   28.1733 C.ar    1  UNL1        0.0014
      7 C         -26.6735    0.7165   28.0807 C.ar    1  UNL1        0.0178
      8 C         -28.6048   -1.5255   29.9160 C.3     1  UNL1        0.1588
      9 C         -27.7455   -2.4643   30.6164 C.3     1  UNL1        0.2251
     10 O         -26.3562   -1.8961   30.7048 O.3     1  UNL1       -0.4729
     11 C         -27.6183    1.2976   27.1743 C.ar    1  UNL1        0.0014
     12 C         -27.3088    2.0601   26.1796 C.ar    1  UNL1        0.0000
     13 C         -26.0004    2.7788   26.2585 C.ar    1  UNL1        0.0000
     14 C         -25.0203    2.3641   27.2443 C.ar    1  UNL1        0.0000
     15 C         -28.0419   -2.7780   31.9828 C.3     1  UNL1        0.2572
     16 C         -29.3500   -3.6018   31.9416 C.2     1  UNL1        0.2439
     17 O         -29.4106   -4.2943   32.9156 O.2     1  UNL1       -0.2854
     18 O         -28.3895   -1.5840   32.6466 O.3     1  UNL1       -0.2106
@<TRIPOS>BOND
     1     1     2    1
     2     1     8    1
     3     8     9    1
     4     3    10    1
     5     9    10    1
     6     9    15    1
     7    15    16    1
     8    16    17    2
     9    15    18    1
    10     2     3   ar
    11     3     4   ar
    12     4     5   ar
    13     5     6   ar
    14     7     2   ar
    15     6     7   ar
    16     7    11   ar
    17    11    12   ar
    18    12    13   ar
    19    13    14   ar
    20    14     6   ar
