@<TRIPOS>MOLECULE
No_3307-gen_results/8p0m/2024-11-26-14-13-15/
 7 6 0 0 0
SMALL
GASTEIGER

@<TRIPOS>ATOM
      1 O         -28.1229   -1.3353   28.4874 O.2     1  UNL1       -0.2713
      2 C         -27.0637   -0.8242   28.8687 C.2     1  UNL1        0.2651
      3 C         -26.4017   -0.0623   28.6224 C.3     1  UNL1        0.1142
      4 N         -26.5721   -1.5844   30.1172 N.am    1  UNL1       -0.0875
      5 C         -26.6982    0.9644   27.6453 C.2     1  UNL1       -0.0210
      6 C         -27.5862    1.2950   27.2709 C.2     1  UNL1       -0.0299
      7 C         -28.8245    0.9272   27.8593 C.3     1  UNL1        0.0304
@<TRIPOS>BOND
     1     1     2    2
     2     2     3    1
     3     2     4   am
     4     3     5    1
     5     5     6    2
     6     6     7    1
