@<TRIPOS>MOLECULE
No_3309-gen_results/8p0m/2024-11-26-14-13-15/
 21 22 0 0 0
SMALL
GASTEIGER

@<TRIPOS>ATOM
      1 F1        -28.0727   -1.2542   28.5316 F       1  <1>        -0.1985
      2 C1        -27.3591   -0.3792   28.7224 C.ar    1  <1>         0.2018
      3 C2        -26.3323   -0.6441   29.4520 C.ar    1  <1>         0.1682
      4 C3        -25.2562    0.3203   29.7818 C.ar    1  <1>         0.0403
      5 C4        -25.4242    1.6275   29.2026 C.ar    1  <1>         0.0548
      6 C5        -24.4868    2.6446   29.3981 C.ar    1  <1>         0.1966
      7 C6        -23.3294    2.1811   30.0492 C.ar    1  <1>         0.0421
      8 C7        -23.0652    0.9364   30.5247 C.ar    1  <1>         0.0034
      9 C8        -24.0849   -0.0201   30.3710 C.ar    1  <1>         0.0033
     10 C9        -27.5330    0.8837   28.1096 C.ar    1  <1>         0.1810
     11 C10       -26.6048    1.9015   28.4295 C.ar    1  <1>         0.0906
     12 F2        -28.1823    1.0146   27.1800 F       1  <1>        -0.2008
     13 O1        -26.0585   -1.8354   29.9978 O.3     1  <1>        -0.4709
     14 C11       -25.8025   -2.9108   29.2393 C.3     1  <1>         0.2359
     15 C12       -24.8196   -3.7877   29.8877 C.3     1  <1>         0.2375
     16 C13       -24.5969   -4.9864   28.9779 C.2     1  <1>         0.3856
     17 Cl1       -26.8055    3.4841   27.8083 Cl      1  <1>        -0.0797
     18 O2        -23.6425   -4.9933   28.1694 O.co2   1  <1>        -0.2439
     19 O3        -25.3790   -5.9582   29.1759 O.co2   1  <1>        -0.2439
     20 N1        -23.4541   -3.0321   29.8796 N.3     1  <1>        -0.1168
     21 O4        -24.5825    3.8035   28.9467 O.3     1  <1>        -0.2865
@<TRIPOS>BOND
     1     1     2    1
     2    10    12    1
     3     3    13    1
     4    13    14    1
     5    14    15    1
     6    15    16    1
     7    11    17    1
     8    16    18   ar
     9    16    19   ar
    10    15    20    1
    11     6    21    1
    12     2     3   ar
    13     3     4   ar
    14     5    11   ar
    15    11    10   ar
    16    10     2   ar
    17     4     5   ar
    18     5     6   ar
    19     6     7   ar
    20     7     8   ar
    21     8     9   ar
    22     9     4   ar
