@<TRIPOS>MOLECULE
No_3311-gen_results/8p0m/2024-11-26-14-13-15/
 13 14 0 0 0
SMALL
GASTEIGER

@<TRIPOS>ATOM
      1 C         -28.0162   -0.8135   28.8779 C.ar    1  UNL1        0.0296
      2 C         -27.0636   -0.1189   28.6079 C.ar    1  UNL1        0.1401
      3 C         -26.8756    1.1325   28.9134 C.ar    1  UNL1        0.0296
      4 C         -27.9014    1.8066   29.6436 C.ar    1  UNL1        0.0023
      5 C         -29.0458   -0.2316   29.7181 C.ar    1  UNL1        0.0022
      6 C         -28.9402    1.0517   30.0597 C.ar    1  UNL1        0.0001
      7 C         -30.1632   -1.1170   30.1252 C.ar    1  UNL1        0.0001
      8 C         -31.3174   -0.9747   29.5525 C.ar    1  UNL1        0.0000
      9 C         -32.3910   -1.8737   29.8832 C.ar    1  UNL1        0.0000
     10 C         -29.8994   -2.1431   31.0918 C.ar    1  UNL1        0.0000
     11 C         -30.9575   -3.0347   31.4346 C.ar    1  UNL1        0.0000
     12 C         -32.1595   -2.8579   30.8404 C.ar    1  UNL1        0.0000
     13 F         -26.0313   -0.6982   27.8475 F       1  UNL1       -0.2042
@<TRIPOS>BOND
     1     5     7    1
     2     2    13    1
     3     1     2   ar
     4     2     3   ar
     5     3     4   ar
     6     4     6   ar
     7     6     5   ar
     8     5     1   ar
     9     7     8   ar
    10     8     9   ar
    11     9    12   ar
    12    12    11   ar
    13    11    10   ar
    14    10     7   ar
