@<TRIPOS>MOLECULE
No_3312-gen_results/8p0m/2024-11-26-14-13-15/
 35 36 0 0 0
SMALL
GASTEIGER

@<TRIPOS>ATOM
      1 C         -28.0162   -0.8135   28.8779 C.ar    1  UNL1        0.0756
      2 C         -27.0636   -0.1190   28.6079 C.ar    1  UNL1        0.0064
      3 C         -27.0010    0.6913   27.4910 C.ar    1  UNL1        0.0002
      4 C         -28.1420    0.8282   26.7994 C.ar    1  UNL1        0.0039
      5 C         -29.2898   -0.4871   28.3661 C.ar    1  UNL1        0.0103
      6 C         -29.2849    0.2608   27.2623 C.ar    1  UNL1        0.0716
      7 C         -28.1334   -1.5894   30.1632 C.2     1  UNL1        0.3416
      8 O         -27.3944   -2.6825   30.1386 O.2     1  UNL1       -0.2449
      9 C         -30.5213    0.4614   26.4496 C.3     1  UNL1        0.4186
     10 F         -31.4203   -0.1517   26.8325 F       1  UNL1       -0.1659
     11 F         -30.7836    1.7735   26.4151 F       1  UNL1       -0.1659
     12 F         -30.2996    0.0899   25.1342 F       1  UNL1       -0.1659
     13 O         -28.4994   -1.2075   31.2517 O.3     1  UNL1       -0.4367
     14 C         -25.6241    1.1088   27.0873 C.ar    1  UNL1        0.0000
     15 C         -24.5640    0.7827   27.7264 C.ar    1  UNL1        0.0018
     16 C         -23.2553    1.3247   27.4746 C.ar    1  UNL1        0.0260
     17 C         -23.1212    2.0728   26.2986 C.ar    1  UNL1        0.0018
     18 C         -24.2293    2.3876   25.5708 C.ar    1  UNL1        0.0001
     19 C         -25.4850    1.9390   25.9371 C.ar    1  UNL1        0.0000
     20 CA        -22.0680    0.9812   28.2350 C.2     1  UNL1        0.1822
     21 N         -21.0164    1.6536   28.1439 N.2     1  UNL1       -0.1410
     22 C         -22.2039    0.2216   29.4578 C.2     1  UNL1        0.4068
     23 O         -23.0683    0.2059   30.2385 O.co2   1  UNL1       -0.2388
     24 OXT       -21.1992   -0.6855   29.6254 O.co2   1  UNL1       -0.2388
     25 C         -29.3678   -1.9475   31.9882 C.3     1  UNL1        0.2799
     26 C         -29.9483   -3.0089   31.4010 C.2     1  UNL1        0.2489
     27 C         -30.6470   -2.8591   30.2946 C.2     1  UNL1        0.1845
     28 C         -31.8478   -2.1945   30.4795 C.3     1  UNL1        0.2135
     29 C         -32.8966   -2.9263   30.7796 C.3     1  UNL1        0.0764
     30 O         -30.8224   -3.7501   32.3487 O.2     1  UNL1       -0.2844
     31 O         -30.9561   -4.0451   29.5468 O.2     1  UNL1       -0.4701
     32 C         -32.8213   -4.0180   29.7829 C.3     1  UNL1        0.1852
     33 C         -30.1626   -4.8242   29.7564 C.3     1  UNL1        0.2522
     34 O         -32.8399   -5.2837   30.2170 O.3     1  UNL1       -0.2203
     35 O         -32.2480   -1.1175   29.4667 O.3     1  UNL1       -0.2148
@<TRIPOS>BOND
     1     1     7    1
     2     7     8    2
     3     6     9    1
     4     9    10    1
     5     9    11    1
     6     9    12    1
     7     7    13    1
     8     3    14    1
     9    16    20    1
    10    20    21    2
    11    20    22    1
    12    22    23   ar
    13    22    24   ar
    14    13    25    1
    15    25    26    1
    16    26    27    2
    17    27    28    1
    18    28    29    1
    19    26    30    1
    20    27    31    1
    21    29    32    1
    22    31    33    1
    23    32    34    1
    24    28    35    1
    25    14    15   ar
    26    15    16   ar
    27    16    17   ar
    28    17    18   ar
    29    18    19   ar
    30    19    14   ar
    31     1     2   ar
    32     2     3   ar
    33     3     4   ar
    34     4     6   ar
    35     6     5   ar
    36     5     1   ar
