@<TRIPOS>MOLECULE
No_3313-gen_results/8p0m/2024-11-26-14-13-15/
 6 5 0 0 0
SMALL
GASTEIGER

@<TRIPOS>ATOM
      1 P         -27.9505   -0.5786   29.0402 P.3     1  UNL1        0.5625
      2 O         -27.2401    0.0613   28.4283 O.3     1  UNL1       -0.0796
      3 O         -29.3621   -0.5774   28.6194 O.2     1  UNL1       -0.2200
      4 O         -27.5360   -1.7552   29.8771 O.3     1  UNL1       -0.1129
      5 O         -28.1510    0.3776   30.4482 O.3     1  UNL1       -0.1129
      6 F         -25.9824   -0.1795   28.3148 F       1  UNL1       -0.0372
@<TRIPOS>BOND
     1     1     2    1
     2     1     3    2
     3     1     4    1
     4     1     5    1
     5     2     6    1
