@<TRIPOS>MOLECULE
No_3315-gen_results/8p0m/2024-11-26-14-13-15/
 12 12 0 0 0
SMALL
GASTEIGER

@<TRIPOS>ATOM
      1 C         -28.0162   -0.8135   28.8779 C.ar    1  UNL1        0.0325
      2 C         -28.4690   -0.7850   29.8287 C.ar    1  UNL1        0.1505
      3 C         -26.5042   -0.7777   28.8766 C.ar    1  UNL1        0.0564
      4 C         -25.6540   -0.6597   27.7191 C.3     1  UNL1        0.3419
      5 C         -27.9180   -0.9374   31.1824 C.ar    1  UNL1        0.0859
      6 C         -26.5423   -0.9399   31.2606 C.ar    1  UNL1        0.0249
      7 C         -25.7832   -0.8935   30.1201 C.ar    1  UNL1        0.0599
      8 F         -26.1510   -0.9708   26.7104 F       1  UNL1       -0.1932
      9 F         -24.3926   -0.3841   27.8261 F       1  UNL1       -0.1932
     10 F         -29.8971   -0.8244   29.8707 F       1  UNL1       -0.2033
     11 CL        -28.8819   -0.9750   32.6159 Cl      1  UNL1       -0.0799
     12 CL        -24.1226   -0.9433   30.2991 Cl      1  UNL1       -0.0824
@<TRIPOS>BOND
     1     3     4    1
     2     4     8    1
     3     4     9    1
     4     2    10    1
     5     5    11    1
     6     7    12    1
     7     1     2   ar
     8     2     5   ar
     9     5     6   ar
    10     6     7   ar
    11     7     3   ar
    12     3     1   ar
