@<TRIPOS>MOLECULE
No_3318-gen_results/8p0m/2024-11-26-14-13-15/
 16 17 0 0 0
SMALL
GASTEIGER

@<TRIPOS>ATOM
      1 C         -28.0162   -0.8135   28.8779 C.ar    1  UNL1        0.0176
      2 C         -28.4690   -0.7850   29.8287 C.ar    1  UNL1        0.0813
      3 C         -28.1816    0.4277   28.1134 C.ar    1  UNL1        0.0014
      4 C         -27.4498    0.6435   26.8500 C.ar    1  UNL1        0.0039
      5 C         -26.1815    0.0357   26.7145 C.ar    1  UNL1        0.0714
      6 C         -25.7800   -0.9326   27.6938 C.ar    1  UNL1        0.0039
      7 C         -26.5568   -1.2134   28.7413 C.ar    1  UNL1        0.0014
      8 N         -29.6101   -0.2783   30.1938 N.ar    1  UNL1       -0.2438
      9 C         -28.1514   -2.0733   30.8111 C.ar    1  UNL1        0.0191
     10 C         -30.4551   -0.6100   31.2728 C.ar    1  UNL1        0.0988
     11 C         -29.0452   -2.3860   31.8901 C.ar    1  UNL1        0.0031
     12 C         -30.1118   -1.5970   32.1364 C.ar    1  UNL1        0.0207
     13 C         -25.2722    0.3511   25.6167 C.3     1  UNL1        0.4186
     14 F         -25.5631   -0.1541   24.6131 F       1  UNL1       -0.1659
     15 F         -23.9746    0.0047   25.9877 F       1  UNL1       -0.1659
     16 F         -25.2922    1.7167   25.4266 F       1  UNL1       -0.1659
@<TRIPOS>BOND
     1     1     2    1
     2     5    13    1
     3    13    14    1
     4    13    15    1
     5    13    16    1
     6     2     8   ar
     7     8    10   ar
     8    10    12   ar
     9    12    11   ar
    10    11     9   ar
    11     9     2   ar
    12     1     3   ar
    13     3     4   ar
    14     4     5   ar
    15     5     6   ar
    16     6     7   ar
    17     7     1   ar
