@<TRIPOS>MOLECULE
No_3319-gen_results/8p0m/2024-11-26-14-13-15/
 29 31 0 0 0
SMALL
GASTEIGER

@<TRIPOS>ATOM
      1 C         -28.0162   -0.8135   28.8779 C.3     1  UNL1        0.1415
      2 C         -27.0636   -0.1189   28.6079 C.ar    1  UNL1       -0.0003
      3 C         -26.9287    1.1713   29.0083 C.ar    1  UNL1        0.0049
      4 C         -25.7702    2.0341   28.6884 C.ar    1  UNL1        0.0901
      5 C         -24.7141    1.4431   27.9188 C.ar    1  UNL1        0.0640
      6 C         -24.8590    0.0783   27.5836 C.ar    1  UNL1        0.0113
      7 C         -25.9647   -0.6606   27.9164 C.ar    1  UNL1       -0.0017
      8 N         -28.7025   -0.6427   30.0750 N.am    1  UNL1       -0.1991
      9 C         -29.7976   -1.3633   30.5080 C.2     1  UNL1        0.2621
     10 C         -30.3289   -2.2310   29.7449 C.3     1  UNL1        0.1842
     11 N         -30.2290   -3.4732   30.1260 N.am    1  UNL1       -0.2272
     12 CL        -23.3459    2.3096   27.5174 Cl      1  UNL1       -0.0820
     13 O         -30.5099   -0.8298   31.4466 O.2     1  UNL1       -0.2715
     14 C         -29.1170   -4.0475   30.5718 C.2     1  UNL1        0.3267
     15 C         -31.3649   -4.4032   30.1853 C.3     1  UNL1        0.2441
     16 O         -28.0191   -3.7610   30.1639 O.2     1  UNL1       -0.2506
     17 N         -29.1625   -5.3793   31.1137 N.am    1  UNL1       -0.1733
     18 C         -30.2574   -6.0871   31.3599 C.3     1  UNL1        0.1608
     19 C         -31.4688   -5.5198   30.9393 C.3     1  UNL1        0.0952
     20 N         -30.1358   -7.2009   32.0953 N.3     1  UNL1       -0.2569
     21 C         -29.6889   -7.2947   33.3531 C.3     1  UNL1        0.0736
     22 C         -30.4644   -8.4196   31.4436 C.3     1  UNL1        0.0736
     23 C         -30.3157   -9.6493   32.1816 C.3     1  UNL1        0.0174
     24 C         -29.9537   -8.2631   34.0235 C.3     1  UNL1        0.0174
     25 C         -30.0987   -9.5654   33.5311 C.3     1  UNL1        0.0029
     26 F         -32.5062   -3.8422   29.7822 F       1  UNL1       -0.2146
     27 C         -25.6268    3.4487   29.0949 C.2     1  UNL1        0.3886
     28 O         -25.4542    3.6858   30.2551 O.co2   1  UNL1       -0.2405
     29 O         -25.7054    4.3221   28.1605 O.co2   1  UNL1       -0.2405
@<TRIPOS>BOND
     1     1     2    1
     2     1     8    1
     3     8     9   am
     4     9    10    1
     5    10    11    1
     6     5    12    1
     7     9    13    2
     8    11    14   am
     9    11    15    1
    10    14    16    2
    11    14    17   am
    12    17    18    1
    13    15    19    1
    14    18    19    1
    15    18    20    1
    16    20    21    1
    17    20    22    1
    18    23    25    1
    19    24    25    1
    20    15    26    1
    21     4    27    1
    22    27    28   ar
    23    27    29   ar
    24    21    24    1
    25    23    22    1
    26     2     3   ar
    27     3     4   ar
    28     4     5   ar
    29     5     6   ar
    30     6     7   ar
    31     7     2   ar
