@<TRIPOS>MOLECULE
No_332-gen_results/8p0m/2024-11-26-14-13-15/
 35 37 0 0 0
SMALL
GASTEIGER

@<TRIPOS>ATOM
      1 C         -28.0162   -0.8135   28.8779 C.ar    1  UNL1        0.0064
      2 C         -27.0636   -0.1190   28.6079 C.ar    1  UNL1        0.0002
      3 C         -26.8756    1.1325   28.9134 C.ar    1  UNL1       -0.0003
      4 C         -27.9014    1.8066   29.6436 C.ar    1  UNL1        0.0002
      5 C         -29.0458   -0.2316   29.7181 C.ar    1  UNL1        0.0757
      6 C         -28.9402    1.0517   30.0597 C.ar    1  UNL1        0.0064
      7 C         -25.8732   -0.7125   27.8045 C.ar    1  UNL1       -0.0003
      8 C         -25.2858    0.0505   26.8000 C.ar    1  UNL1       -0.0042
      9 C         -25.0891    1.4165   27.0153 C.ar    1  UNL1       -0.0216
     10 C         -26.0930    2.0161   27.9805 C.ar    1  UNL1       -0.0042
     11 C         -24.1884    2.1839   26.2738 C.3     1  UNL1        0.0337
     12 C         -23.8107    3.4411   26.6739 C.3     1  UNL1        0.0719
     13 C         -23.4658    1.5877   25.2147 C.3     1  UNL1        0.0056
     14 C         -30.0835   -1.1633   30.2894 C.2     1  UNL1        0.3417
     15 O         -29.9645   -2.0890   30.7507 O.2     1  UNL1       -0.2449
     16 O         -31.3221   -0.6669   30.1126 O.3     1  UNL1       -0.4331
     17 C         -32.3836   -1.4844   30.0323 C.3     1  UNL1        0.3170
     18 C         -33.2590   -1.1601   28.9223 C.2     1  UNL1        0.3625
     19 O         -33.9189   -1.8916   28.4208 O.2     1  UNL1       -0.2459
     20 O         -33.5603    0.1286   28.7270 O.3     1  UNL1       -0.4409
     21 BR        -24.9509    4.1434   26.1782 Br      1  UNL1       -0.0804
     22 C         -33.7365    0.9986   29.3344 C.3     1  UNL1        0.2351
     23 C         -34.7573    1.2862   30.0456 C.ar    1  UNL1        0.0213
     24 C         -34.8421    2.4495   30.9021 C.ar    1  UNL1       -0.0005
     25 C         -35.9530    2.7590   31.7585 C.ar    1  UNL1        0.0044
     26 C         -37.0083    1.7968   31.6488 C.ar    1  UNL1        0.0554
     27 C         -36.9325    0.6930   30.8468 C.ar    1  UNL1        0.0044
     28 C         -35.8280    0.4194   30.1185 C.ar    1  UNL1       -0.0005
     29 C         -38.2265    2.0739   32.4766 C.2     1  UNL1        0.2690
     30 O         -38.2202    2.8555   33.3507 O.2     1  UNL1       -0.2680
     31 N         -39.3637    1.5743   31.9035 N.am    1  UNL1       -0.1741
     32 C         -40.6164    1.7989   32.5460 C.2     1  UNL1        0.0889
     33 C         -41.6412    1.3429   31.9575 C.2     1  UNL1        0.0179
     34 C         -42.9418    1.5079   32.5054 C.2     1  UNL1        0.0014
     35 C         -44.1392    1.0202   31.9284 C.2     1  UNL1        0.0000
@<TRIPOS>BOND
     1     9    11    1
     2    11    12    1
     3    11    13    1
     4     5    14    1
     5    14    15    2
     6    14    16    1
     7    16    17    1
     8    17    18    1
     9    18    19    2
    10    18    20    1
    11    12    21    1
    12    20    22    1
    13    26    29    1
    14    29    30    2
    15    29    31   am
    16    31    32    1
    17    32    33    2
    18    33    34    1
    19    34    35    2
    20    22    23    1
    21    23    24   ar
    22    24    25   ar
    23    25    26   ar
    24    26    27   ar
    25    27    28   ar
    26    28    23   ar
    27     1     2   ar
    28     3     4   ar
    29     4     6   ar
    30     6     5   ar
    31     5     1   ar
    32     2     3   ar
    33     3    10   ar
    34    10     9   ar
    35     9     8   ar
    36     8     7   ar
    37     7     2   ar
