@<TRIPOS>MOLECULE
No_3320-gen_results/8p0m/2024-11-26-14-13-15/
 8 8 0 0 0
SMALL
GASTEIGER

@<TRIPOS>ATOM
      1 C         -28.0162   -0.8135   28.8779 C.ar    1  UNL1        0.0056
      2 C         -27.0636   -0.1190   28.6079 C.ar    1  UNL1        0.0298
      3 C         -26.9716    0.7139   27.5060 C.ar    1  UNL1        0.1433
      4 C         -28.1053    0.7744   26.6421 C.ar    1  UNL1        0.0716
      5 C         -29.2041    0.1179   27.0477 C.ar    1  UNL1        0.1980
      6 C         -29.2127   -0.6088   28.1281 C.ar    1  UNL1        0.0422
      7 O         -30.2936    0.2344   26.2281 O.3     1  UNL1       -0.2865
      8 F         -25.8516    1.3888   27.1742 F       1  UNL1       -0.2041
@<TRIPOS>BOND
     1     5     7    1
     2     3     8    1
     3     1     2   ar
     4     2     3   ar
     5     3     4   ar
     6     4     5   ar
     7     5     6   ar
     8     6     1   ar
