@<TRIPOS>MOLECULE
No_3321-gen_results/8p0m/2024-11-26-14-13-15/
 20 22 0 0 0
SMALL
GASTEIGER

@<TRIPOS>ATOM
      1 C         -28.0162   -0.8135   28.8779 C.ar    1  UNL1        0.0671
      2 C         -28.4690   -0.7850   29.8287 C.ar    1  UNL1        0.1432
      3 C         -26.5042   -0.7777   28.8766 C.ar    1  UNL1        0.1474
      4 C         -25.9150   -0.6580   29.9230 C.ar    1  UNL1        0.0347
      5 C         -27.9691   -0.7243   31.2047 C.ar    1  UNL1        0.0298
      6 C         -26.5847   -0.6393   31.2062 C.ar    1  UNL1        0.0053
      7 C         -24.4026   -0.5847   30.0419 C.ar    1  UNL1        0.0029
      8 C         -23.7439   -1.3708   30.5510 C.ar    1  UNL1        0.0001
      9 C         -23.7680    0.5718   29.3937 C.ar    1  UNL1        0.0001
     10 C         -22.3979    0.6096   29.2678 C.ar    1  UNL1        0.0000
     11 C         -22.2827   -1.3635   30.6651 C.ar    1  UNL1        0.0000
     12 C         -21.6705   -0.3834   29.9519 C.ar    1  UNL1        0.0000
     13 F         -29.9498   -0.8429   29.8498 F       1  UNL1       -0.2041
     14 O         -25.8349   -0.7720   27.6770 O.3     1  UNL1       -0.4534
     15 C         -26.2450    0.1111   26.6650 C.ar    1  UNL1        0.1453
     16 C         -25.5544    1.2414   26.4685 C.ar    1  UNL1        0.0375
     17 C         -27.3048   -0.2184   25.8330 C.ar    1  UNL1        0.0375
     18 C         -27.6081    0.5739   24.7527 C.ar    1  UNL1        0.0031
     19 C         -25.7441    2.0897   25.4424 C.ar    1  UNL1        0.0031
     20 C         -26.8544    1.7908   24.5784 C.ar    1  UNL1        0.0002
@<TRIPOS>BOND
     1     4     7    1
     2     2    13    1
     3     3    14    1
     4    14    15    1
     5     7     8   ar
     6     8    11   ar
     7    11    12   ar
     8    12    10   ar
     9    10     9   ar
    10     9     7   ar
    11     1     2   ar
    12     2     5   ar
    13     5     6   ar
    14     6     4   ar
    15     4     3   ar
    16     3     1   ar
    17    15    16   ar
    18    16    19   ar
    19    19    20   ar
    20    20    18   ar
    21    18    17   ar
    22    17    15   ar
