@<TRIPOS>MOLECULE
No_3322-gen_results/8p0m/2024-11-26-14-13-15/
 22 24 0 0 0
SMALL
GASTEIGER

@<TRIPOS>ATOM
      1 C         -28.0162   -0.8135   28.8779 C.ar    1  UNL1        0.0032
      2 C         -28.4690   -0.7850   29.8287 C.ar    1  UNL1       -0.0002
      3 C         -28.1960    0.3478   28.0550 C.ar    1  UNL1        0.0386
      4 C         -27.4421    0.5100   26.7946 C.2     1  UNL1        0.1955
      5 C         -26.4394    0.8329   26.6142 C.ar    1  UNL1        0.0389
      6 C         -25.5003    1.4288   27.3463 C.ar    1  UNL1        0.0029
      7 C         -24.1062    1.7626   27.0255 C.ar    1  UNL1       -0.0042
      8 C         -23.8743    1.8754   25.6523 C.ar    1  UNL1       -0.0218
      9 C         -29.4739    0.1046   30.3723 C.ar    1  UNL1       -0.0039
     10 C         -29.1038    1.3012   28.4198 C.ar    1  UNL1       -0.0008
     11 C         -29.7399    1.1846   29.5967 C.ar    1  UNL1       -0.0177
     12 C         -25.7990    0.7618   25.1150 C.ar    1  UNL1        0.0029
     13 C         -22.4975    2.3676   25.3760 C.3     1  UNL1        0.0310
     14 C         -24.6370    1.2519   24.7342 C.ar    1  UNL1       -0.0042
     15 O         -28.2188   -0.0674   25.7903 O.2     1  UNL1       -0.2866
     16 C         -30.7234    2.2088   30.0407 C.3     1  UNL1        0.0526
     17 C         -30.2080    3.2630   30.6198 C.ar    1  UNL1       -0.0178
     18 C         -31.1073    4.3353   31.0709 C.ar    1  UNL1       -0.0039
     19 C         -30.6056    5.5082   31.7226 C.ar    1  UNL1       -0.0003
     20 C         -28.9423    3.4233   31.2603 C.ar    1  UNL1       -0.0039
     21 C         -28.4552    4.5428   31.8911 C.ar    1  UNL1       -0.0003
     22 C         -29.3198    5.5768   32.1718 C.ar    1  UNL1       -0.0000
@<TRIPOS>BOND
     1     3     4    1
     2     4     5    1
     3     8    13    1
     4     4    15    2
     5    11    16    1
     6    16    17    1
     7    17    18   ar
     8    18    19   ar
     9    19    22   ar
    10    22    21   ar
    11    21    20   ar
    12    20    17   ar
    13     5     6   ar
    14     6     7   ar
    15     7     8   ar
    16     8    14   ar
    17    14    12   ar
    18    12     5   ar
    19     1     2   ar
    20     2     9   ar
    21     9    11   ar
    22    11    10   ar
    23    10     3   ar
    24     3     1   ar
