@<TRIPOS>MOLECULE
No_3324-gen_results/8p0m/2024-11-26-14-13-15/
 17 18 0 0 0
SMALL
GASTEIGER

@<TRIPOS>ATOM
      1 C         -28.0162   -0.8135   28.8779 C.ar    1  UNL1        0.1373
      2 C         -27.0636   -0.1189   28.6079 C.ar    1  UNL1        0.0091
      3 C         -27.0010    0.6913   27.4910 C.ar    1  UNL1       -0.0009
      4 C         -28.1373    0.7363   26.6350 C.ar    1  UNL1        0.0112
      5 C         -29.2360    0.0765   27.0690 C.ar    1  UNL1        0.0599
      6 C         -29.2177   -0.6429   28.1747 C.ar    1  UNL1        0.0407
      7 F         -28.0466   -1.5481   30.0087 F       1  UNL1       -0.2045
      8 CL        -30.6185    0.1643   26.0677 Cl      1  UNL1       -0.0822
      9 C         -25.8799   -0.2881   29.6086 C.3     1  UNL1        0.0468
     10 C         -25.7292    0.5882   30.6168 C.ar    1  UNL1       -0.0184
     11 C         -26.3302    1.8186   30.6612 C.ar    1  UNL1       -0.0040
     12 C         -25.9883    2.6815   31.7552 C.ar    1  UNL1       -0.0003
     13 C         -25.1707    2.2520   32.7574 C.ar    1  UNL1       -0.0000
     14 C         -24.5610    1.0288   32.7038 C.ar    1  UNL1       -0.0003
     15 C         -24.7922    0.2057   31.6493 C.ar    1  UNL1       -0.0040
     16 C         -25.6771   -1.7575   29.9378 C.3     1  UNL1        0.0088
     17 C         -26.3992   -2.6984   29.4168 C.3     1  UNL1        0.0007
@<TRIPOS>BOND
     1     1     7    1
     2     5     8    1
     3     2     9    1
     4     9    16    1
     5    16    17    1
     6     9    10    1
     7     1     2   ar
     8     2     3   ar
     9     3     4   ar
    10     4     5   ar
    11     5     6   ar
    12     6     1   ar
    13    10    11   ar
    14    11    12   ar
    15    12    13   ar
    16    13    14   ar
    17    14    15   ar
    18    15    10   ar
