@<TRIPOS>MOLECULE
No_3325-gen_results/8p0m/2024-11-26-14-13-15/
 17 18 0 0 0
SMALL
GASTEIGER

@<TRIPOS>ATOM
      1 C         -28.0162   -0.8135   28.8779 C.ar    1  UNL1        0.0293
      2 C         -28.4690   -0.7850   29.8287 C.ar    1  UNL1        0.1401
      3 C         -26.5042   -0.7777   28.8766 C.ar    1  UNL1       -0.0012
      4 C         -25.8103   -0.8531   30.1028 C.ar    1  UNL1       -0.0109
      5 C         -27.9906   -0.8916   31.2257 C.ar    1  UNL1        0.0293
      6 C         -26.6042   -0.8676   31.2652 C.ar    1  UNL1       -0.0012
      7 F         -29.9203   -0.8331   29.8239 F       1  UNL1       -0.2042
      8 C         -24.3796   -0.8022   30.1424 C.3     1  UNL1        0.1093
      9 C         -23.6323   -0.3170   29.1196 C.ar    1  UNL1       -0.0102
     10 C         -23.8326    0.7884   28.3454 C.ar    1  UNL1        0.0079
     11 C         -22.8837    1.2746   27.4542 C.ar    1  UNL1        0.0574
     12 C         -21.5320    1.0572   27.7284 C.ar    1  UNL1        0.0114
     13 C         -21.2127    0.0445   28.6171 C.ar    1  UNL1        0.0006
     14 C         -22.1491   -0.5703   29.3901 C.ar    1  UNL1       -0.0035
     15 C         -23.7967   -1.2924   31.4210 C.2     1  UNL1        0.2157
     16 CL        -23.2936    2.5254   26.3373 Cl      1  UNL1       -0.0823
     17 O         -23.7580   -0.4712   32.4209 O.2     1  UNL1       -0.2876
@<TRIPOS>BOND
     1     2     7    1
     2     4     8    1
     3     8     9    1
     4     8    15    1
     5    11    16    1
     6    15    17    2
     7     9    10   ar
     8    10    11   ar
     9    11    12   ar
    10    12    13   ar
    11    13    14   ar
    12    14     9   ar
    13     1     2   ar
    14     2     5   ar
    15     5     6   ar
    16     6     4   ar
    17     4     3   ar
    18     3     1   ar
