@<TRIPOS>MOLECULE
No_3327-gen_results/8p0m/2024-11-26-14-13-15/
 10 10 0 0 0
SMALL
GASTEIGER

@<TRIPOS>ATOM
      1 C         -28.0162   -0.8135   28.8779 C.3     1  UNL1        0.1515
      2 C         -27.0636   -0.1189   28.6079 C.ar    1  UNL1        0.0020
      3 C         -27.0010    0.6913   27.4910 C.ar    1  UNL1       -0.0023
      4 C         -25.8548    1.4825   27.0830 C.ar    1  UNL1       -0.0003
      5 C         -24.6901    1.4526   27.8807 C.ar    1  UNL1       -0.0000
      6 C         -24.7379    0.6010   29.0416 C.ar    1  UNL1       -0.0003
      7 C         -25.8234   -0.1688   29.3887 C.ar    1  UNL1       -0.0023
      8 N         -28.7568   -0.5479   30.0191 N.2     1  UNL1       -0.2687
      9 C         -28.9317    0.3890   30.5031 C.2     1  UNL1        0.0675
     10 C         -29.7866    0.4606   31.8117 C.3     1  UNL1        0.0529
@<TRIPOS>BOND
     1     1     2    1
     2     1     8    1
     3     8     9    2
     4     9    10    1
     5     2     3   ar
     6     3     4   ar
     7     4     5   ar
     8     5     6   ar
     9     6     7   ar
    10     7     2   ar
