@<TRIPOS>MOLECULE
No_3328-gen_results/8p0m/2024-11-26-14-13-15/
 20 23 0 0 0
SMALL
GASTEIGER

@<TRIPOS>ATOM
      1 C         -28.0162   -0.8135   28.8779 C.ar    1  UNL1        0.0376
      2 C         -28.4690   -0.7850   29.8287 C.ar    1  UNL1        0.1483
      3 C         -27.0871    0.2903   28.6377 C.ar    1  UNL1        0.0032
      4 C         -26.8317    1.2487   29.5869 C.ar    1  UNL1        0.0025
      5 C         -28.3914    0.0801   31.0065 C.ar    1  UNL1        0.0735
      6 C         -27.4940    1.1521   30.7841 C.ar    1  UNL1        0.0063
      7 C         -26.2596    0.6039   27.4149 C.ar    1  UNL1        0.0024
      8 C         -25.1967    1.0461   27.3445 C.ar    1  UNL1        0.0296
      9 C         -24.8438    2.0437   28.4640 C.ar    1  UNL1        0.1401
     10 C         -25.5969    2.0134   29.6123 C.ar    1  UNL1        0.0296
     11 F         -23.7489    2.7896   28.2583 F       1  UNL1       -0.2042
     12 O         -29.5012   -1.8345   30.1003 O.2     1  UNL1       -0.4533
     13 C         -29.9400   -2.1004   31.3687 C.ar    1  UNL1        0.1483
     14 C         -30.2429   -3.2273   31.6495 C.ar    1  UNL1        0.0376
     15 C         -30.7328   -3.6642   32.9689 C.ar    1  UNL1        0.0031
     16 C         -30.8061   -2.6761   33.9678 C.ar    1  UNL1        0.0003
     17 C         -30.4161   -1.4159   33.6348 C.ar    1  UNL1        0.0062
     18 C         -29.9482   -1.1028   32.3919 C.ar    1  UNL1        0.0735
     19 C         -29.0962   -0.1140   32.2285 C.ar    1  UNL1        0.2014
     20 O         -28.7904    0.6715   33.2416 O.2     1  UNL1       -0.2864
@<TRIPOS>BOND
     1     9    11    1
     2     2    12   ar
     3    12    13   ar
     4     5    19   ar
     5    18    19   ar
     6    19    20    2
     7     4    10   ar
     8    10     9   ar
     9     9     8   ar
    10     8     7   ar
    11     7     3   ar
    12    13    14   ar
    13    14    15   ar
    14    15    16   ar
    15    16    17   ar
    16    17    18   ar
    17    18    13   ar
    18     1     2   ar
    19     2     5   ar
    20     5     6   ar
    21     6     4   ar
    22     4     3   ar
    23     3     1   ar
