@<TRIPOS>MOLECULE
No_3330-gen_results/8p0m/2024-11-26-14-13-15/
 17 17 0 0 0
SMALL
GASTEIGER

@<TRIPOS>ATOM
      1 C         -28.0162   -0.8135   28.8779 C.2     1  UNL1        0.0062
      2 C         -28.4690   -0.7850   29.8287 C.2     1  UNL1       -0.0023
      3 C         -26.5455   -0.8762   28.8500 C.3     1  UNL1        0.1792
      4 C         -25.8041   -1.0324   30.0571 C.3     1  UNL1        0.2668
      5 C         -26.5373   -1.0386   31.2171 C.2     1  UNL1        0.0167
      6 C         -27.8843   -0.9532   31.1862 C.2     1  UNL1       -0.0019
      7 C         -24.3655   -1.1134   30.0483 C.3     1  UNL1        0.4308
      8 F         -23.8409    0.0468   30.2589 F       1  UNL1       -0.1669
      9 F         -23.8967   -1.8871   31.0536 F       1  UNL1       -0.1669
     10 F         -23.8227   -1.5898   28.9219 F       1  UNL1       -0.1669
     11 F         -25.5023   -2.0679   29.7766 F       1  UNL1       -0.2237
     12 O         -26.0030    0.2452   28.3362 O.3     1  UNL1       -0.3485
     13 C         -25.7908    0.4362   26.9291 C.3     1  UNL1        0.1431
     14 C         -26.1036    1.7338   26.4952 C.3     1  UNL1        0.0403
     15 C         -25.1941    2.5602   26.9900 C.3     1  UNL1        0.0748
     16 C         -25.2006    2.9502   28.3194 C.2     1  UNL1        0.2075
     17 O         -25.1637    3.9514   28.7352 O.2     1  UNL1       -0.2883
@<TRIPOS>BOND
     1     1     2    2
     2     1     3    1
     3     3     4    1
     4     4     5    1
     5     2     6    1
     6     5     6    2
     7     4     7    1
     8     7     8    1
     9     7     9    1
    10     7    10    1
    11     4    11    1
    12     3    12    1
    13    12    13    1
    14    13    14    1
    15    14    15    1
    16    15    16    1
    17    16    17    2
