@<TRIPOS>MOLECULE
No_3331-gen_results/8p0m/2024-11-26-14-13-15/
 27 28 0 0 0
SMALL
GASTEIGER

@<TRIPOS>ATOM
      1 C         -28.0162   -0.8135   28.8779 C.ar    1  UNL1        0.0103
      2 C         -28.4690   -0.7850   29.8287 C.ar    1  UNL1        0.0758
      3 C         -28.1816    0.4277   28.1134 C.ar    1  UNL1        0.0718
      4 C         -28.9841    1.4155   28.5154 C.ar    1  UNL1        0.0104
      5 C         -29.3802    0.1384   30.4612 C.ar    1  UNL1        0.0130
      6 C         -29.5415    1.2736   29.7242 C.ar    1  UNL1        0.0799
      7 C         -27.4452    0.4872   26.7726 C.3     1  UNL1        0.4186
      8 F         -28.1098    0.2408   25.8110 F       1  UNL1       -0.1659
      9 F         -26.3477   -0.3394   26.8154 F       1  UNL1       -0.1659
     10 F         -26.9057    1.7585   26.5489 F       1  UNL1       -0.1659
     11 C         -30.4662    2.3490   30.2248 C.2     1  UNL1        0.3877
     12 O         -31.2433    2.8779   29.6676 O.co2   1  UNL1       -0.2406
     13 O         -30.1729    2.6631   31.5389 O.co2   1  UNL1       -0.2406
     14 C         -28.2594   -2.1508   30.7537 C.2     1  UNL1        0.3417
     15 O         -28.2300   -2.2994   31.7981 O.2     1  UNL1       -0.2449
     16 O         -27.7099   -3.0988   29.9794 O.3     1  UNL1       -0.4352
     17 C         -27.9714   -4.4592   30.3905 C.3     1  UNL1        0.2948
     18 C         -29.3815   -4.8352   30.2789 C.2     1  UNL1        0.2902
     19 O         -29.9479   -4.6279   29.2590 O.2     1  UNL1       -0.2689
     20 N         -30.0247   -5.0654   31.4061 N.am    1  UNL1       -0.1761
     21 C         -31.4540   -5.4245   31.4081 C.ar    1  UNL1        0.0736
     22 C         -32.0118   -5.6533   32.3332 C.ar    1  UNL1        0.0189
     23 C         -33.4481   -5.9791   32.3888 C.ar    1  UNL1        0.0310
     24 C         -34.0854   -6.0060   31.1406 C.ar    1  UNL1        0.1402
     25 C         -33.3541   -5.7509   29.9935 C.ar    1  UNL1        0.0310
     26 C         -32.0456   -5.4295   30.0810 C.ar    1  UNL1        0.0189
     27 F         -35.3828   -6.2862   31.0269 F       1  UNL1       -0.2042
@<TRIPOS>BOND
     1     3     7    1
     2     7     8    1
     3     7     9    1
     4     7    10    1
     5     6    11    1
     6    11    12   ar
     7    11    13   ar
     8     2    14    1
     9    14    15    2
    10    14    16    1
    11    16    17    1
    12    17    18    1
    13    18    19    2
    14    18    20   am
    15    20    21    1
    16    24    27    1
    17     1     2   ar
    18     2     5   ar
    19     5     6   ar
    20     6     4   ar
    21     4     3   ar
    22     3     1   ar
    23    21    22   ar
    24    22    23   ar
    25    23    24   ar
    26    24    25   ar
    27    25    26   ar
    28    26    21   ar
