@<TRIPOS>MOLECULE
No_3332-gen_results/8p0m/2024-11-26-14-13-15/
 35 38 0 0 0
SMALL
GASTEIGER

@<TRIPOS>ATOM
      1 C         -28.0162   -0.8135   28.8779 C.ar    1  UNL1       -0.0029
      2 C         -28.4690   -0.7850   29.8287 C.ar    1  UNL1       -0.0024
      3 C         -28.1816    0.4277   28.1134 C.ar    1  UNL1       -0.0042
      4 C         -27.4498    0.6435   26.8500 C.ar    1  UNL1       -0.0217
      5 C         -27.8596    1.4573   25.9076 C.ar    1  UNL1       -0.0255
      6 C         -29.4263    0.1097   30.4178 C.ar    1  UNL1       -0.0026
      7 C         -29.6233    1.2198   29.7351 C.ar    1  UNL1       -0.0003
      8 C         -28.9609    1.4529   28.5513 C.ar    1  UNL1       -0.0003
      9 C         -28.7869    2.5467   26.3167 C.ar    1  UNL1       -0.0046
     10 C         -29.4265    2.4288   27.5639 C.ar    1  UNL1       -0.0003
     11 C         -26.4246   -0.3341   26.3854 C.3     1  UNL1        0.0523
     12 C         -25.0626    0.2808   26.7688 C.ar    1  UNL1       -0.0170
     13 C         -24.6674    0.8467   27.8513 C.ar    1  UNL1        0.0075
     14 C         -23.4297    1.3346   28.0260 C.ar    1  UNL1        0.0574
     15 C         -22.7297    1.8226   26.9226 C.ar    1  UNL1        0.0114
     16 C         -23.2911    1.5718   25.6479 C.ar    1  UNL1        0.0006
     17 C         -24.4581    0.8633   25.5168 C.ar    1  UNL1       -0.0039
     18 CL        -22.8904    1.6664   29.5947 Cl      1  UNL1       -0.0823
     19 C         -27.2948    1.6744   24.6211 C.3     1  UNL1        0.0307
     20 C         -28.2430   -2.1150   30.7752 C.3     1  UNL1        0.1188
     21 N         -27.6634   -3.0398   30.3066 N.pl3   1  UNL1       -0.2887
     22 C         -28.1650   -4.3477   30.2492 C.3     1  UNL1        0.1836
     23 C         -26.2570   -3.0504   29.8871 C.ar    1  UNL1        0.0491
     24 C         -25.5909   -4.0959   29.3639 C.ar    1  UNL1        0.0146
     25 N         -29.4349   -4.5249   30.7118 N.3     1  UNL1       -0.1970
     26 C         -24.3118   -3.9185   28.9039 C.ar    1  UNL1        0.0013
     27 C         -23.6771   -2.6600   28.8643 C.ar    1  UNL1        0.0001
     28 C         -24.2502   -1.6045   29.5947 C.ar    1  UNL1        0.0013
     29 C         -25.5530   -1.7519   30.0199 C.ar    1  UNL1        0.0146
     30 C         -30.2384   -5.5775   30.4534 C.3     1  UNL1        0.0961
     31 C         -30.9455   -5.3147   29.2491 C.3     1  UNL1        0.0557
     32 C         -31.2857   -4.1885   28.8377 C.3     1  UNL1        0.1006
     33 C         -31.1359   -6.4691   28.3442 C.2     1  UNL1       -0.0238
     34 CL        -32.2908   -3.9458   28.4605 Cl      1  UNL1       -0.1133
     35 C         -31.0476   -6.4337   27.0703 C.2     1  UNL1       -0.0048
@<TRIPOS>BOND
     1     4    11    1
     2    11    12    1
     3    14    18    1
     4     5    19    1
     5     2    20    1
     6    20    21    1
     7    21    22    1
     8    21    23    1
     9    22    25    1
    10    25    30    1
    11    30    31    1
    12    31    32    1
    13    31    33    1
    14    32    34    1
    15    33    35    2
    16    12    13   ar
    17    13    14   ar
    18    14    15   ar
    19    15    16   ar
    20    16    17   ar
    21    17    12   ar
    22    23    24   ar
    23    24    26   ar
    24    26    27   ar
    25    27    28   ar
    26    28    29   ar
    27    29    23   ar
    28     3     4   ar
    29     4     5   ar
    30     5     9   ar
    31     9    10   ar
    32    10     8   ar
    33     1     2   ar
    34     2     6   ar
    35     6     7   ar
    36     7     8   ar
    37     8     3   ar
    38     3     1   ar
