@<TRIPOS>MOLECULE
No_3333-gen_results/8p0m/2024-11-26-14-13-15/
 35 37 0 0 0
SMALL
GASTEIGER

@<TRIPOS>ATOM
      1 C         -28.0162   -0.8135   28.8779 C.2     1  UNL1        0.2648
      2 C         -27.0636   -0.1189   28.6079 C.ar    1  UNL1        0.0550
      3 C         -27.0010    0.6913   27.4910 C.ar    1  UNL1        0.0044
      4 C         -25.8548    1.4825   27.0830 C.ar    1  UNL1        0.0040
      5 C         -24.6901    1.4526   27.8807 C.ar    1  UNL1        0.0714
      6 C         -24.7379    0.6010   29.0416 C.ar    1  UNL1        0.0040
      7 C         -25.8234   -0.1688   29.3887 C.ar    1  UNL1        0.0045
      8 N         -29.2075   -0.1514   29.0660 N.am    1  UNL1       -0.2020
      9 C         -30.2318   -0.7607   29.6957 C.3     1  UNL1        0.1116
     10 C         -23.4171    1.9100   27.5909 C.3     1  UNL1        0.4186
     11 F         -22.7545    1.4450   26.9963 F       1  UNL1       -0.1659
     12 F         -22.8204    2.3719   28.8390 F       1  UNL1       -0.1659
     13 F         -23.7171    3.2597   27.0578 F       1  UNL1       -0.1659
     14 C         -31.5265   -0.5089   29.3172 C.3     1  UNL1        0.0245
     15 C         -30.0101   -1.6776   30.8098 C.3     1  UNL1        0.0942
     16 N         -31.0555   -2.3334   31.3924 N.3     1  UNL1       -0.2641
     17 C         -32.6068   -1.2164   29.9674 C.3     1  UNL1        0.0191
     18 C         -32.3194   -2.0412   31.0292 C.3     1  UNL1        0.0725
     19 O         -27.9264   -1.9473   29.3137 O.2     1  UNL1       -0.2684
     20 C         -30.7778   -3.2127   32.5379 C.3     1  UNL1        0.1767
     21 C         -29.8571   -4.2022   32.2445 C.3     1  UNL1        0.4121
     22 F         -28.7325   -3.7745   31.8945 F       1  UNL1       -0.1685
     23 F         -29.6328   -5.0549   33.2495 F       1  UNL1       -0.1685
     24 F         -30.3467   -4.9509   31.1561 F       1  UNL1       -0.1685
     25 C         -28.1460    0.8781   26.6140 C.ar    1  UNL1        0.0003
     26 C         -28.4286    0.1260   25.4998 C.ar    1  UNL1        0.0000
     27 C         -29.5690    0.2815   24.7480 C.ar    1  UNL1        0.0001
     28 C         -30.5578    1.1784   25.1489 C.ar    1  UNL1        0.0046
     29 C         -30.3646    1.9865   26.2667 C.ar    1  UNL1        0.0554
     30 C         -29.1865    1.8429   27.0518 C.ar    1  UNL1        0.0046
     31 C         -31.4070    2.9388   26.6729 C.2     1  UNL1        0.2690
     32 N         -31.3102    3.6331   27.7317 N.am    1  UNL1       -0.1741
     33 O         -32.2371    3.3136   25.8301 O.2     1  UNL1       -0.2680
     34 C         -32.2753    4.5940   28.2064 C.2     1  UNL1        0.0890
     35 C         -32.3971    4.9500   29.1770 C.2     1  UNL1        0.0193
@<TRIPOS>BOND
     1     1     2    1
     2     1     8   am
     3     8     9    1
     4     5    10    1
     5    10    11    1
     6    10    12    1
     7    10    13    1
     8     9    15    1
     9    15    16    1
    10    14    17    1
    11    16    18    1
    12     1    19    2
    13    16    20    1
    14    20    21    1
    15    21    22    1
    16    21    23    1
    17    21    24    1
    18     3    25    1
    19    29    31    1
    20    31    32   am
    21    31    33    2
    22    32    34    1
    23    34    35    2
    24     9    14    1
    25    17    18    1
    26     2     3   ar
    27     3     4   ar
    28     4     5   ar
    29     5     6   ar
    30     6     7   ar
    31     7     2   ar
    32    25    26   ar
    33    26    27   ar
    34    27    28   ar
    35    28    29   ar
    36    29    30   ar
    37    30    25   ar
