@<TRIPOS>MOLECULE
No_3335-gen_results/8p0m/2024-11-26-14-13-15/
 16 18 0 0 0
SMALL
GASTEIGER

@<TRIPOS>ATOM
      1 C         -28.0162   -0.8135   28.8779 C.ar    1  UNL1        0.0156
      2 C         -28.4690   -0.7850   29.8287 C.ar    1  UNL1        0.0505
      3 C         -26.5042   -0.7777   28.8766 C.ar    1  UNL1        0.0578
      4 C         -25.8103   -0.8531   30.1028 C.ar    1  UNL1        0.0111
      5 C         -27.9906   -0.8916   31.2257 C.ar    1  UNL1       -0.0161
      6 C         -26.6042   -0.8676   31.2652 C.ar    1  UNL1       -0.0032
      7 C         -30.0773   -0.8857   30.0240 C.2     1  UNL1        0.2487
      8 O         -30.6821   -0.3163   29.2532 O.2     1  UNL1       -0.2699
      9 N         -30.6270   -1.7345   30.9655 N.am    1  UNL1       -0.2774
     10 C         -32.0481   -1.8836   30.9924 C.3     1  UNL1        0.0937
     11 CL        -25.6863   -0.6007   27.3887 Cl      1  UNL1       -0.0822
     12 C         -32.4427   -2.8792   31.5762 C.3     1  UNL1        0.0216
     13 C         -31.5943   -3.7675   32.4025 C.3     1  UNL1        0.0035
     14 C         -30.1962   -3.5783   32.3152 C.3     1  UNL1        0.0202
     15 C         -29.7164   -2.6532   31.5476 C.3     1  UNL1        0.0800
     16 C         -28.3256   -2.2888   31.7253 C.3     1  UNL1        0.0463
@<TRIPOS>BOND
     1     2     7    1
     2     7     8    2
     3     7     9   am
     4     9    10    1
     5     3    11    1
     6    12    13    1
     7     9    15    1
     8    14    15    1
     9     5    16    1
    10    15    16    1
    11    10    12    1
    12    13    14    1
    13     1     2   ar
    14     2     5   ar
    15     5     6   ar
    16     6     4   ar
    17     4     3   ar
    18     3     1   ar
