@<TRIPOS>MOLECULE
No_3336-gen_results/8p0m/2024-11-26-14-13-15/
 21 24 0 0 0
SMALL
GASTEIGER

@<TRIPOS>ATOM
      1 C         -28.0162   -0.8135   28.8779 C.3     1  UNL1        0.0371
      2 C         -28.4690   -0.7850   29.8287 C.3     1  UNL1        0.1024
      3 C         -27.0871    0.2903   28.6377 C.ar    1  UNL1       -0.0256
      4 C         -26.0238    0.3644   29.2526 C.ar    1  UNL1       -0.0261
      5 C         -29.4161   -1.9279   30.1751 C.2     1  UNL1        0.3645
      6 C         -26.2326    0.1422   30.7730 C.3     1  UNL1        0.0269
      7 C         -27.3914   -0.7532   31.0134 C.3     1  UNL1        0.0195
      8 O         -29.1634   -3.0010   30.3887 O.co2   1  UNL1       -0.2457
      9 O         -30.6966   -1.5324   30.2438 O.co2   1  UNL1       -0.2457
     10 C         -29.2795    0.5031   30.2031 C.3     1  UNL1        0.0371
     11 C         -29.4322    0.7871   31.3590 C.ar    1  UNL1       -0.0256
     12 C         -29.6981    1.7290   31.8522 C.ar    1  UNL1       -0.0046
     13 C         -29.9957    2.0813   33.3012 C.ar    1  UNL1       -0.0003
     14 C         -29.9557    0.9833   34.1819 C.ar    1  UNL1       -0.0003
     15 C         -29.6833   -0.2636   33.6675 C.ar    1  UNL1       -0.0046
     16 C         -29.4117   -0.4010   32.3717 C.ar    1  UNL1       -0.0261
     17 C         -28.0500   -0.5319   32.4204 C.3     1  UNL1        0.0269
     18 C         -26.6811    0.4515   27.0009 C.ar    1  UNL1       -0.0046
     19 C         -25.5029    0.9076   26.6857 C.ar    1  UNL1       -0.0003
     20 C         -24.4511    1.1100   27.6152 C.ar    1  UNL1       -0.0003
     21 C         -24.7235    0.8373   28.9357 C.ar    1  UNL1       -0.0046
@<TRIPOS>BOND
     1     1     2    1
     2     1     3    1
     3     2     5    1
     4     4     6    1
     5     2     7    1
     6     6     7    1
     7     5     8   ar
     8     5     9   ar
     9     2    10    1
    10    10    11    1
    11     7    17    1
    12    16    17    1
    13    11    12   ar
    14    12    13   ar
    15    13    14   ar
    16    14    15   ar
    17    15    16   ar
    18    16    11   ar
    19     3    18   ar
    20    18    19   ar
    21    19    20   ar
    22    20    21   ar
    23    21     4   ar
    24     4     3   ar
