@<TRIPOS>MOLECULE
No_3337-gen_results/8p0m/2024-11-26-14-13-15/
 34 37 0 0 0
SMALL
GASTEIGER

@<TRIPOS>ATOM
      1 C         -28.0162   -0.8135   28.8779 C.3     1  UNL1        0.0555
      2 C         -27.0636   -0.1190   28.6079 C.3     1  UNL1        0.1869
      3 N         -26.9515    1.1286   28.9566 N.am    1  UNL1       -0.1851
      4 C         -29.1088   -0.2102   29.6318 C.3     1  UNL1        0.1121
      5 C         -30.1959   -1.0433   29.9956 C.2     1  UNL1        0.3215
      6 C         -29.0643    1.1092   29.9938 C.3     1  UNL1        0.0981
      7 C         -27.9090    1.7990   29.6019 C.2     1  UNL1        0.2434
      8 O         -30.8310   -0.7285   31.0146 O.3     1  UNL1       -0.4240
      9 O         -30.4404   -2.1006   29.3385 O.2     1  UNL1       -0.2497
     10 N         -25.8822   -0.6039   27.9510 N.pl3   1  UNL1       -0.2176
     11 C         -24.5739   -0.2866   28.3704 C.ar    1  UNL1        0.0673
     12 C         -24.3162    0.1079   29.5159 C.ar    1  UNL1        0.0185
     13 C         -22.8939    0.3734   29.9014 C.ar    1  UNL1        0.0310
     14 C         -21.9257    0.1352   28.9553 C.ar    1  UNL1        0.1402
     15 C         -22.2518   -0.1596   27.6597 C.ar    1  UNL1        0.0310
     16 C         -23.4775   -0.3298   27.4832 C.ar    1  UNL1        0.0185
     17 O         -27.7655    3.0597   29.8861 O.2     1  UNL1       -0.2733
     18 F         -20.6544    0.3282   29.2587 F       1  UNL1       -0.2042
     19 C         -31.6554   -1.5426   31.7033 C.ar    1  UNL1        0.1528
     20 C         -32.9437   -1.5552   31.3961 C.ar    1  UNL1        0.0377
     21 C         -33.6723   -2.5433   31.6608 C.ar    1  UNL1        0.0031
     22 C         -33.2409   -3.5693   32.6159 C.ar    1  UNL1        0.0003
     23 C         -31.8914   -3.5550   32.9720 C.ar    1  UNL1        0.0076
     24 C         -30.9801   -2.5420   32.4649 C.ar    1  UNL1        0.0896
     25 C         -29.6019   -2.5682   32.8111 C.2     1  UNL1        0.2681
     26 O         -28.8808   -3.4948   32.3654 O.2     1  UNL1       -0.2682
     27 N         -29.0589   -1.5299   33.5199 N.am    1  UNL1       -0.1967
     28 C         -28.1382   -1.0784   33.9102 C.3     1  UNL1        0.1418
     29 C         -27.7248   -0.0909   34.3986 C.ar    1  UNL1       -0.0006
     30 C         -28.0887    1.0489   34.2941 C.ar    1  UNL1       -0.0026
     31 C         -27.9263    2.1703   35.1386 C.ar    1  UNL1       -0.0003
     32 C         -27.1241    2.0551   36.1171 C.ar    1  UNL1       -0.0000
     33 C         -26.5182    0.8570   36.4166 C.ar    1  UNL1       -0.0003
     34 C         -26.8332   -0.2488   35.6198 C.ar    1  UNL1       -0.0026
@<TRIPOS>BOND
     1     1     2    1
     2     1     4    1
     3     4     5    1
     4     4     6    1
     5     3     7   am
     6     6     7    1
     7     5     8    1
     8     5     9    2
     9     2    10    1
    10    10    11    1
    11     7    17    2
    12    14    18    1
    13     8    19    1
    14    24    25    1
    15    25    26    2
    16    25    27   am
    17    27    28    1
    18    28    29    1
    19     3     2    1
    20    29    30   ar
    21    30    31   ar
    22    31    32   ar
    23    32    33   ar
    24    33    34   ar
    25    34    29   ar
    26    11    12   ar
    27    12    13   ar
    28    13    14   ar
    29    14    15   ar
    30    15    16   ar
    31    16    11   ar
    32    19    20   ar
    33    20    21   ar
    34    21    22   ar
    35    22    23   ar
    36    23    24   ar
    37    24    19   ar
