@<TRIPOS>MOLECULE
No_3338-gen_results/8p0m/2024-11-26-14-13-15/
 14 15 0 0 0
SMALL
GASTEIGER

@<TRIPOS>ATOM
      1 C         -28.0162   -0.8135   28.8779 C.ar    1  UNL1        0.0031
      2 C         -27.0636   -0.1190   28.6079 C.ar    1  UNL1        0.0002
      3 C         -26.9716    0.7139   27.5060 C.ar    1  UNL1        0.0031
      4 C         -28.1053    0.7744   26.6421 C.ar    1  UNL1        0.0369
      5 C         -29.2008    0.1044   27.0527 C.ar    1  UNL1        0.1387
      6 C         -29.2096   -0.6029   28.1853 C.ar    1  UNL1        0.0369
      7 O         -30.2994    0.2279   26.2571 O.3     1  UNL1       -0.4714
      8 C         -25.6209   -0.1306   29.2213 C.ar    1  UNL1        0.0000
      9 C         -25.3050   -1.0782   30.0781 C.ar    1  UNL1        0.0000
     10 C         -24.0201   -1.1349   30.7093 C.ar    1  UNL1        0.0000
     11 C         -23.0545   -0.1671   30.3951 C.ar    1  UNL1        0.0000
     12 C         -23.3966    0.8450   29.4590 C.ar    1  UNL1        0.0000
     13 C         -24.6695    0.8370   28.8708 C.ar    1  UNL1        0.0000
     14 C         -30.2514   -0.2294   25.0105 C.3     1  UNL1        0.2525
@<TRIPOS>BOND
     1     5     7    1
     2     2     8    1
     3     7    14    1
     4     1     2   ar
     5     2     3   ar
     6     3     4   ar
     7     4     5   ar
     8     5     6   ar
     9     6     1   ar
    10     8     9   ar
    11     9    10   ar
    12    10    11   ar
    13    11    12   ar
    14    12    13   ar
    15    13     8   ar
