@<TRIPOS>MOLECULE
No_3339-gen_results/8p0m/2024-11-26-14-13-15/
 20 22 0 0 0
SMALL
GASTEIGER

@<TRIPOS>ATOM
      1 C         -28.0162   -0.8135   28.8779 C.ar    1  UNL1        0.0065
      2 C         -27.0636   -0.1190   28.6079 C.ar    1  UNL1        0.0002
      3 C         -25.7647   -0.3897   29.0360 C.ar    1  UNL1        0.0001
      4 C         -25.5296   -1.5302   29.9014 C.ar    1  UNL1        0.0002
      5 C         -26.6577   -2.2915   30.2035 C.ar    1  UNL1        0.0065
      6 C         -27.8548   -1.9555   29.7630 C.ar    1  UNL1        0.0760
      7 C         -24.5441    0.4126   28.7379 C.ar    1  UNL1        0.0030
      8 C         -24.4731    1.2064   27.7114 C.ar    1  UNL1        0.0377
      9 C         -23.2632    1.9110   27.3928 C.ar    1  UNL1        0.1454
     10 C         -22.0960    1.7116   28.0459 C.ar    1  UNL1        0.0375
     11 C         -23.3012    0.1559   29.4817 C.ar    1  UNL1        0.0002
     12 C         -22.1018    0.8312   29.1085 C.ar    1  UNL1        0.0031
     13 C         -29.0208   -2.7946   30.1817 C.2     1  UNL1        0.3458
     14 O         -30.0643   -2.4767   29.9968 O.3     1  UNL1       -0.4179
     15 O         -28.7496   -3.7112   31.1162 O.2     1  UNL1       -0.2445
     16 O         -23.3182    2.7880   26.3329 O.2     1  UNL1       -0.4504
     17 C         -24.4560    2.5839   25.5671 C.ar    1  UNL1        0.1796
     18 C         -25.4331    1.4990   26.7519 C.ar    1  UNL1        0.0437
     19 C         -31.1989   -3.3897   30.1260 C.2     1  UNL1        0.1832
     20 C         -32.1905   -3.1531   30.4531 C.2     1  UNL1        0.0440
@<TRIPOS>BOND
     1     3     7    1
     2     6    13    1
     3    13    14    1
     4    13    15    2
     5     9    16   ar
     6    16    17   ar
     7     8    18   ar
     8    17    18   ar
     9    14    19    1
    10    19    20    2
    11     7     8   ar
    12     8     9   ar
    13     9    10   ar
    14    10    12   ar
    15    12    11   ar
    16    11     7   ar
    17     1     2   ar
    18     2     3   ar
    19     3     4   ar
    20     4     5   ar
    21     5     6   ar
    22     6     1   ar
