@<TRIPOS>MOLECULE
No_334-gen_results/8p0m/2024-11-26-14-13-15/
 26 28 0 0 0
SMALL
GASTEIGER

@<TRIPOS>ATOM
      1 C         -28.0162   -0.8135   28.8779 C.ar    1  UNL1        0.0046
      2 C         -28.4690   -0.7850   29.8287 C.ar    1  UNL1        0.0554
      3 C         -26.5042   -0.7777   28.8766 C.ar    1  UNL1        0.0016
      4 C         -25.8103   -0.8531   30.1028 C.ar    1  UNL1        0.0178
      5 C         -27.9906   -0.8916   31.2257 C.ar    1  UNL1        0.0046
      6 C         -26.6042   -0.8676   31.2652 C.ar    1  UNL1        0.0016
      7 C         -24.3894   -0.8049   30.1638 C.ar    1  UNL1        0.0846
      8 N         -23.6730   -1.0587   29.2511 N.ar    1  UNL1       -0.2240
      9 C         -22.2987   -0.7318   29.2069 C.ar    1  UNL1        0.1989
     10 C         -23.7193   -0.5756   31.4538 C.ar    1  UNL1        0.0398
     11 C         -22.3073   -0.4272   31.5326 C.ar    1  UNL1        0.1022
     12 N         -21.6369   -0.5322   30.2854 N.ar    1  UNL1       -0.2224
     13 C         -30.0844   -0.7829   29.8366 C.2     1  UNL1        0.2690
     14 O         -30.7649   -1.5970   30.2974 O.2     1  UNL1       -0.2680
     15 N         -30.6022    0.2497   29.1412 N.am    1  UNL1       -0.1755
     16 C         -29.9093    1.3334   28.5764 C.ar    1  UNL1        0.0735
     17 C         -29.9929    1.8484   27.5503 C.ar    1  UNL1        0.0166
     18 C         -29.1742    2.9416   27.0306 C.ar    1  UNL1        0.0011
     19 C         -28.0774    3.3500   27.7844 C.ar    1  UNL1       -0.0009
     20 C         -27.8668    2.7173   29.0311 C.ar    1  UNL1        0.0190
     21 C         -28.6932    1.7478   29.4311 C.ar    1  UNL1        0.0156
     22 C         -26.7489    3.1910   29.8684 C.3     1  UNL1        0.2154
     23 N         -26.4825    2.5758   30.9782 N.2     1  UNL1       -0.2516
     24 C         -25.3522    2.9268   31.7119 C.2     1  UNL1        0.0692
     25 N         -25.9614    4.1793   29.4902 N.3     1  UNL1       -0.1012
     26 C         -25.1067    2.3759   32.9077 C.3     1  UNL1        0.0530
@<TRIPOS>BOND
     1     4     7    1
     2     2    13    1
     3    13    14    2
     4    13    15   am
     5    15    16    1
     6    20    22    1
     7    22    23    1
     8    23    24    2
     9    22    25    1
    10    24    26    1
    11     1     2   ar
    12     2     5   ar
    13     5     6   ar
    14     6     4   ar
    15     4     3   ar
    16     3     1   ar
    17     7     8   ar
    18     8     9   ar
    19     9    12   ar
    20    12    11   ar
    21    11    10   ar
    22    10     7   ar
    23    16    17   ar
    24    17    18   ar
    25    18    19   ar
    26    19    20   ar
    27    20    21   ar
    28    21    16   ar
