@<TRIPOS>MOLECULE
No_3340-gen_results/8p0m/2024-11-26-14-13-15/
 32 34 0 0 0
SMALL
GASTEIGER

@<TRIPOS>ATOM
      1 C         -28.0162   -0.8135   28.8779 C.ar    1  UNL1        0.0042
      2 C         -28.4690   -0.7850   29.8287 C.ar    1  UNL1        0.0737
      3 C         -28.1816    0.4277   28.1134 C.ar    1  UNL1        0.0073
      4 C         -28.9841    1.4155   28.5154 C.ar    1  UNL1        0.0298
      5 C         -29.3802    0.1384   30.4612 C.ar    1  UNL1        0.0335
      6 C         -29.5415    1.2736   29.7242 C.ar    1  UNL1        0.1401
      7 C         -27.4586    0.4934   26.7701 C.ar    1  UNL1        0.0615
      8 C         -27.9200    0.7178   25.7507 C.ar    1  UNL1        0.1430
      9 C         -27.1380    0.6887   24.4860 C.ar    1  UNL1        0.0298
     10 C         -26.0297    0.2238   26.8233 C.ar    1  UNL1        0.1423
     11 C         -25.1759    0.2962   25.7593 C.ar    1  UNL1        0.0371
     12 C         -25.7788    0.4907   24.5616 C.ar    1  UNL1        0.0054
     13 F         -29.2194    0.8994   25.4857 F       1  UNL1       -0.2041
     14 C         -28.2904   -2.1182   30.7619 C.3     1  UNL1        0.4186
     15 F         -28.8478   -3.0120   30.0358 F       1  UNL1       -0.1659
     16 F         -27.1474   -2.2956   31.2386 F       1  UNL1       -0.1659
     17 F         -29.0884   -2.0143   31.9066 F       1  UNL1       -0.1659
     18 F         -30.3852    2.2220   30.1924 F       1  UNL1       -0.2042
     19 O         -25.3465    0.0216   28.0686 O.3     1  UNL1       -0.4628
     20 C         -24.5698    1.0027   28.6607 C.3     1  UNL1        0.2415
     21 C         -23.3800    0.4889   29.0079 C.3     1  UNL1        0.1921
     22 C         -23.1038   -0.0864   30.2454 C.2     1  UNL1        0.3720
     23 C         -22.1753    1.5358   28.7317 C.3     1  UNL1        0.1985
     24 N         -24.6614    2.2721   28.0501 N.3     1  UNL1       -0.2397
     25 O         -21.5454    1.2960   27.4552 O.3     1  UNL1       -0.2196
     26 C         -25.5063    3.3194   28.5527 C.3     1  UNL1        0.0753
     27 C         -25.4580    4.5492   27.8311 C.3     1  UNL1        0.0175
     28 C         -24.0580    2.6762   26.9125 C.3     1  UNL1        0.0753
     29 C         -24.2076    3.8581   26.2016 C.3     1  UNL1        0.0175
     30 C         -24.9059    4.8276   26.7247 C.3     1  UNL1        0.0029
     31 O         -23.2410    0.4071   31.1994 O.co2   1  UNL1       -0.2454
     32 O         -22.8101   -1.4061   30.1974 O.co2   1  UNL1       -0.2454
@<TRIPOS>BOND
     1     3     7    1
     2     8    13    1
     3     2    14    1
     4    14    15    1
     5    14    16    1
     6    14    17    1
     7     6    18    1
     8    10    19    1
     9    19    20    1
    10    20    21    1
    11    21    22    1
    12    21    23    1
    13    20    24    1
    14    23    25    1
    15    24    26    1
    16    24    28    1
    17    27    30    1
    18    29    30    1
    19    22    31   ar
    20    22    32   ar
    21    26    27    1
    22    29    28    1
    23     1     2   ar
    24     2     5   ar
    25     5     6   ar
    26     6     4   ar
    27     4     3   ar
    28     3     1   ar
    29     7     8   ar
    30     8     9   ar
    31     9    12   ar
    32    12    11   ar
    33    11    10   ar
    34    10     7   ar
