@<TRIPOS>MOLECULE
No_3341-gen_results/8p0m/2024-11-26-14-13-15/
 28 31 0 0 0
SMALL
GASTEIGER

@<TRIPOS>ATOM
      1 C         -28.0162   -0.8135   28.8779 C.ar    1  UNL1        0.0369
      2 C         -27.0636   -0.1190   28.6079 C.ar    1  UNL1        0.0031
      3 C         -25.7647   -0.3897   29.0360 C.ar    1  UNL1        0.0002
      4 C         -25.5296   -1.5302   29.9014 C.ar    1  UNL1        0.0031
      5 C         -26.6888   -2.2893   30.1810 C.ar    1  UNL1        0.0369
      6 C         -27.8727   -1.9508   29.7373 C.ar    1  UNL1        0.1391
      7 O         -28.9304   -2.7298   30.1154 O.3     1  UNL1       -0.4699
      8 C         -24.5394    0.4211   28.7421 C.ar    1  UNL1        0.0000
      9 C         -24.5259    1.2743   27.7266 C.ar    1  UNL1        0.0000
     10 C         -23.3174    1.9856   27.4033 C.ar    1  UNL1        0.0000
     11 C         -22.1311    1.7374   28.0503 C.ar    1  UNL1        0.0000
     12 C         -23.2983    0.1369   29.3770 C.ar    1  UNL1        0.0000
     13 C         -22.1005    0.8185   29.0410 C.ar    1  UNL1        0.0000
     14 C         -29.3117   -2.7524   31.4496 C.3     1  UNL1        0.2416
     15 C         -30.6853   -2.6172   31.6294 C.2     1  UNL1        0.2718
     16 O         -31.4162   -2.4476   30.8011 O.2     1  UNL1       -0.2706
     17 N         -31.2009   -3.1225   32.8787 N.am    1  UNL1       -0.2235
     18 C         -30.3628   -3.4550   34.0104 C.3     1  UNL1        0.1014
     19 C         -29.2051   -3.6078   33.6463 C.3     1  UNL1        0.0262
     20 C         -28.5447   -3.2619   32.4427 C.3     1  UNL1        0.0550
     21 C         -32.6428   -2.8441   33.1251 C.2     1  UNL1        0.2548
     22 C         -33.3795   -3.9156   32.7847 C.ar    1  UNL1        0.0540
     23 C         -34.3411   -4.1366   33.2824 C.ar    1  UNL1        0.0045
     24 C         -35.1961   -5.3373   33.0049 C.ar    1  UNL1        0.0001
     25 C         -34.7561   -6.1487   31.9611 C.ar    1  UNL1        0.0000
     26 C         -33.5775   -5.8393   31.2996 C.ar    1  UNL1        0.0001
     27 C         -32.8414   -4.7095   31.7012 C.ar    1  UNL1        0.0045
     28 O         -32.9240   -1.7989   33.6706 O.2     1  UNL1       -0.2695
@<TRIPOS>BOND
     1     6     7    1
     2     3     8    1
     3     7    14    1
     4    14    15    1
     5    15    16    2
     6    15    17   am
     7    17    18    1
     8    14    20    1
     9    19    20    1
    10    17    21   am
    11    21    22    1
    12    21    28    2
    13    19    18    1
    14     1     2   ar
    15     2     3   ar
    16     3     4   ar
    17     4     5   ar
    18     5     6   ar
    19     6     1   ar
    20    22    23   ar
    21    23    24   ar
    22    24    25   ar
    23    25    26   ar
    24    26    27   ar
    25    27    22   ar
    26     8     9   ar
    27     9    10   ar
    28    10    11   ar
    29    11    13   ar
    30    13    12   ar
    31    12     8   ar
