@<TRIPOS>MOLECULE
No_3342-gen_results/8p0m/2024-11-26-14-13-15/
 10 9 0 0 0
SMALL
GASTEIGER

@<TRIPOS>ATOM
      1 C         -28.0162   -0.8135   28.8779 C.3     1  UNL1        0.2850
      2 C         -28.4690   -0.7850   29.8287 C.2     1  UNL1        0.4011
      3 F         -26.9162   -1.5644   28.7368 F       1  UNL1       -0.2201
      4 C         -28.1645    0.0261   27.7584 C.2     1  UNL1        0.0201
      5 C         -27.1847    0.3116   26.8074 C.2     1  UNL1       -0.0016
      6 O         -29.5020   -0.1933   30.0679 O.co2   1  UNL1       -0.2422
      7 O         -28.0843   -1.6570   30.8707 O.co2   1  UNL1       -0.2422
      8 C         -27.3870    1.0474   25.6530 C.2     1  UNL1       -0.0048
      9 C         -28.5393    1.6174   25.5980 C.2     1  UNL1       -0.0258
     10 C         -29.5679    1.4968   26.4657 C.3     1  UNL1        0.0307
@<TRIPOS>BOND
     1     1     2    1
     2     1     3    1
     3     1     4    1
     4     4     5    2
     5     2     6   ar
     6     2     7   ar
     7     5     8    1
     8     8     9    2
     9     9    10    1
