@<TRIPOS>MOLECULE
No_3343-gen_results/8p0m/2024-11-26-14-13-15/
 9 9 0 0 0
SMALL
GASTEIGER

@<TRIPOS>ATOM
      1 C         -28.0162   -0.8135   28.8779 C.ar    1  UNL1        0.0378
      2 C         -27.0636   -0.1189   28.6079 C.ar    1  UNL1        0.0145
      3 C         -26.8756    1.1325   28.9134 C.ar    1  UNL1        0.0579
      4 C         -27.9014    1.8066   29.6436 C.ar    1  UNL1        0.0145
      5 C         -28.9449    1.0388   30.0360 C.ar    1  UNL1        0.0378
      6 C         -29.0273   -0.2890   29.7051 C.ar    1  UNL1        0.1388
      7 CL        -25.5203    2.0636   28.4209 Cl      1  UNL1       -0.0822
      8 O         -30.0337   -1.1389   30.0803 O.3     1  UNL1       -0.4714
      9 C         -29.8052   -2.2649   30.7346 C.3     1  UNL1        0.2525
@<TRIPOS>BOND
     1     3     7    1
     2     6     8    1
     3     8     9    1
     4     1     2   ar
     5     2     3   ar
     6     3     4   ar
     7     4     5   ar
     8     5     6   ar
     9     6     1   ar
