@<TRIPOS>MOLECULE
No_3344-gen_results/8p0m/2024-11-26-14-13-15/
 19 20 0 0 0
SMALL
GASTEIGER

@<TRIPOS>ATOM
      1 C         -28.0162   -0.8135   28.8779 C.ar    1  UNL1        0.0519
      2 C         -27.0636   -0.1189   28.6079 C.ar    1  UNL1       -0.0174
      3 C         -26.9716    0.7139   27.5060 C.ar    1  UNL1       -0.0032
      4 C         -28.1053    0.7744   26.6421 C.ar    1  UNL1        0.0111
      5 C         -29.2008    0.1044   27.0527 C.ar    1  UNL1        0.0578
      6 C         -28.0219   -1.5899   30.0879 C.2     1  UNL1        0.2648
      7 C         -29.1640   -0.6394   28.1484 C.ar    1  UNL1        0.0156
      8 N         -27.0665   -2.4543   30.3037 N.am    1  UNL1       -0.1967
      9 O         -29.0149   -1.6588   30.8762 O.2     1  UNL1       -0.2684
     10 CL        -30.5856    0.2161   26.0644 Cl      1  UNL1       -0.0822
     11 C         -25.8504   -2.5230   29.5167 C.3     1  UNL1        0.1440
     12 C         -24.8468   -1.6362   29.7501 C.ar    1  UNL1        0.0269
     13 C         -23.7710   -1.9899   30.2247 C.ar    1  UNL1       -0.0003
     14 C         -22.8162   -0.9229   30.4469 C.ar    1  UNL1       -0.0001
     15 C         -23.0131    0.3645   30.0116 C.ar    1  UNL1        0.0023
     16 C         -24.1940    0.6898   29.4740 C.ar    1  UNL1        0.0294
     17 C         -25.0991   -0.2873   29.3446 C.ar    1  UNL1        0.1378
     18 F         -25.7731   -0.4245   28.5433 F       1  UNL1       -0.2044
     19 C         -27.0036    1.0633   29.8643 C.3     1  UNL1        0.0312
@<TRIPOS>BOND
     1     1     6    1
     2     6     8   am
     3     6     9    2
     4     5    10    1
     5     8    11    1
     6    11    12    1
     7    17    18    1
     8     2    19    1
     9    12    13   ar
    10    13    14   ar
    11    14    15   ar
    12    15    16   ar
    13    16    17   ar
    14    17    12   ar
    15     1     2   ar
    16     2     3   ar
    17     3     4   ar
    18     4     5   ar
    19     5     7   ar
    20     7     1   ar
