@<TRIPOS>MOLECULE
No_3346-gen_results/8p0m/2024-11-26-14-13-15/
 20 22 0 0 0
SMALL
GASTEIGER

@<TRIPOS>ATOM
      1 C         -28.0162   -0.8135   28.8779 C.ar    1  UNL1        0.0067
      2 C         -27.0636   -0.1190   28.6079 C.ar    1  UNL1        0.0005
      3 C         -25.7647   -0.3897   29.0360 C.ar    1  UNL1        0.0000
      4 C         -24.5516    0.4058   28.7646 C.ar    1  UNL1        0.0002
      5 C         -23.2300    0.1178   29.2575 C.ar    1  UNL1        0.0000
      6 C         -23.0942   -1.1309   29.8730 C.ar    1  UNL1        0.0000
      7 C         -27.7981   -1.9341   29.8560 C.ar    1  UNL1        0.0346
      8 C         -26.5420   -2.3269   30.2580 C.ar    1  UNL1        0.0067
      9 C         -25.4514   -1.5516   29.9079 C.ar    1  UNL1        0.0005
     10 C         -24.1562   -1.9097   30.2809 C.ar    1  UNL1        0.0000
     11 C         -24.6450    1.6582   27.9464 C.ar    1  UNL1        0.0064
     12 C         -24.8958    2.7559   28.5615 C.ar    1  UNL1        0.0798
     13 C         -25.1728    3.9344   27.8440 C.ar    1  UNL1        0.0066
     14 C         -24.4838    1.5571   26.5889 C.ar    1  UNL1        0.0002
     15 C         -24.6766    2.6399   25.9579 C.ar    1  UNL1        0.0000
     16 C         -24.9039    3.9192   26.4651 C.ar    1  UNL1        0.0002
     17 C         -25.1038    2.9243   30.0889 C.2     1  UNL1        0.3878
     18 O         -25.7289    3.9170   30.4820 O.co2   1  UNL1       -0.2406
     19 O         -24.4323    2.1762   30.8557 O.co2   1  UNL1       -0.2406
     20 BR        -29.3611   -2.9394   30.2997 Br      1  UNL1       -0.0490
@<TRIPOS>BOND
     1     4    11    1
     2    12    17    1
     3    17    18   ar
     4    17    19   ar
     5     7    20    1
     6     1     2   ar
     7     2     3   ar
     8     9     8   ar
     9     8     7   ar
    10     7     1   ar
    11    11    12   ar
    12    12    13   ar
    13    13    16   ar
    14    16    15   ar
    15    15    14   ar
    16    14    11   ar
    17     3     4   ar
    18     4     5   ar
    19     5     6   ar
    20     6    10   ar
    21    10     9   ar
    22     9     3   ar
