@<TRIPOS>MOLECULE
No_3347-gen_results/8p0m/2024-11-26-14-13-15/
 27 28 0 0 0
SMALL
GASTEIGER

@<TRIPOS>ATOM
      1 C         -28.0162   -0.8135   28.8779 C.ar    1  UNL1        0.0328
      2 C         -28.4690   -0.7850   29.8287 C.ar    1  UNL1        0.0025
      3 C         -27.0871    0.2903   28.6377 C.ar    1  UNL1        0.1744
      4 C         -26.8317    1.2487   29.5869 C.ar    1  UNL1        0.1721
      5 C         -28.3914    0.0801   31.0065 C.ar    1  UNL1        0.0033
      6 C         -27.4940    1.1521   30.7841 C.ar    1  UNL1        0.0398
      7 F         -26.4060    0.3541   27.4873 F       1  UNL1       -0.2009
      8 O         -25.9728    2.2482   29.3535 O.3     1  UNL1       -0.4552
      9 C         -25.1701    2.5014   28.4275 C.2     1  UNL1        0.1265
     10 C         -24.0120    2.8299   28.6940 C.2     1  UNL1        0.0333
     11 C         -23.0289    1.8512   28.1790 C.2     1  UNL1        0.0028
     12 C         -22.9359    0.8492   28.4182 C.2     1  UNL1        0.0001
     13 C         -23.7897    0.0868   29.2885 C.ar    1  UNL1       -0.0003
     14 C         -23.4911   -1.3180   29.6222 C.ar    1  UNL1       -0.0000
     15 C         -24.4629   -2.0459   30.3088 C.ar    1  UNL1       -0.0003
     16 C         -25.2071   -1.3338   31.2903 C.ar    1  UNL1       -0.0043
     17 C         -25.0910    0.0873   31.4031 C.ar    1  UNL1       -0.0218
     18 C         -24.1969    0.8243   30.4952 C.ar    1  UNL1       -0.0043
     19 C         -24.4973    0.3479   32.8773 C.3     1  UNL1        0.0310
     20 C         -25.9405    3.5718   27.5332 C.3     1  UNL1        0.0793
     21 C         -26.2929    3.3525   26.2684 C.3     1  UNL1        0.0119
     22 C         -26.2496    4.8485   28.1118 C.2     1  UNL1       -0.0189
     23 C         -26.8748    5.8282   27.4582 C.2     1  UNL1       -0.0045
     24 C         -26.0436    2.0845   25.6222 C.3     1  UNL1        0.0008
     25 C         -26.9859    7.0462   28.0904 C.2     1  UNL1       -0.0049
     26 C         -26.6637    7.2634   29.4217 C.2     1  UNL1       -0.0258
     27 C         -26.0926    6.1689   30.1484 C.3     1  UNL1        0.0307
@<TRIPOS>BOND
     1     3     7    1
     2     4     8    1
     3     8     9    1
     4     9    10    2
     5    10    11    1
     6    11    12    2
     7    12    13    1
     8    17    19    1
     9     9    20    1
    10    20    21    1
    11    20    22    1
    12    22    23    2
    13    21    24    1
    14    23    25    1
    15    25    26    2
    16    26    27    1
    17    13    14   ar
    18    14    15   ar
    19    15    16   ar
    20    16    17   ar
    21    17    18   ar
    22    18    13   ar
    23     1     2   ar
    24     2     5   ar
    25     5     6   ar
    26     6     4   ar
    27     4     3   ar
    28     3     1   ar
