@<TRIPOS>MOLECULE
No_3348-gen_results/8p0m/2024-11-26-14-13-15/
 26 28 0 0 0
SMALL
GASTEIGER

@<TRIPOS>ATOM
      1 C         -28.0162   -0.8135   28.8779 C.ar    1  UNL1        0.0011
      2 C         -27.0636   -0.1189   28.6079 C.ar    1  UNL1       -0.0086
      3 C         -25.7923   -0.4302   29.0761 C.ar    1  UNL1       -0.0034
      4 C         -25.5756   -1.5654   29.9363 C.ar    1  UNL1       -0.0002
      5 C         -26.7354   -2.3004   30.2173 C.ar    1  UNL1        0.0045
      6 C         -27.9184   -1.9537   29.7629 C.ar    1  UNL1        0.0548
      7 C         -27.1057    1.1023   27.7593 C.3     1  UNL1        0.1356
      8 C         -26.7157    2.2350   27.9945 C.ar    1  UNL1       -0.0087
      9 C         -26.0688    2.4770   29.3567 C.ar    1  UNL1       -0.0035
     10 C         -25.4405    3.7637   29.5605 C.ar    1  UNL1       -0.0003
     11 C         -25.5223    4.7219   28.6224 C.ar    1  UNL1       -0.0000
     12 C         -26.0122    4.4992   27.3532 C.ar    1  UNL1       -0.0003
     13 C         -26.5923    3.2654   27.0520 C.ar    1  UNL1       -0.0035
     14 C         -27.7989    0.8276   26.4673 C.2     1  UNL1        0.3182
     15 O         -28.9425    1.0199   26.2426 O.2     1  UNL1       -0.2584
     16 F         -27.0392    0.2722   25.5602 F       1  UNL1       -0.1629
     17 C         -29.0977   -2.7145   30.1742 C.2     1  UNL1        0.2651
     18 O         -30.1465   -2.3729   30.1024 O.2     1  UNL1       -0.2684
     19 N         -28.7597   -4.0704   30.4509 N.am    1  UNL1       -0.1968
     20 C         -29.8340   -5.0150   30.7703 C.3     1  UNL1        0.1418
     21 C         -30.7196   -5.2520   29.7816 C.ar    1  UNL1       -0.0006
     22 C         -31.4759   -6.3866   29.9050 C.ar    1  UNL1       -0.0026
     23 C         -32.3436   -6.7813   28.7974 C.ar    1  UNL1       -0.0003
     24 C         -32.3413   -5.9724   27.6199 C.ar    1  UNL1       -0.0000
     25 C         -31.4781   -4.8772   27.5301 C.ar    1  UNL1       -0.0003
     26 C         -30.6400   -4.5593   28.5318 C.ar    1  UNL1       -0.0026
@<TRIPOS>BOND
     1     2     7    1
     2     7    14    1
     3    14    15    2
     4    14    16    1
     5     6    17    1
     6    17    18    2
     7    17    19   am
     8    19    20    1
     9    20    21    1
    10     7     8    1
    11     1     2   ar
    12     2     3   ar
    13     3     4   ar
    14     4     5   ar
    15     5     6   ar
    16     6     1   ar
    17     8     9   ar
    18     9    10   ar
    19    10    11   ar
    20    11    12   ar
    21    12    13   ar
    22    13     8   ar
    23    21    22   ar
    24    22    23   ar
    25    23    24   ar
    26    24    25   ar
    27    25    26   ar
    28    26    21   ar
