@<TRIPOS>MOLECULE
No_3349-gen_results/8p0m/2024-11-26-14-13-15/
 16 16 0 0 0
SMALL
GASTEIGER

@<TRIPOS>ATOM
      1 C         -28.0162   -0.8135   28.8779 C.ar    1  UNL1        0.0043
      2 C         -27.0636   -0.1190   28.6079 C.ar    1  UNL1       -0.0036
      3 C         -25.7923   -0.4302   29.0761 C.ar    1  UNL1       -0.0127
      4 C         -25.5756   -1.5654   29.9363 C.ar    1  UNL1       -0.0036
      5 C         -26.7354   -2.3004   30.2173 C.ar    1  UNL1        0.0043
      6 C         -27.9184   -1.9537   29.7629 C.ar    1  UNL1        0.0550
      7 C         -29.0732   -2.7835   30.1783 C.2     1  UNL1        0.2651
      8 N         -30.2371   -2.2946   30.1694 N.am    1  UNL1       -0.1968
      9 O         -28.8717   -3.9832   30.5613 O.2     1  UNL1       -0.2684
     10 C         -31.4151   -3.0905   30.5077 C.3     1  UNL1        0.1415
     11 C         -24.5335    0.3450   28.7151 C.3     1  UNL1        0.1178
     12 C         -24.0930    1.3618   29.5043 C.2     1  UNL1        0.2782
     13 N         -22.9797    2.0233   29.1209 N.2     1  UNL1       -0.1068
     14 O         -24.7067    1.7567   30.5603 O.2     1  UNL1       -0.2682
     15 C         -32.4122   -2.8901   29.6914 C.2     1  UNL1       -0.0029
     16 C         -33.1386   -2.1528   29.7114 C.2     1  UNL1       -0.0031
@<TRIPOS>BOND
     1     6     7    1
     2     7     8   am
     3     7     9    2
     4     8    10    1
     5     3    11    1
     6    11    12    1
     7    12    13    2
     8    12    14    1
     9    10    15    1
    10    15    16    2
    11     1     2   ar
    12     2     3   ar
    13     3     4   ar
    14     4     5   ar
    15     5     6   ar
    16     6     1   ar
