@<TRIPOS>MOLECULE
No_335-gen_results/8p0m/2024-11-26-14-13-15/
 19 20 0 0 0
SMALL
GASTEIGER

@<TRIPOS>ATOM
      1 C         -28.0162   -0.8135   28.8779 C.ar    1  UNL1        0.0075
      2 C         -28.4690   -0.7850   29.8287 C.ar    1  UNL1        0.0574
      3 C         -28.1816    0.4277   28.1134 C.ar    1  UNL1       -0.0169
      4 C         -28.9841    1.4155   28.5154 C.ar    1  UNL1       -0.0039
      5 C         -29.3802    0.1384   30.4612 C.ar    1  UNL1        0.0114
      6 C         -29.5415    1.2736   29.7242 C.ar    1  UNL1        0.0006
      7 C         -27.3453    0.3423   26.8640 C.3     1  UNL1        0.0526
      8 C         -26.3447    1.4269   26.7580 C.ar    1  UNL1       -0.0181
      9 C         -25.0840    1.1071   26.3139 C.ar    1  UNL1       -0.0040
     10 C         -24.0562    2.1316   26.2847 C.ar    1  UNL1       -0.0006
     11 C         -24.3684    3.3631   26.7901 C.ar    1  UNL1       -0.0043
     12 C         -26.4490    2.7605   27.2561 C.ar    1  UNL1       -0.0082
     13 C         -25.5428    3.7000   27.2180 C.ar    1  UNL1       -0.0223
     14 C         -25.7528    5.0920   27.7064 C.3     1  UNL1        0.0322
     15 C         -25.5354    5.4432   28.8837 C.3     1  UNL1        0.0770
     16 C         -25.9330    4.6417   29.9978 C.3     1  UNL1        0.3189
     17 F         -25.3491    4.9964   31.1438 F       1  UNL1       -0.1984
     18 F         -26.2918    3.5266   29.9388 F       1  UNL1       -0.1984
     19 CL        -28.2879   -2.2955   30.9091 Cl      1  UNL1       -0.0823
@<TRIPOS>BOND
     1     3     7    1
     2     7     8    1
     3    13    14    1
     4    14    15    1
     5    15    16    1
     6    16    17    1
     7    16    18    1
     8     2    19    1
     9     1     2   ar
    10     2     5   ar
    11     5     6   ar
    12     6     4   ar
    13     4     3   ar
    14     3     1   ar
    15     8     9   ar
    16     9    10   ar
    17    10    11   ar
    18    11    13   ar
    19    13    12   ar
    20    12     8   ar
