@<TRIPOS>MOLECULE
No_3351-gen_results/8p0m/2024-11-26-14-13-15/
 15 15 0 0 0
SMALL
GASTEIGER

@<TRIPOS>ATOM
      1 C         -28.0162   -0.8135   28.8779 C.ar    1  UNL1        0.0046
      2 C         -27.0636   -0.1189   28.6079 C.ar    1  UNL1        0.0554
      3 C         -25.7923   -0.4302   29.0761 C.ar    1  UNL1        0.0046
      4 C         -25.5756   -1.5654   29.9363 C.ar    1  UNL1        0.0001
      5 C         -26.7354   -2.3004   30.2173 C.ar    1  UNL1        0.0000
      6 C         -27.9184   -1.9537   29.7629 C.ar    1  UNL1        0.0001
      7 C         -27.1057    1.1023   27.7593 C.2     1  UNL1        0.2690
      8 N         -26.8548    2.1259   28.0082 N.am    1  UNL1       -0.1741
      9 O         -27.5396    0.8200   26.4924 O.2     1  UNL1       -0.2680
     10 C         -26.5547    3.1162   27.6007 C.2     1  UNL1        0.0889
     11 C         -25.9446    4.2362   28.1490 C.2     1  UNL1        0.0179
     12 C         -25.4403    5.4216   27.4743 C.2     1  UNL1        0.0014
     13 C         -24.9373    6.5212   28.1362 C.2     1  UNL1        0.0000
     14 C         -25.1333    6.7344   29.4726 C.2     1  UNL1        0.0000
     15 C         -25.6804    5.6756   30.1768 C.2     1  UNL1        0.0000
@<TRIPOS>BOND
     1     2     7    1
     2     7     8   am
     3     7     9    2
     4     8    10    1
     5    10    11    2
     6    11    12    1
     7    12    13    2
     8    13    14    1
     9    14    15    2
    10     1     2   ar
    11     2     3   ar
    12     3     4   ar
    13     4     5   ar
    14     5     6   ar
    15     6     1   ar
