@<TRIPOS>MOLECULE
No_3352-gen_results/8p0m/2024-11-26-14-13-15/
 23 25 0 0 0
SMALL
GASTEIGER

@<TRIPOS>ATOM
      1 C         -28.0162   -0.8135   28.8779 C.ar    1  UNL1       -0.0035
      2 C         -28.4690   -0.7850   29.8287 C.ar    1  UNL1       -0.0003
      3 C         -27.1356    0.2359   28.5352 C.ar    1  UNL1       -0.0098
      4 C         -26.8745    1.2825   29.3982 C.ar    1  UNL1       -0.0035
      5 C         -28.3613    0.1987   30.9244 C.ar    1  UNL1       -0.0000
      6 C         -27.5277    1.2234   30.6356 C.ar    1  UNL1       -0.0003
      7 C         -26.3987    0.2949   27.2279 C.3     1  UNL1        0.1214
      8 C         -25.0392    0.2356   27.3538 C.ar    1  UNL1       -0.0096
      9 C         -24.4371    0.0058   28.5831 C.ar    1  UNL1       -0.0002
     10 C         -22.9453    0.2645   28.6075 C.ar    1  UNL1        0.0417
     11 C         -22.3356    1.0724   27.6438 C.ar    1  UNL1        0.1957
     12 C         -23.0790    1.4980   26.5535 C.ar    1  UNL1        0.0417
     13 C         -24.4034    1.1782   26.4115 C.ar    1  UNL1       -0.0002
     14 C         -27.0949    0.1881   26.0562 C.2     1  UNL1        0.2371
     15 N         -27.8375    1.2286   25.7352 N.am    1  UNL1       -0.2566
     16 C         -28.0066    2.1921   26.2955 C.2     1  UNL1        0.0675
     17 C         -28.5246    1.0277   24.3834 C.3     1  UNL1        0.1029
     18 C         -28.9159    2.8343   26.6894 C.2     1  UNL1        0.0158
     19 O         -21.0717    1.4613   27.8274 O.3     1  UNL1       -0.2866
     20 C         -29.9107    0.6866   24.5582 C.3     1  UNL1        0.0479
     21 C         -30.7249    1.8490   24.8727 C.2     1  UNL1       -0.0243
     22 C         -30.3257    2.8668   25.9468 C.2     1  UNL1       -0.0032
     23 O         -26.9083   -0.8456   25.4024 O.2     1  UNL1       -0.2738
@<TRIPOS>BOND
     1     3     7    1
     2     7    14    1
     3    14    15   am
     4    15    16    1
     5    15    17    1
     6    16    18    2
     7    11    19    1
     8    17    20    1
     9    20    21    1
    10    18    22    1
    11    21    22    2
    12    14    23    2
    13     7     8    1
    14     8     9   ar
    15     9    10   ar
    16    10    11   ar
    17    11    12   ar
    18    12    13   ar
    19    13     8   ar
    20     1     2   ar
    21     2     5   ar
    22     5     6   ar
    23     6     4   ar
    24     4     3   ar
    25     3     1   ar
