@<TRIPOS>MOLECULE
No_3353-gen_results/8p0m/2024-11-26-14-13-15/
 17 17 0 0 0
SMALL
GASTEIGER

@<TRIPOS>ATOM
      1 C         -28.0162   -0.8135   28.8779 C.ar    1  UNL1       -0.0003
      2 C         -28.4690   -0.7850   29.8287 C.ar    1  UNL1       -0.0000
      3 C         -26.5455   -0.8762   28.8500 C.ar    1  UNL1       -0.0039
      4 C         -25.8041   -1.0324   30.0571 C.ar    1  UNL1       -0.0178
      5 C         -26.5373   -1.0386   31.2171 C.ar    1  UNL1       -0.0039
      6 C         -27.8843   -0.9532   31.1862 C.ar    1  UNL1       -0.0003
      7 C         -24.3555   -1.1121   30.0346 C.3     1  UNL1        0.0520
      8 C         -23.6610    0.1027   29.8448 C.2     1  UNL1       -0.0260
      9 C         -23.2716    0.5565   28.6955 C.2     1  UNL1       -0.0303
     10 C         -22.7184    1.8389   28.4706 C.3     1  UNL1        0.0264
     11 C         -23.3656    2.4207   27.4092 C.3     1  UNL1        0.0134
     12 C         -24.5703    2.4662   27.3141 C.3     1  UNL1        0.0440
     13 C         -25.1539    1.4594   26.5631 C.2     1  UNL1       -0.0266
     14 C         -26.5317    1.5316   26.2612 C.2     1  UNL1       -0.0300
     15 C         -27.1550    0.4516   25.6151 C.3     1  UNL1        0.0304
     16 C         -25.3870    3.6021   27.6301 C.2     1  UNL1       -0.0221
     17 C         -26.7545    3.6557   27.4269 C.2     1  UNL1       -0.0046
@<TRIPOS>BOND
     1     4     7    1
     2     7     8    1
     3     8     9    2
     4     9    10    1
     5    10    11    1
     6    11    12    1
     7    12    13    1
     8    13    14    2
     9    14    15    1
    10    12    16    1
    11    16    17    2
    12     1     2   ar
    13     2     6   ar
    14     6     5   ar
    15     5     4   ar
    16     4     3   ar
    17     3     1   ar
