@<TRIPOS>MOLECULE
No_3354-gen_results/8p0m/2024-11-26-14-13-15/
 33 37 0 0 0
SMALL
GASTEIGER

@<TRIPOS>ATOM
      1 C         -28.0162   -0.8135   28.8779 C.ar    1  UNL1        0.0046
      2 C         -27.0636   -0.1190   28.6079 C.ar    1  UNL1        0.0016
      3 C         -25.7647   -0.3897   29.0360 C.ar    1  UNL1        0.0178
      4 C         -25.5296   -1.5302   29.9014 C.ar    1  UNL1        0.0016
      5 C         -26.6577   -2.2915   30.2035 C.ar    1  UNL1        0.0046
      6 C         -27.8548   -1.9555   29.7630 C.ar    1  UNL1        0.0536
      7 C         -24.5441    0.4126   28.7379 C.ar    1  UNL1        0.0858
      8 N         -24.4533    1.2007   27.7812 N.ar    1  UNL1       -0.2111
      9 C         -23.3447    1.8026   27.3929 C.ar    1  UNL1        0.2566
     10 N         -23.2775    2.6968   26.3611 N.pl3   1  UNL1       -0.0860
     11 N         -22.1411    1.5158   27.9613 N.ar    1  UNL1       -0.2096
     12 C         -23.2964    0.0511   29.4817 C.ar    1  UNL1        0.0399
     13 C         -22.0523    0.7691   29.0117 C.ar    1  UNL1        0.1035
     14 C         -29.0249   -2.7887   30.1556 C.2     1  UNL1        0.2490
     15 N         -30.1499   -2.3548   30.1571 N.am    1  UNL1       -0.2757
     16 O         -28.7809   -3.8771   30.8208 O.2     1  UNL1       -0.2699
     17 C         -31.3685   -3.1002   30.5434 C.3     1  UNL1        0.0937
     18 C         -32.3541   -2.6665   30.6708 C.3     1  UNL1        0.0219
     19 C         -32.4587   -1.2640   30.7624 C.3     1  UNL1        0.0078
     20 C         -31.4238   -0.4070   30.3961 C.3     1  UNL1        0.0422
     21 C         -30.3067   -0.9254   30.2090 C.3     1  UNL1        0.0980
     22 C         -31.6616    1.0742   30.4165 C.ar    1  UNL1       -0.0208
     23 C         -32.4840    1.6748   30.7365 C.ar    1  UNL1       -0.0042
     24 C         -32.8132    2.7992   30.8709 C.ar    1  UNL1       -0.0003
     25 C         -31.7916    3.7449   30.3559 C.ar    1  UNL1       -0.0000
     26 C         -30.4669    1.8519   29.9612 C.ar    1  UNL1       -0.0042
     27 C         -30.6028    3.2119   29.9478 C.ar    1  UNL1       -0.0003
     28 C         -29.6687    4.1159   29.3320 C.ar    1  UNL1       -0.0000
     29 C         -28.7196    4.5693   29.9710 C.ar    1  UNL1       -0.0000
     30 C         -27.6557    5.4075   29.3683 C.ar    1  UNL1       -0.0000
     31 C         -27.6224    5.5234   27.9917 C.ar    1  UNL1        0.0000
     32 C         -29.6440    4.2051   27.8999 C.ar    1  UNL1       -0.0000
     33 C         -28.6387    4.9368   27.2957 C.ar    1  UNL1       -0.0000
@<TRIPOS>BOND
     1     3     7    1
     2     9    10    1
     3     6    14    1
     4    14    15   am
     5    14    16    2
     6    15    17    1
     7    18    19    1
     8    15    21    1
     9    20    21    1
    10    20    22    1
    11    27    28    1
    12    17    18    1
    13    19    20    1
    14     1     2   ar
    15     2     3   ar
    16     3     4   ar
    17     4     5   ar
    18     5     6   ar
    19     6     1   ar
    20    28    29   ar
    21    29    30   ar
    22    30    31   ar
    23    31    33   ar
    24    33    32   ar
    25    32    28   ar
    26     7     8   ar
    27     8     9   ar
    28     9    11   ar
    29    11    13   ar
    30    13    12   ar
    31    12     7   ar
    32    22    23   ar
    33    23    24   ar
    34    24    25   ar
    35    25    27   ar
    36    27    26   ar
    37    26    22   ar
