@<TRIPOS>MOLECULE
No_3356-gen_results/8p0m/2024-11-26-14-13-15/
 32 36 0 0 0
SMALL
GASTEIGER

@<TRIPOS>ATOM
      1 C         -28.0162   -0.8135   28.8779 C.ar    1  UNL1        0.0513
      2 C         -28.4690   -0.7850   29.8287 C.ar    1  UNL1        0.0148
      3 C         -28.1960    0.3478   28.0550 C.ar    1  UNL1        0.0103
      4 C         -29.0191    1.3501   28.3782 C.ar    1  UNL1       -0.0131
      5 C         -29.6249    1.2683   29.6012 C.ar    1  UNL1       -0.0036
      6 C         -29.3821    0.1816   30.4004 C.ar    1  UNL1        0.0010
      7 C         -27.5492    0.5027   26.6783 C.ar    1  UNL1        0.0010
      8 C         -28.1702    0.3184   25.5296 C.ar    1  UNL1        0.0000
      9 C         -26.0994    0.6147   26.6544 C.ar    1  UNL1        0.0012
     10 C         -25.2253    0.6856   27.7975 C.ar    1  UNL1        0.0136
     11 C         -24.1799    1.1342   27.9560 C.ar    1  UNL1        0.0012
     12 C         -23.2991    1.0789   29.1657 C.ar    1  UNL1        0.0001
     13 C         -23.6420    0.2341   29.8991 C.ar    1  UNL1        0.0013
     14 C         -24.8005   -0.4664   29.9910 C.ar    1  UNL1        0.0148
     15 C         -25.5971   -0.3235   28.9135 C.ar    1  UNL1        0.0516
     16 N         -26.7479   -0.9848   28.9108 N.pl3   1  UNL1       -0.2851
     17 C         -25.5173    0.8634   25.4277 C.ar    1  UNL1        0.0000
     18 C         -27.6234    0.5794   24.3362 C.ar    1  UNL1        0.0000
     19 C         -26.2337    0.7663   24.3081 C.ar    1  UNL1        0.0000
     20 C         -29.3032    2.5592   27.5567 C.3     1  UNL1        0.0679
     21 C         -28.5889    3.7633   27.8946 C.ar    1  UNL1        0.0048
     22 C         -28.2943    4.0455   29.0795 C.ar    1  UNL1       -0.0005
     23 C         -27.4633    5.1658   29.4256 C.ar    1  UNL1        0.0204
     24 C         -27.0216    5.9818   28.3702 C.ar    1  UNL1        0.0989
     25 C         -28.1124    4.6180   26.8020 C.ar    1  UNL1        0.0952
     26 N         -27.3149    5.6993   27.1291 N.ar    1  UNL1       -0.2426
     27 C         -30.4444    2.5768   26.7677 C.2     1  UNL1       -0.0176
     28 C         -26.3700   -2.5085   28.7934 C.3     1  UNL1        0.1173
     29 C         -31.3247    1.6104   26.8992 C.2     1  UNL1       -0.0043
     30 C         -32.2589    1.4491   26.4430 C.2     1  UNL1       -0.0049
     31 C         -32.7140    2.4313   25.4533 C.2     1  UNL1       -0.0258
     32 C         -31.8923    3.5379   25.1880 C.3     1  UNL1        0.0307
@<TRIPOS>BOND
     1     3     7    1
     2     9    10    1
     3     1    16    1
     4    15    16    1
     5     4    20    1
     6    20    21    1
     7    20    27    1
     8    16    28    1
     9    27    29    2
    10    29    30    1
    11    30    31    2
    12    31    32    1
    13    21    22   ar
    14    22    23   ar
    15    23    24   ar
    16    24    26   ar
    17    26    25   ar
    18    25    21   ar
    19     1     2   ar
    20     2     6   ar
    21     6     5   ar
    22     5     4   ar
    23     4     3   ar
    24     3     1   ar
    25    10    11   ar
    26    11    12   ar
    27    12    13   ar
    28    13    14   ar
    29    14    15   ar
    30    15    10   ar
    31     7     8   ar
    32     8    18   ar
    33    18    19   ar
    34    19    17   ar
    35    17     9   ar
    36     9     7   ar
