@<TRIPOS>MOLECULE
No_3357-gen_results/8p0m/2024-11-26-14-13-15/
 21 22 0 0 0
SMALL
GASTEIGER

@<TRIPOS>ATOM
      1 O         -28.1229   -1.3353   28.4874 O.2     1  UNL1       -0.2698
      2 C         -27.4806   -0.4044   28.7094 C.2     1  UNL1        0.2515
      3 C         -26.3804   -0.0867   27.9394 C.ar    1  UNL1        0.0812
      4 N         -27.4232    0.1749   30.0549 N.am    1  UNL1       -0.2702
      5 C         -26.1558    0.1159   26.9677 C.ar    1  UNL1        0.0068
      6 C         -24.9232    0.5762   26.2595 C.ar    1  UNL1        0.0005
      7 C         -24.0117    0.9874   27.0174 C.ar    1  UNL1        0.0089
      8 C         -24.0240    0.8450   28.4091 C.ar    1  UNL1        0.1073
      9 C         -25.2019    0.3692   28.9190 C.ar    1  UNL1        0.1508
     10 C         -28.5287   -0.3756   30.8685 C.3     1  UNL1        0.1155
     11 C         -22.9236    1.3234   29.2523 C.2     1  UNL1        0.3899
     12 O         -21.8414    1.6180   28.9043 O.co2   1  UNL1       -0.2405
     13 O         -23.2231    1.4642   30.5779 O.co2   1  UNL1       -0.2405
     14 C         -26.8705    1.3696   30.4594 C.3     1  UNL1        0.1205
     15 F         -24.8412   -0.5389   29.9150 F       1  UNL1       -0.2038
     16 C         -27.8812    2.4845   30.3139 C.ar    1  UNL1       -0.0023
     17 C         -27.6592    3.4055   30.7135 C.ar    1  UNL1       -0.0026
     18 C         -28.5694    4.6524   30.5348 C.ar    1  UNL1       -0.0003
     19 C         -29.7091    4.4210   29.8146 C.ar    1  UNL1       -0.0000
     20 C         -29.9108    3.1537   29.2962 C.ar    1  UNL1       -0.0003
     21 C         -29.0020    2.1706   29.5058 C.ar    1  UNL1       -0.0026
@<TRIPOS>BOND
     1     1     2    2
     2     2     3    1
     3     2     4   am
     4     4    10    1
     5     8    11    1
     6    11    12   ar
     7    11    13   ar
     8     4    14    1
     9     9    15    1
    10    14    16    1
    11     3     5   ar
    12     5     6   ar
    13     6     7   ar
    14     7     8   ar
    15     8     9   ar
    16     9     3   ar
    17    16    17   ar
    18    17    18   ar
    19    18    19   ar
    20    19    20   ar
    21    20    21   ar
    22    21    16   ar
