@<TRIPOS>MOLECULE
No_3359-gen_results/8p0m/2024-11-26-14-13-15/
 10 10 0 0 0
SMALL
GASTEIGER

@<TRIPOS>ATOM
      1 C         -28.0162   -0.8135   28.8779 C.ar    1  UNL1        0.0039
      2 C         -28.4690   -0.7850   29.8287 C.ar    1  UNL1        0.0714
      3 C         -26.5042   -0.7777   28.8766 C.ar    1  UNL1       -0.0001
      4 C         -25.8103   -0.8531   30.1028 C.ar    1  UNL1       -0.0000
      5 C         -27.9906   -0.8916   31.2257 C.ar    1  UNL1        0.0039
      6 C         -26.6042   -0.8676   31.2652 C.ar    1  UNL1       -0.0001
      7 C         -30.0739   -0.8360   29.8615 C.3     1  UNL1        0.4186
      8 F         -30.4860   -0.5896   28.8487 F       1  UNL1       -0.1659
      9 F         -30.5092    0.0115   30.8473 F       1  UNL1       -0.1659
     10 F         -30.7162   -1.8724   30.4523 F       1  UNL1       -0.1659
@<TRIPOS>BOND
     1     2     7    1
     2     7     8    1
     3     7     9    1
     4     7    10    1
     5     1     2   ar
     6     2     5   ar
     7     5     6   ar
     8     6     4   ar
     9     4     3   ar
    10     3     1   ar
