@<TRIPOS>MOLECULE
No_336-gen_results/8p0m/2024-11-26-14-13-15/
 14 15 0 0 0
SMALL
GASTEIGER

@<TRIPOS>ATOM
      1 C         -28.0162   -0.8135   28.8779 C.ar    1  UNL1       -0.0043
      2 C         -28.4690   -0.7850   29.8287 C.ar    1  UNL1       -0.0003
      3 C         -26.5455   -0.8762   28.8500 C.ar    1  UNL1       -0.0218
      4 C         -25.6825   -0.7773   27.6829 C.3     1  UNL1        0.0310
      5 C         -27.9181   -1.0034   31.1877 C.ar    1  UNL1       -0.0000
      6 C         -26.5308   -1.0794   31.2463 C.ar    1  UNL1       -0.0003
      7 C         -25.7798   -1.0462   30.0905 C.ar    1  UNL1       -0.0043
      8 C         -25.8976    0.2387   26.7449 C.3     1  UNL1        0.0310
      9 C         -25.6318    1.4984   27.0379 C.ar    1  UNL1       -0.0218
     10 C         -24.8915    1.8299   28.2575 C.ar    1  UNL1       -0.0043
     11 C         -24.6121    3.2215   28.5006 C.ar    1  UNL1       -0.0003
     12 C         -25.0213    4.1772   27.5294 C.ar    1  UNL1       -0.0000
     13 C         -25.6030    3.8239   26.3387 C.ar    1  UNL1       -0.0003
     14 C         -25.9215    2.4939   26.1337 C.ar    1  UNL1       -0.0043
@<TRIPOS>BOND
     1     3     4    1
     2     4     8    1
     3     8     9    1
     4     9    10   ar
     5    10    11   ar
     6    11    12   ar
     7    12    13   ar
     8    13    14   ar
     9    14     9   ar
    10     1     2   ar
    11     2     5   ar
    12     5     6   ar
    13     6     7   ar
    14     7     3   ar
    15     3     1   ar
