@<TRIPOS>MOLECULE
No_3360-gen_results/8p0m/2024-11-26-14-13-15/
 15 15 0 0 0
SMALL
GASTEIGER

@<TRIPOS>ATOM
      1 C         -28.0162   -0.8135   28.8779 C.2     1  UNL1        0.2651
      2 C         -27.0636   -0.1189   28.6079 C.ar    1  UNL1        0.0551
      3 C         -25.7923   -0.4302   29.0761 C.ar    1  UNL1        0.0048
      4 C         -24.5456    0.3494   28.8225 C.ar    1  UNL1        0.0067
      5 C         -24.6586    1.4196   27.8878 C.ar    1  UNL1        0.0798
      6 C         -25.9471    1.6811   27.3792 C.ar    1  UNL1        0.0067
      7 C         -27.0439    0.9739   27.6871 C.ar    1  UNL1        0.0048
      8 N         -29.1882   -0.1472   29.0918 N.am    1  UNL1       -0.1968
      9 C         -30.2017   -0.7833   29.7303 C.3     1  UNL1        0.1415
     10 C         -23.4507    2.1524   27.6005 C.2     1  UNL1        0.3878
     11 O         -23.4836    3.1432   26.9049 O.co2   1  UNL1       -0.2406
     12 O         -22.3099    1.8766   28.2055 O.co2   1  UNL1       -0.2406
     13 C         -29.9272   -1.9767   30.3526 C.2     1  UNL1       -0.0029
     14 C         -30.9731   -2.7773   30.8380 C.2     1  UNL1       -0.0031
     15 O         -27.8426   -1.8899   29.6086 O.2     1  UNL1       -0.2684
@<TRIPOS>BOND
     1     1     2    1
     2     1     8   am
     3     8     9    1
     4     5    10    1
     5    10    11   ar
     6    10    12   ar
     7     9    13    1
     8    13    14    2
     9     1    15    2
    10     2     3   ar
    11     3     4   ar
    12     4     5   ar
    13     5     6   ar
    14     6     7   ar
    15     7     2   ar
