@<TRIPOS>MOLECULE
No_3362-gen_results/8p0m/2024-11-26-14-13-15/
 15 15 0 0 0
SMALL
GASTEIGER

@<TRIPOS>ATOM
      1 C         -28.0162   -0.8135   28.8779 C.ar    1  UNL1       -0.0043
      2 C         -28.4690   -0.7850   29.8287 C.ar    1  UNL1       -0.0003
      3 C         -27.1356    0.2359   28.5352 C.ar    1  UNL1       -0.0222
      4 C         -26.8745    1.2825   29.3982 C.ar    1  UNL1       -0.0043
      5 C         -28.3613    0.1987   30.9244 C.ar    1  UNL1       -0.0000
      6 C         -27.5277    1.2234   30.6356 C.ar    1  UNL1       -0.0003
      7 C         -26.3879    0.2914   27.2334 C.3     1  UNL1        0.0267
      8 C         -26.4938    0.9729   26.2859 C.3     1  UNL1        0.0044
      9 C         -27.4084    2.0367   26.3336 C.3     1  UNL1        0.0003
     10 C         -25.7447    0.7211   25.0963 C.3     1  UNL1        0.0003
     11 C         -25.2617   -0.8239   27.2314 C.3     1  UNL1        0.0304
     12 C         -24.8872   -1.3568   28.5913 C.2     1  UNL1       -0.0258
     13 C         -24.5672   -2.4866   28.8905 C.2     1  UNL1       -0.0046
     14 C         -24.1153   -2.8709   30.2446 C.2     1  UNL1       -0.0003
     15 C         -24.1545   -1.8263   31.2315 C.2     1  UNL1       -0.0000
@<TRIPOS>BOND
     1     3     7    1
     2     7     8    1
     3     8     9    1
     4     8    10    1
     5     7    11    1
     6    11    12    1
     7    12    13    2
     8    13    14    1
     9    14    15    2
    10     1     2   ar
    11     2     5   ar
    12     5     6   ar
    13     6     4   ar
    14     4     3   ar
    15     3     1   ar
