@<TRIPOS>MOLECULE
No_3363-gen_results/8p0m/2024-11-26-14-13-15/
 35 40 0 0 0
SMALL
GASTEIGER

@<TRIPOS>ATOM
      1 C         -28.0162   -0.8135   28.8779 C.ar    1  UNL1        0.0012
      2 C         -27.0636   -0.1189   28.6079 C.ar    1  UNL1        0.0133
      3 C         -25.7923   -0.4302   29.0761 C.ar    1  UNL1        0.0474
      4 C         -25.5756   -1.5654   29.9363 C.ar    1  UNL1       -0.0069
      5 C         -26.7354   -2.3004   30.2173 C.ar    1  UNL1       -0.0030
      6 C         -27.9184   -1.9537   29.7629 C.ar    1  UNL1       -0.0002
      7 C         -27.1057    1.1023   27.7593 C.2     1  UNL1        0.0013
      8 C         -26.7157    2.2350   27.9945 C.2     1  UNL1        0.0015
      9 C         -26.0688    2.4770   29.3567 C.ar    1  UNL1        0.0197
     10 C         -26.2621    3.4491   30.0956 C.ar    1  UNL1        0.0809
     11 C         -25.6340    3.5822   31.4192 C.ar    1  UNL1        0.0063
     12 C         -24.6717    2.6589   31.7915 C.ar    1  UNL1       -0.0028
     13 C         -24.3736    1.6330   30.9475 C.ar    1  UNL1       -0.0069
     14 C         -25.0017    1.5279   29.7386 C.ar    1  UNL1        0.0476
     15 N         -25.3145    0.1511   29.7031 N.pl3   1  UNL1       -0.2899
     16 C         -23.9483   -0.3671   30.2447 C.3     1  UNL1        0.0701
     17 C         -24.3514   -2.0719   30.5146 C.3     1  UNL1        0.0464
     18 C         -23.6965    0.4145   31.5347 C.3     1  UNL1        0.0464
     19 C         -22.7847   -0.3111   29.3038 C.3     1  UNL1        0.0208
     20 C         -27.8794    0.9507   26.4866 C.ar    1  UNL1        0.0031
     21 C         -27.7365    1.7398   25.4932 C.ar    1  UNL1        0.0002
     22 C         -28.4355    1.4935   24.2965 C.ar    1  UNL1        0.0031
     23 C         -29.1634    0.2881   24.1450 C.ar    1  UNL1        0.0369
     24 C         -29.3146   -0.5498   25.2314 C.ar    1  UNL1        0.1386
     25 C         -28.6498   -0.2763   26.4226 C.ar    1  UNL1        0.0369
     26 C         -27.2517    4.5386   29.7860 C.2     1  UNL1        0.3878
     27 O         -27.0952    5.4071   29.1478 O.co2   1  UNL1       -0.2406
     28 O         -28.3609    4.4295   30.5759 O.co2   1  UNL1       -0.2406
     29 O         -30.0869   -1.6030   25.0064 O.3     1  UNL1       -0.4749
     30 C         -31.2100   -1.4856   24.2097 C.3     1  UNL1        0.2171
     31 C         -32.3144   -2.2755   24.7872 C.3     1  UNL1        0.1567
     32 C         -32.7465   -1.8526   26.0735 C.2     1  UNL1        0.3209
     33 O         -32.7834   -2.5610   26.8597 O.2     1  UNL1       -0.2500
     34 O         -32.9216   -0.5957   26.1542 O.3     1  UNL1       -0.4443
     35 C         -33.5262    0.2341   25.6367 C.3     1  UNL1        0.2556
@<TRIPOS>BOND
     1     2     7    1
     2     7     8    2
     3     8     9    1
     4     3    15    1
     5    14    15    1
     6    15    16    1
     7     4    17    1
     8    16    17    1
     9    13    18    1
    10    16    18    1
    11    16    19    1
    12     7    20    1
    13    10    26    1
    14    26    27   ar
    15    26    28   ar
    16    24    29    1
    17    29    30    1
    18    30    31    1
    19    31    32    1
    20    32    33    2
    21    32    34    1
    22    34    35    1
    23     1     2   ar
    24     2     3   ar
    25     3     4   ar
    26     4     5   ar
    27     5     6   ar
    28     6     1   ar
    29     9    10   ar
    30    10    11   ar
    31    11    12   ar
    32    12    13   ar
    33    13    14   ar
    34    14     9   ar
    35    20    21   ar
    36    21    22   ar
    37    22    23   ar
    38    23    24   ar
    39    24    25   ar
    40    25    20   ar
