@<TRIPOS>MOLECULE
No_3364-gen_results/8p0m/2024-11-26-14-13-15/
 15 16 0 0 0
SMALL
GASTEIGER

@<TRIPOS>ATOM
      1 C         -28.0162   -0.8135   28.8779 C.ar    1  UNL1        0.0000
      2 C         -27.0636   -0.1190   28.6079 C.ar    1  UNL1        0.0000
      3 C         -25.7647   -0.3897   29.0360 C.ar    1  UNL1        0.0002
      4 C         -25.5296   -1.5303   29.9014 C.ar    1  UNL1        0.0000
      5 C         -26.6888   -2.2893   30.1810 C.ar    1  UNL1        0.0000
      6 C         -27.8727   -1.9508   29.7373 C.ar    1  UNL1        0.0000
      7 C         -24.4208    0.2303   28.7927 C.ar    1  UNL1        0.0064
      8 C         -24.0151    1.2709   29.4585 C.ar    1  UNL1        0.0798
      9 C         -22.8078    1.9761   29.1061 C.ar    1  UNL1        0.0066
     10 C         -22.0499    1.5508   27.9901 C.ar    1  UNL1        0.0002
     11 C         -22.5117    0.5215   27.2627 C.ar    1  UNL1        0.0000
     12 C         -23.6820   -0.0896   27.6030 C.ar    1  UNL1        0.0002
     13 C         -24.7409    1.7695   30.7003 C.2     1  UNL1        0.3878
     14 O         -24.9272    1.1193   31.6386 O.co2   1  UNL1       -0.2406
     15 O         -24.8050    3.1317   30.7929 O.co2   1  UNL1       -0.2406
@<TRIPOS>BOND
     1     3     7    1
     2     8    13    1
     3    13    14   ar
     4    13    15   ar
     5     1     2   ar
     6     2     3   ar
     7     3     4   ar
     8     4     5   ar
     9     5     6   ar
    10     6     1   ar
    11     7     8   ar
    12     8     9   ar
    13     9    10   ar
    14    10    11   ar
    15    11    12   ar
    16    12     7   ar
