@<TRIPOS>MOLECULE
No_3365-gen_results/8p0m/2024-11-26-14-13-15/
 21 21 0 0 0
SMALL
GASTEIGER

@<TRIPOS>ATOM
      1 C         -28.0162   -0.8135   28.8779 C.3     1  UNL1        0.0131
      2 C         -27.0636   -0.1189   28.6079 C.3     1  UNL1        0.0226
      3 C         -27.0010    0.6913   27.4910 C.ar    1  UNL1       -0.0225
      4 C         -27.1778    1.9037   27.5632 C.ar    1  UNL1       -0.0043
      5 C         -28.7446   -0.3657   29.8430 C.3     1  UNL1        0.1037
      6 C         -29.9480   -1.1049   30.1388 C.3     1  UNL1        0.3978
      7 C         -26.6424    0.0802   26.1997 C.ar    1  UNL1       -0.0043
      8 C         -26.7812    0.7477   24.9768 C.ar    1  UNL1       -0.0003
      9 C         -27.2816    2.7387   26.3318 C.ar    1  UNL1       -0.0003
     10 C         -26.9618    2.1404   25.0601 C.ar    1  UNL1       -0.0000
     11 F         -29.7494   -2.1706   30.0729 F       1  UNL1       -0.1700
     12 F         -30.3654   -0.7746   31.4001 F       1  UNL1       -0.1700
     13 F         -30.9083   -0.7737   29.2943 F       1  UNL1       -0.1700
     14 C         -25.7458   -1.0187   28.6150 C.3     1  UNL1        0.0047
     15 C         -25.0569   -1.0359   29.9426 C.3     1  UNL1        0.0050
     16 C         -23.9286   -0.1551   30.0936 C.3     1  UNL1        0.0260
     17 C         -24.1198    0.7053   30.8020 C.2     1  UNL1       -0.0261
     18 C         -23.6655    2.1328   30.4989 C.2     1  UNL1       -0.0049
     19 C         -24.4419    3.1989   31.1694 C.2     1  UNL1       -0.0049
     20 C         -25.2374    2.8644   32.3447 C.2     1  UNL1       -0.0258
     21 C         -25.8627    3.9216   33.0358 C.3     1  UNL1        0.0307
@<TRIPOS>BOND
     1     1     2    1
     2     2     3    1
     3     1     5    1
     4     5     6    1
     5     6    11    1
     6     6    12    1
     7     6    13    1
     8     2    14    1
     9    14    15    1
    10    15    16    1
    11    16    17    1
    12    17    18    2
    13    18    19    1
    14    19    20    2
    15    20    21    1
    16     3     4   ar
    17     4     9   ar
    18     9    10   ar
    19    10     8   ar
    20     8     7   ar
    21     7     3   ar
