@<TRIPOS>MOLECULE
No_3366-gen_results/8p0m/2024-11-26-14-13-15/
 15 17 0 0 0
SMALL
GASTEIGER

@<TRIPOS>ATOM
      1 C         -28.0162   -0.8135   28.8779 C.ar    1  UNL1        0.0000
      2 C         -27.0636   -0.1189   28.6079 C.ar    1  UNL1        0.0001
      3 C         -27.0010    0.6913   27.4910 C.ar    1  UNL1        0.0009
      4 C         -25.8548    1.4825   27.0830 C.ar    1  UNL1        0.0114
      5 C         -24.6901    1.4526   27.8807 C.ar    1  UNL1        0.0577
      6 C         -24.7379    0.6010   29.0416 C.ar    1  UNL1        0.0114
      7 C         -25.8234   -0.1688   29.3887 C.ar    1  UNL1        0.0008
      8 C         -29.2455   -0.0678   29.1937 C.ar    1  UNL1        0.0000
      9 C         -30.3313   -0.8312   29.6878 C.ar    1  UNL1        0.0000
     10 C         -30.1233   -2.1444   30.1042 C.ar    1  UNL1        0.0000
     11 C         -28.8969   -2.7444   30.1226 C.ar    1  UNL1        0.0000
     12 C         -27.8154   -2.0612   29.6136 C.ar    1  UNL1        0.0000
     13 C         -26.4693   -2.5987   29.7365 C.ar    1  UNL1        0.0000
     14 C         -25.3747   -1.6326   29.6363 C.ar    1  UNL1        0.0000
     15 CL        -23.3351    2.4085   27.5290 Cl      1  UNL1       -0.0822
@<TRIPOS>BOND
     1     5    15    1
     2     2     3   ar
     3     3     4   ar
     4     4     5   ar
     5     5     6   ar
     6     6     7   ar
     7     1     2   ar
     8     2     7   ar
     9     7    14   ar
    10    14    13   ar
    11    13    12   ar
    12     1     8   ar
    13     8     9   ar
    14     9    10   ar
    15    10    11   ar
    16    11    12   ar
    17    12     1   ar
