@<TRIPOS>MOLECULE
No_3367-gen_results/8p0m/2024-11-26-14-13-15/
 35 38 0 0 0
SMALL
GASTEIGER

@<TRIPOS>ATOM
      1 C         -28.0162   -0.8135   28.8779 C.ar    1  UNL1        0.0369
      2 C         -27.0636   -0.1190   28.6079 C.ar    1  UNL1        0.0030
      3 C         -25.7923   -0.4302   29.0761 C.ar    1  UNL1        0.0003
      4 C         -25.5756   -1.5654   29.9363 C.ar    1  UNL1        0.0031
      5 C         -26.7354   -2.3004   30.2173 C.ar    1  UNL1        0.0369
      6 C         -27.9184   -1.9537   29.7629 C.ar    1  UNL1        0.1389
      7 C         -27.1057    1.1023   27.7593 C.ar    1  UNL1        0.0002
      8 C         -26.1219    1.4820   27.0232 C.ar    1  UNL1        0.0046
      9 C         -24.7142    1.1299   27.4889 C.ar    1  UNL1        0.0567
     10 C         -24.5718    0.0966   28.4066 C.ar    1  UNL1        0.0046
     11 C         -23.5476    1.7679   26.9015 C.2     1  UNL1        0.2842
     12 N         -22.4527    1.9481   27.6194 N.am    1  UNL1       -0.0837
     13 O         -23.5340    2.1547   25.7021 O.2     1  UNL1       -0.2667
     14 O         -29.0006   -2.6566   30.1954 O.3     1  UNL1       -0.4747
     15 C         -29.3837   -2.5483   31.4934 C.3     1  UNL1        0.1885
     16 C         -29.8313   -3.7732   31.9935 C.ar    1  UNL1        0.0172
     17 C         -31.0278   -3.9388   31.7795 C.ar    1  UNL1       -0.0011
     18 C         -31.6841   -5.2702   32.0869 C.ar    1  UNL1       -0.0042
     19 C         -31.0519   -6.2219   31.9756 C.ar    1  UNL1       -0.0184
     20 C         -31.6083   -7.5327   32.2104 C.3     1  UNL1        0.0446
     21 C         -29.6117   -6.2540   31.8445 C.ar    1  UNL1       -0.0042
     22 C         -28.9649   -4.9610   31.9036 C.ar    1  UNL1       -0.0011
     23 C         -32.0801   -8.2468   31.1622 C.ar    1  UNL1       -0.0184
     24 C         -32.5718   -7.5929   30.1334 C.ar    1  UNL1       -0.0040
     25 C         -32.8461   -8.3122   28.8929 C.ar    1  UNL1       -0.0003
     26 C         -32.5505   -9.6640   28.8680 C.ar    1  UNL1       -0.0000
     27 C         -31.7690   -9.6303   30.8550 C.ar    1  UNL1       -0.0040
     28 C         -32.0101  -10.3259   29.8035 C.ar    1  UNL1       -0.0003
     29 C         -31.6561   -8.1390   33.5156 C.3     1  UNL1        0.0094
     30 C         -28.1444   -2.0977   32.3400 C.3     1  UNL1        0.0525
     31 C         -28.2030   -0.7012   32.7232 C.3     1  UNL1        0.0258
     32 C         -29.3044    0.0408   32.8601 C.2     1  UNL1       -0.0480
     33 C         -30.2160   -0.1839   33.5568 C.2     1  UNL1       -0.0342
     34 C         -31.0787    0.2746   33.9400 C.3     1  UNL1        0.0300
     35 C         -29.3010    1.2789   32.0227 C.3     1  UNL1        0.0260
@<TRIPOS>BOND
     1     9    11    1
     2    11    12   am
     3    11    13    2
     4     6    14    1
     5    14    15    1
     6    19    20    1
     7    20    23    1
     8    20    29    1
     9    15    30    1
    10    30    31    1
    11    31    32    1
    12    32    33    2
    13    33    34    1
    14    32    35    1
    15    15    16    1
    16     1     2   ar
    17     3     4   ar
    18     4     5   ar
    19     5     6   ar
    20     6     1   ar
    21    16    17   ar
    22    17    18   ar
    23    18    19   ar
    24    19    21   ar
    25    21    22   ar
    26    22    16   ar
    27     2     3   ar
    28     3    10   ar
    29    10     9   ar
    30     9     8   ar
    31     8     7   ar
    32     7     2   ar
    33    23    24   ar
    34    24    25   ar
    35    25    26   ar
    36    26    28   ar
    37    28    27   ar
    38    27    23   ar
