@<TRIPOS>MOLECULE
No_3369-gen_results/8p0m/2024-11-26-14-13-15/
 31 33 0 0 0
SMALL
GASTEIGER

@<TRIPOS>ATOM
      1 C         -28.0162   -0.8135   28.8779 C.ar    1  UNL1        0.0369
      2 C         -27.0636   -0.1189   28.6079 C.ar    1  UNL1        0.0031
      3 C         -25.7647   -0.3897   29.0360 C.ar    1  UNL1        0.0002
      4 C         -25.5296   -1.5302   29.9014 C.ar    1  UNL1        0.0031
      5 C         -26.6888   -2.2893   30.1810 C.ar    1  UNL1        0.0369
      6 C         -27.8727   -1.9508   29.7373 C.ar    1  UNL1        0.1386
      7 O         -28.9304   -2.7298   30.1154 O.3     1  UNL1       -0.4749
      8 C         -24.5394    0.4211   28.7421 C.ar    1  UNL1        0.0000
      9 C         -23.3459    0.1143   29.1690 C.ar    1  UNL1        0.0000
     10 C         -22.1936    0.8740   28.7553 C.ar    1  UNL1        0.0000
     11 C         -22.3615    1.8342   27.6952 C.ar    1  UNL1        0.0000
     12 C         -24.5980    1.3584   27.6395 C.ar    1  UNL1        0.0000
     13 C         -23.5460    2.0827   27.2326 C.ar    1  UNL1        0.0000
     14 C         -28.7750   -3.9925   30.6471 C.3     1  UNL1        0.2151
     15 C         -28.8148   -4.9984   29.8176 C.3     1  UNL1        0.1343
     16 C         -30.1874   -5.0876   29.3249 C.2     1  UNL1        0.2492
     17 O         -30.3357   -5.8377   28.3881 O.2     1  UNL1       -0.2729
     18 N         -31.2086   -4.8292   30.0808 N.am    1  UNL1       -0.1798
     19 C         -32.5584   -5.0201   29.6324 C.2     1  UNL1        0.0946
     20 C         -33.2386   -5.9896   29.7147 C.2     1  UNL1        0.0159
     21 C         -32.9324   -6.8628   30.7342 C.ar    1  UNL1        0.0011
     22 C         -32.7801   -6.3889   31.9514 C.ar    1  UNL1        0.0000
     23 C         -32.4099   -7.2587   33.0445 C.ar    1  UNL1        0.0000
     24 C         -32.3168   -8.6269   32.8073 C.ar    1  UNL1        0.0000
     25 C         -32.5308   -9.1197   31.5273 C.ar    1  UNL1        0.0000
     26 C         -32.8262   -8.2672   30.5152 C.ar    1  UNL1        0.0000
     27 C         -32.5103   -4.1222   28.3279 C.3     1  UNL1        0.2487
     28 O         -32.5513   -2.8823   28.5591 O.2     1  UNL1       -0.4628
     29 C         -32.4923   -1.9591   27.4850 C.2     1  UNL1        0.2182
     30 C         -32.5645   -2.4980   26.2729 C.2     1  UNL1        0.2741
     31 O         -32.3688   -1.7037   25.2543 O.2     1  UNL1       -0.2796
@<TRIPOS>BOND
     1     6     7    1
     2     3     8    1
     3     7    14    1
     4    14    15    1
     5    15    16    1
     6    16    17    2
     7    16    18   am
     8    18    19    1
     9    19    20    2
    10    20    21    1
    11    19    27    1
    12    27    28    1
    13    28    29    1
    14    29    30    2
    15    30    31    1
    16     1     2   ar
    17     2     3   ar
    18     3     4   ar
    19     4     5   ar
    20     5     6   ar
    21     6     1   ar
    22    21    22   ar
    23    22    23   ar
    24    23    24   ar
    25    24    25   ar
    26    25    26   ar
    27    26    21   ar
    28     8     9   ar
    29     9    10   ar
    30    10    11   ar
    31    11    13   ar
    32    13    12   ar
    33    12     8   ar
