@<TRIPOS>MOLECULE
No_337-gen_results/8p0m/2024-11-26-14-13-15/
 27 29 0 0 0
SMALL
GASTEIGER

@<TRIPOS>ATOM
      1 C         -28.0162   -0.8135   28.8779 C.3     1  UNL1        0.0242
      2 C         -28.4690   -0.7850   29.8287 C.3     1  UNL1        0.0762
      3 C         -27.0871    0.2903   28.6377 C.3     1  UNL1        0.0240
      4 C         -26.0239    0.3644   29.2526 C.3     1  UNL1        0.0047
      5 C         -26.2460    0.4334   30.7986 C.3     1  UNL1        0.0101
      6 N         -29.4930   -1.6212   30.3207 N.am    1  UNL1       -0.2721
      7 C         -27.6694   -0.4672   31.2217 C.3     1  UNL1        0.0201
      8 C         -30.7754   -1.3768   29.9564 C.2     1  UNL1        0.3044
      9 O         -30.9035   -0.3817   29.3263 O.2     1  UNL1       -0.2649
     10 C         -31.8024   -2.3324   30.3367 C.2     1  UNL1        0.3187
     11 C         -29.2317   -2.9027   31.1588 C.3     1  UNL1        0.1172
     12 O         -32.9064   -2.0723   29.9657 O.2     1  UNL1       -0.2634
     13 N         -31.5282   -3.4210   31.0645 N.am    1  UNL1       -0.1960
     14 C         -30.2120   -3.7147   31.5232 C.3     1  UNL1        0.1371
     15 C         -26.9692    0.7126   27.1580 C.ar    1  UNL1       -0.0224
     16 C         -25.7826    0.9162   26.5822 C.ar    1  UNL1       -0.0043
     17 C         -25.5265    1.5739   25.4878 C.ar    1  UNL1       -0.0003
     18 C         -28.1005    0.9474   26.3200 C.ar    1  UNL1       -0.0043
     19 C         -27.9539    1.4899   25.0885 C.ar    1  UNL1       -0.0003
     20 C         -26.6502    1.7487   24.6211 C.ar    1  UNL1       -0.0000
     21 C         -25.0831   -0.0453   31.5554 C.3     1  UNL1        0.0003
     22 C         -26.6531    1.9077   31.1507 C.3     1  UNL1        0.1034
     23 C         -25.7808    2.5752   31.5687 C.3     1  UNL1        0.3978
     24 F         -25.2034    3.4129   30.8280 F       1  UNL1       -0.1700
     25 F         -26.1779    3.3807   32.6535 F       1  UNL1       -0.1700
     26 F         -24.6721    1.8984   32.3046 F       1  UNL1       -0.1700
     27 C         -24.5730   -1.3404   31.4838 C.3     1  UNL1        0.0000
@<TRIPOS>BOND
     1     1     2    1
     2     1     3    1
     3     3     4    1
     4     4     5    1
     5     2     6    1
     6     2     7    1
     7     5     7    1
     8     6     8   am
     9     8     9    2
    10     8    10    1
    11     6    11    1
    12    10    12    2
    13    10    13   am
    14     3    15    1
    15     5    21    1
    16     5    22    1
    17    22    23    1
    18    23    24    1
    19    23    25    1
    20    23    26    1
    21    21    27    1
    22    13    14    1
    23    14    11    1
    24    15    16   ar
    25    16    17   ar
    26    17    20   ar
    27    20    19   ar
    28    19    18   ar
    29    18    15   ar
