@<TRIPOS>MOLECULE
No_3370-gen_results/8p0m/2024-11-26-14-13-15/
 11 11 0 0 0
SMALL
GASTEIGER

@<TRIPOS>ATOM
      1 C         -28.0162   -0.8135   28.8779 C.2     1  UNL1       -0.0000
      2 C         -27.0636   -0.1189   28.6079 C.ar    1  UNL1       -0.0000
      3 C         -27.0010    0.6913   27.4910 C.ar    1  UNL1       -0.0000
      4 C         -25.7770    1.0214   26.9135 C.ar    1  UNL1        0.0000
      5 C         -24.5088    0.7364   27.5686 C.ar    1  UNL1        0.0000
      6 C         -24.5930   -0.0361   28.7390 C.ar    1  UNL1        0.0000
      7 C         -25.8114   -0.4771   29.1584 C.ar    1  UNL1       -0.0000
      8 C         -29.2371   -0.0330   29.2429 C.2     1  UNL1       -0.0003
      9 C         -29.1579    1.2285   29.0769 C.2     1  UNL1       -0.0046
     10 C         -30.3189    1.9619   29.4783 C.2     1  UNL1       -0.0258
     11 C         -31.4291    1.2275   29.9252 C.3     1  UNL1        0.0307
@<TRIPOS>BOND
     1     1     2    1
     2     1     8    2
     3     8     9    1
     4     9    10    2
     5    10    11    1
     6     2     3   ar
     7     3     4   ar
     8     4     5   ar
     9     5     6   ar
    10     6     7   ar
    11     7     2   ar
