@<TRIPOS>MOLECULE
No_3373-gen_results/8p0m/2024-11-26-14-13-15/
 19 22 0 0 0
SMALL
GASTEIGER

@<TRIPOS>ATOM
      1 O         -28.1229   -1.3353   28.4874 O.2     1  UNL1       -0.2699
      2 C         -27.4806   -0.4044   28.7094 C.2     1  UNL1        0.2487
      3 C         -26.3804   -0.0867   27.9394 C.ar    1  UNL1        0.0497
      4 N         -27.4232    0.1749   30.0549 N.am    1  UNL1       -0.2774
      5 C         -26.1558    0.1159   26.9677 C.ar    1  UNL1        0.0073
      6 C         -24.8999    0.6041   26.2249 C.ar    1  UNL1        0.0369
      7 C         -24.0303    1.0547   26.9836 C.ar    1  UNL1        0.1395
      8 C         -24.0378    0.9051   28.3738 C.ar    1  UNL1        0.0377
      9 C         -25.1577    0.4744   28.9583 C.ar    1  UNL1       -0.0148
     10 C         -28.5463    0.0962   30.7916 C.3     1  UNL1        0.0937
     11 O         -22.8277    1.6589   26.4283 O.3     1  UNL1       -0.4482
     12 C         -21.9133    2.1219   27.3668 C.3     1  UNL1        0.3612
     13 C         -22.9853    1.3992   29.1364 C.3     1  UNL1        0.1752
     14 O         -21.9216    2.0001   28.6155 O.3     1  UNL1       -0.3108
     15 C         -28.3811    0.3022   32.0184 C.3     1  UNL1        0.0216
     16 C         -27.2258    0.9239   32.5910 C.3     1  UNL1        0.0035
     17 C         -26.1132    0.9853   31.7469 C.3     1  UNL1        0.0202
     18 C         -26.2501    0.5511   30.4850 C.3     1  UNL1        0.0800
     19 C         -25.3636   -0.3021   30.3205 C.3     1  UNL1        0.0461
@<TRIPOS>BOND
     1     1     2    2
     2     2     3    1
     3     2     4   am
     4     4    10    1
     5     7    11    1
     6    11    12    1
     7     8    13    1
     8    12    14    1
     9    13    14    1
    10    15    16    1
    11     4    18    1
    12    17    18    1
    13     9    19    1
    14    18    19    1
    15    10    15    1
    16    16    17    1
    17     3     5   ar
    18     5     6   ar
    19     6     7   ar
    20     7     8   ar
    21     8     9   ar
    22     9     3   ar
