@<TRIPOS>MOLECULE
No_3374-gen_results/8p0m/2024-11-26-14-13-15/
 35 38 0 0 0
SMALL
GASTEIGER

@<TRIPOS>ATOM
      1 C         -28.0162   -0.8135   28.8779 C.2     1  UNL1        0.0743
      2 C         -27.0636   -0.1189   28.6079 C.2     1  UNL1        0.0152
      3 C         -26.9716    0.7139   27.5060 C.3     1  UNL1        0.1873
      4 C         -28.1053    0.7744   26.6421 C.3     1  UNL1        0.0657
      5 C         -29.2041    0.1179   27.0477 C.2     1  UNL1        0.0604
      6 C         -29.2127   -0.6088   28.1281 C.2     1  UNL1        0.0086
      7 F         -25.8738    1.4073   27.1728 F       1  UNL1       -0.2321
      8 C         -30.4915    0.1430   26.3342 C.2     1  UNL1        0.3839
      9 O         -31.1648    1.1846   26.3946 O.co2   1  UNL1       -0.2409
     10 O         -30.7824   -0.8201   25.5140 O.co2   1  UNL1       -0.2409
     11 C         -27.9905   -1.6724   30.1369 C.2     1  UNL1        0.3452
     12 O         -27.0928   -2.4724   30.3604 O.2     1  UNL1       -0.2445
     13 O         -29.0190   -1.6679   30.8908 O.3     1  UNL1       -0.4255
     14 C         -28.0283    1.6541   25.4573 C.3     1  UNL1        0.0081
     15 C         -29.3216   -0.8106   31.6772 C.2     1  UNL1        0.1259
     16 C         -30.5610   -0.2312   31.5559 C.2     1  UNL1        0.0286
     17 C         -30.9196    0.9204   32.3326 C.2     1  UNL1       -0.0201
     18 C         -32.1129    1.6232   32.1250 C.2     1  UNL1        0.0110
     19 C         -32.4353    2.7698   32.8350 C.2     1  UNL1       -0.0057
     20 C         -31.5330    3.1935   33.8054 C.2     1  UNL1       -0.0220
     21 C         -30.3716    2.5537   34.0491 C.3     1  UNL1        0.0476
     22 C         -30.0082    1.3947   33.2410 C.3     1  UNL1        0.0310
     23 C         -29.4054    3.0308   35.0621 C.2     1  UNL1       -0.0263
     24 C         -28.3742    2.4276   35.3292 C.2     1  UNL1       -0.0304
     25 C         -28.0257    1.2326   34.4542 C.3     1  UNL1        0.0265
     26 C         -28.8239    0.7837   33.5280 C.3     1  UNL1        0.0165
     27 C         -28.4912   -0.3759   32.6536 C.3     1  UNL1        0.0653
     28 C         -33.0499    1.1408   31.0718 C.3     1  UNL1        0.2035
     29 N         -32.9966    1.2845   29.9895 N.2     1  UNL1       -0.2498
     30 C         -33.5610    1.7717   29.1349 C.2     1  UNL1        0.0949
     31 C         -34.4516    2.7070   29.5659 C.2     1  UNL1        0.0202
     32 C         -35.5313    2.1379   30.2382 C.2     1  UNL1        0.0016
     33 CL        -34.4510    0.2811   31.7883 Cl      1  UNL1       -0.0831
     34 C         -36.6752    2.9248   30.5928 C.2     1  UNL1        0.0000
     35 C         -36.7278    4.2507   30.0527 C.2     1  UNL1        0.0000
@<TRIPOS>BOND
     1     1     2    2
     2     2     3    1
     3     3     4    1
     4     4     5    1
     5     1     6    1
     6     5     6    2
     7     3     7    1
     8     5     8    1
     9     8     9   ar
    10     8    10   ar
    11     1    11    1
    12    11    12    2
    13    11    13    1
    14     4    14    1
    15    13    15    1
    16    15    16    2
    17    16    17    1
    18    17    18    2
    19    18    19    1
    20    19    20    2
    21    20    21    1
    22    17    22    1
    23    21    22    1
    24    21    23    1
    25    23    24    2
    26    24    25    1
    27    22    26    1
    28    25    26    1
    29    15    27    1
    30    26    27    1
    31    18    28    1
    32    28    29    1
    33    29    30    2
    34    30    31    1
    35    31    32    2
    36    28    33    1
    37    32    34    1
    38    34    35    2
