@<TRIPOS>MOLECULE
No_3375-gen_results/8p0m/2024-11-26-14-13-15/
 35 39 0 0 0
SMALL
GASTEIGER

@<TRIPOS>ATOM
      1 C         -28.0162   -0.8135   28.8779 C.ar    1  UNL1        0.0009
      2 C         -27.0636   -0.1189   28.6079 C.ar    1  UNL1       -0.0142
      3 C         -25.7923   -0.4302   29.0761 C.ar    1  UNL1       -0.0032
      4 C         -25.5756   -1.5654   29.9363 C.ar    1  UNL1       -0.0001
      5 C         -26.7354   -2.3004   30.2173 C.ar    1  UNL1        0.0046
      6 C         -27.9184   -1.9537   29.7629 C.ar    1  UNL1        0.0551
      7 C         -29.0732   -2.7835   30.1783 C.2     1  UNL1        0.2690
      8 N         -28.9369   -4.0716   30.3653 N.am    1  UNL1       -0.1754
      9 O         -30.2024   -2.2678   30.3207 O.2     1  UNL1       -0.2680
     10 C         -29.9963   -5.0043   30.6887 C.ar    1  UNL1        0.0737
     11 C         -29.8460   -5.6297   31.9123 C.ar    1  UNL1        0.0166
     12 C         -30.9263   -5.5590   32.7210 C.ar    1  UNL1        0.0013
     13 C         -32.2222   -5.4222   32.1815 C.ar    1  UNL1        0.0001
     14 C         -32.2854   -4.8244   30.9015 C.ar    1  UNL1        0.0013
     15 C         -30.9395   -5.2536   29.8155 C.ar    1  UNL1        0.0166
     16 C         -24.5305    0.3483   28.7107 C.ar    1  UNL1        0.0043
     17 C         -23.3268    0.0429   29.2552 C.ar    1  UNL1        0.0566
     18 C         -23.1920   -1.0126   30.1065 C.ar    1  UNL1        0.0046
     19 C         -24.3145   -1.8317   30.4973 C.ar    1  UNL1        0.0001
     20 C         -22.1471    0.8162   28.8787 C.2     1  UNL1        0.2842
     21 N         -20.9993    0.1906   28.7005 N.am    1  UNL1       -0.0837
     22 O         -22.2261    2.0131   28.4575 O.2     1  UNL1       -0.2667
     23 C         -27.3314    1.1118   27.8564 C.3     1  UNL1        0.0667
     24 C         -27.4879    2.2687   28.4917 C.ar    1  UNL1       -0.0143
     25 C         -27.5345    2.4201   29.9436 C.ar    1  UNL1       -0.0036
     26 C         -27.4375    3.2284   30.5647 C.ar    1  UNL1       -0.0003
     27 C         -27.4074    4.5903   29.9379 C.ar    1  UNL1       -0.0000
     28 C         -27.3415    4.6872   28.5709 C.ar    1  UNL1       -0.0003
     29 C         -27.3025    3.5091   27.8499 C.ar    1  UNL1       -0.0036
     30 C         -27.4925    0.9538   26.4469 C.ar    1  UNL1       -0.0143
     31 C         -27.1813    0.2500   25.6785 C.ar    1  UNL1       -0.0036
     32 C         -27.5536    0.1233   24.2955 C.ar    1  UNL1       -0.0003
     33 C         -28.6127    0.9618   23.8962 C.ar    1  UNL1       -0.0000
     34 C         -29.1773    1.8435   24.7861 C.ar    1  UNL1       -0.0003
     35 C         -28.6870    1.9151   26.1301 C.ar    1  UNL1       -0.0036
@<TRIPOS>BOND
     1     6     7    1
     2     7     8   am
     3     7     9    2
     4     8    10    1
     5    17    20    1
     6    20    21   am
     7    20    22    2
     8     2    23    1
     9    23    30    1
    10    23    24    1
    11     1     2   ar
    12     2     3   ar
    13     4     5   ar
    14     5     6   ar
    15     6     1   ar
    16    24    25   ar
    17    25    26   ar
    18    26    27   ar
    19    27    28   ar
    20    28    29   ar
    21    29    24   ar
    22    30    31   ar
    23    31    32   ar
    24    32    33   ar
    25    33    34   ar
    26    34    35   ar
    27    35    30   ar
    28    10    11   ar
    29    11    12   ar
    30    12    13   ar
    31    13    14   ar
    32    14    15   ar
    33    15    10   ar
    34     3     4   ar
    35     4    19   ar
    36    19    18   ar
    37    18    17   ar
    38    17    16   ar
    39    16     3   ar
