@<TRIPOS>MOLECULE
No_3376-gen_results/8p0m/2024-11-26-14-13-15/
 10 10 0 0 0
SMALL
GASTEIGER

@<TRIPOS>ATOM
      1 C         -28.0162   -0.8135   28.8779 C.ar    1  UNL1       -0.0003
      2 C         -27.0636   -0.1190   28.6079 C.ar    1  UNL1       -0.0039
      3 C         -26.8756    1.1325   28.9134 C.ar    1  UNL1       -0.0178
      4 C         -27.9014    1.8066   29.6436 C.ar    1  UNL1       -0.0039
      5 C         -28.9449    1.0388   30.0360 C.ar    1  UNL1       -0.0003
      6 C         -29.0273   -0.2890   29.7051 C.ar    1  UNL1       -0.0000
      7 C         -25.8628    2.1073   28.4534 C.3     1  UNL1        0.0520
      8 C         -24.7773    1.6194   27.8145 C.2     1  UNL1       -0.0260
      9 C         -23.8081    2.4378   27.1982 C.2     1  UNL1       -0.0300
     10 C         -22.6597    1.8398   26.5676 C.3     1  UNL1        0.0304
@<TRIPOS>BOND
     1     3     7    1
     2     7     8    1
     3     8     9    2
     4     9    10    1
     5     1     2   ar
     6     2     3   ar
     7     3     4   ar
     8     4     5   ar
     9     5     6   ar
    10     6     1   ar
