@<TRIPOS>MOLECULE
No_3377-gen_results/8p0m/2024-11-26-14-13-15/
 16 16 0 0 0
SMALL
GASTEIGER

@<TRIPOS>ATOM
      1 C         -28.0162   -0.8135   28.8779 C.ar    1  UNL1       -0.0001
      2 C         -27.0636   -0.1189   28.6079 C.ar    1  UNL1        0.0038
      3 C         -25.7923   -0.4302   29.0761 C.ar    1  UNL1       -0.0001
      4 C         -25.5756   -1.5654   29.9363 C.ar    1  UNL1       -0.0000
      5 C         -26.7354   -2.3004   30.2173 C.ar    1  UNL1       -0.0000
      6 C         -27.9184   -1.9537   29.7629 C.ar    1  UNL1       -0.0000
      7 C         -27.1057    1.1023   27.7593 C.2     1  UNL1        0.0753
      8 C         -26.7157    2.2350   27.9945 C.2     1  UNL1        0.0792
      9 C         -26.0688    2.4770   29.3567 C.3     1  UNL1        0.4185
     10 F         -25.4565    3.6146   29.3485 F       1  UNL1       -0.1659
     11 F         -24.9884    1.5709   29.5720 F       1  UNL1       -0.1659
     12 F         -26.9275    2.4477   30.3310 F       1  UNL1       -0.1659
     13 C         -27.8941    0.8142   26.4311 C.3     1  UNL1        0.4185
     14 F         -27.4925    1.3691   25.6436 F       1  UNL1       -0.1659
     15 F         -28.7327   -0.0652   26.3882 F       1  UNL1       -0.1659
     16 F         -28.6621    1.7325   26.3518 F       1  UNL1       -0.1659
@<TRIPOS>BOND
     1     2     7    1
     2     7     8    2
     3     8     9    1
     4     9    10    1
     5     9    11    1
     6     9    12    1
     7     7    13    1
     8    13    14    1
     9    13    15    1
    10    13    16    1
    11     1     2   ar
    12     2     3   ar
    13     3     4   ar
    14     4     5   ar
    15     5     6   ar
    16     6     1   ar
