@<TRIPOS>MOLECULE
No_3379-gen_results/8p0m/2024-11-26-14-13-15/
 35 39 0 0 0
SMALL
GASTEIGER

@<TRIPOS>ATOM
      1 O         -28.1229   -1.3353   28.4874 O.2     1  UNL1       -0.2961
      2 C         -27.0637   -0.8242   28.8687 C.2     1  UNL1        0.1508
      3 C         -25.9464   -1.0396   28.8492 C.3     1  UNL1        0.0661
      4 C         -24.7602   -0.1562   29.1644 C.3     1  UNL1        0.0258
      5 C         -25.0917    1.0791   29.6491 C.3     1  UNL1        0.0739
      6 C         -26.4090    1.4383   29.7067 C.3     1  UNL1        0.0298
      7 C         -27.3694    0.6586   29.4148 C.3     1  UNL1        0.0665
      8 C         -23.3561   -0.5639   29.1206 C.3     1  UNL1        0.0068
      9 C         -22.4322    0.2418   28.4552 C.3     1  UNL1        0.0277
     10 C         -22.8544    1.3978   27.7886 C.ar    1  UNL1       -0.0089
     11 C         -22.0758    1.9728   26.8038 C.ar    1  UNL1       -0.0030
     12 C         -22.4499    2.0648   25.6077 C.ar    1  UNL1       -0.0002
     13 C         -23.9168    2.2211   25.3576 C.ar    1  UNL1        0.0012
     14 C         -24.7733    1.7931   26.3755 C.ar    1  UNL1        0.0142
     15 C         -24.2776    1.4886   27.5280 C.ar    1  UNL1        0.0438
     16 N         -24.7635    1.5154   28.6876 N.pl3   1  UNL1       -0.3087
     17 C         -25.2646    3.1036   28.7713 C.3     1  UNL1        0.0993
     18 C         -26.6870    1.9694   31.2208 C.3     1  UNL1        0.0284
     19 C         -25.9451    3.6516   27.7302 C.3     1  UNL1        0.0640
     20 C         -27.7590    2.8556   31.3665 C.ar    1  UNL1       -0.0221
     21 C         -27.9214    3.4284   32.6032 C.ar    1  UNL1       -0.0043
     22 C         -28.9355    4.3213   32.9153 C.ar    1  UNL1       -0.0003
     23 C         -29.8297    4.5973   31.8992 C.ar    1  UNL1       -0.0000
     24 C         -29.6801    4.0185   30.6375 C.ar    1  UNL1       -0.0003
     25 C         -28.6578    3.1517   30.3821 C.ar    1  UNL1       -0.0043
     26 C         -25.9544    5.1061   27.7224 C.ar    1  UNL1       -0.0168
     27 C         -26.4747    5.7899   28.4455 C.ar    1  UNL1       -0.0039
     28 C         -26.4397    7.2795   28.4944 C.ar    1  UNL1       -0.0003
     29 C         -25.7183    7.8819   27.5300 C.ar    1  UNL1       -0.0000
     30 C         -25.0127    7.1351   26.5653 C.ar    1  UNL1       -0.0003
     31 C         -25.0558    5.7060   26.6898 C.ar    1  UNL1       -0.0039
     32 C         -27.4523    3.2229   27.7615 C.2     1  UNL1       -0.0203
     33 C         -28.0373    2.8279   26.4904 C.2     1  UNL1       -0.0042
     34 C         -29.3362    2.4646   26.4592 C.2     1  UNL1       -0.0003
     35 C         -29.8087    1.7319   25.4256 C.2     1  UNL1       -0.0000
@<TRIPOS>BOND
     1     1     2    2
     2     2     3    1
     3     3     4    1
     4     4     5    1
     5     5     6    1
     6     2     7    1
     7     6     7    1
     8     4     8    1
     9     8     9    1
    10     9    10    1
    11     5    16    1
    12    15    16    1
    13    16    17    1
    14     6    18    1
    15    17    19    1
    16    19    26    1
    17    19    32    1
    18    32    33    2
    19    33    34    1
    20    34    35    2
    21    18    20    1
    22    26    27   ar
    23    27    28   ar
    24    28    29   ar
    25    29    30   ar
    26    30    31   ar
    27    31    26   ar
    28    10    11   ar
    29    11    12   ar
    30    12    13   ar
    31    13    14   ar
    32    14    15   ar
    33    15    10   ar
    34    20    21   ar
    35    21    22   ar
    36    22    23   ar
    37    23    24   ar
    38    24    25   ar
    39    25    20   ar
