@<TRIPOS>MOLECULE
No_3380-gen_results/8p0m/2024-11-26-14-13-15/
 27 29 0 0 0
SMALL
GASTEIGER

@<TRIPOS>ATOM
      1 C         -28.0162   -0.8135   28.8779 C.3     1  UNL1        0.0549
      2 C         -27.0636   -0.1189   28.6079 C.ar    1  UNL1        0.0097
      3 C         -26.9716    0.7139   27.5060 C.ar    1  UNL1        0.1367
      4 C         -25.8206    1.4910   27.1160 C.ar    1  UNL1        0.0359
      5 C         -24.6562    1.4242   27.9180 C.ar    1  UNL1        0.0820
      6 C         -24.6847    0.5901   29.0659 C.ar    1  UNL1        0.0064
      7 C         -25.8099   -0.1265   29.3338 C.ar    1  UNL1       -0.0015
      8 C         -28.6943   -0.4734   30.1587 C.ar    1  UNL1       -0.0177
      9 C         -29.7865   -1.3251   30.6371 C.ar    1  UNL1       -0.0036
     10 C         -23.4524    2.1889   27.6083 C.2     1  UNL1        0.3878
     11 O         -22.5786    2.2579   28.4957 O.co2   1  UNL1       -0.2406
     12 O         -23.3956    2.8281   26.4934 O.co2   1  UNL1       -0.2406
     13 C         -30.0019   -2.2923   30.0956 C.ar    1  UNL1       -0.0003
     14 C         -31.2004   -3.0454   30.5787 C.ar    1  UNL1        0.0038
     15 C         -31.5495   -4.2765   29.9259 C.ar    1  UNL1        0.0714
     16 C         -30.5908   -4.9419   29.1949 C.ar    1  UNL1        0.0039
     17 C         -29.2848   -4.4735   29.1844 C.ar    1  UNL1       -0.0001
     18 C         -28.9513   -3.2411   29.7327 C.ar    1  UNL1       -0.0000
     19 F         -28.0013    0.7252   26.6904 F       1  UNL1       -0.2045
     20 C         -28.4562    0.8265   30.8002 C.ar    1  UNL1       -0.0039
     21 C         -28.8967    0.9698   32.0376 C.ar    1  UNL1       -0.0003
     22 C         -29.9210    0.1532   32.5220 C.ar    1  UNL1       -0.0000
     23 C         -30.2704   -0.9162   31.8976 C.ar    1  UNL1       -0.0003
     24 C         -32.8683   -4.8813   30.0488 C.3     1  UNL1        0.4186
     25 F         -33.6569   -4.6483   30.9376 F       1  UNL1       -0.1659
     26 F         -33.3724   -4.7548   28.9332 F       1  UNL1       -0.1659
     27 F         -32.6234   -6.2470   30.2001 F       1  UNL1       -0.1659
@<TRIPOS>BOND
     1     1     8    1
     2     5    10    1
     3    10    11   ar
     4    10    12   ar
     5     3    19    1
     6    15    24    1
     7    24    25    1
     8    24    26    1
     9    24    27    1
    10     1     2    1
    11     9    13    1
    12     8     9   ar
    13     9    23   ar
    14    23    22   ar
    15    22    21   ar
    16    21    20   ar
    17    20     8   ar
    18     2     3   ar
    19     3     4   ar
    20     4     5   ar
    21     5     6   ar
    22     6     7   ar
    23     7     2   ar
    24    13    14   ar
    25    14    15   ar
    26    15    16   ar
    27    16    17   ar
    28    17    18   ar
    29    18    13   ar
