@<TRIPOS>MOLECULE
No_3381-gen_results/8p0m/2024-11-26-14-13-15/
 15 16 0 0 0
SMALL
GASTEIGER

@<TRIPOS>ATOM
      1 C         -28.0162   -0.8135   28.8779 C.ar    1  UNL1        0.0410
      2 C         -27.0636   -0.1189   28.6079 C.ar    1  UNL1        0.1409
      3 C         -25.7647   -0.3897   29.0360 C.ar    1  UNL1        0.0276
      4 C         -25.5296   -1.5302   29.9014 C.ar    1  UNL1        0.0031
      5 C         -26.6888   -2.2893   30.1810 C.ar    1  UNL1        0.0115
      6 C         -27.8727   -1.9508   29.7373 C.ar    1  UNL1        0.0599
      7 CL        -29.1266   -3.0333   30.2545 Cl      1  UNL1       -0.0822
      8 C         -24.5419    0.4316   28.7270 C.ar    1  UNL1        0.0044
      9 C         -24.4962    1.2714   27.6994 C.ar    1  UNL1        0.0297
     10 C         -23.2943    1.9744   27.3873 C.ar    1  UNL1        0.1401
     11 C         -22.1106    1.7555   28.0249 C.ar    1  UNL1        0.0296
     12 C         -23.2849    0.1713   29.4012 C.ar    1  UNL1        0.0002
     13 C         -22.0956    0.8435   29.0493 C.ar    1  UNL1        0.0023
     14 F         -23.3550    2.8700   26.3591 F       1  UNL1       -0.2042
     15 F         -27.1847    0.9536   27.7596 F       1  UNL1       -0.2041
@<TRIPOS>BOND
     1     6     7    1
     2     3     8    1
     3    10    14    1
     4     2    15    1
     5     1     2   ar
     6     2     3   ar
     7     3     4   ar
     8     4     5   ar
     9     5     6   ar
    10     6     1   ar
    11     8     9   ar
    12     9    10   ar
    13    10    11   ar
    14    11    13   ar
    15    13    12   ar
    16    12     8   ar
