@<TRIPOS>MOLECULE
No_3382-gen_results/8p0m/2024-11-26-14-13-15/
 17 19 0 0 0
SMALL
GASTEIGER

@<TRIPOS>ATOM
      1 C         -28.0162   -0.8135   28.8779 C.ar    1  UNL1        0.0122
      2 C         -27.0636   -0.1189   28.6079 C.ar    1  UNL1        0.0114
      3 C         -25.7923   -0.4302   29.0761 C.ar    1  UNL1        0.0010
      4 C         -25.5756   -1.5654   29.9363 C.ar    1  UNL1        0.0009
      5 C         -26.7354   -2.3004   30.2173 C.ar    1  UNL1        0.0114
      6 C         -27.9184   -1.9537   29.7629 C.ar    1  UNL1        0.0577
      7 C         -27.3243    1.0850   27.8190 C.ar    1  UNL1        0.0577
      8 C         -26.2674    1.9087   27.5697 C.ar    1  UNL1        0.0114
      9 C         -24.8868    1.5477   28.0393 C.ar    1  UNL1        0.0010
     10 C         -24.6633    0.4445   28.8042 C.ar    1  UNL1        0.0032
     11 C         -23.2906    0.1514   29.2466 C.ar    1  UNL1        0.0420
     12 C         -22.2171    0.4650   28.5102 C.ar    1  UNL1        0.1957
     13 C         -22.3479    1.6153   27.6295 C.ar    1  UNL1        0.0420
     14 C         -23.6974    2.2611   27.4066 C.ar    1  UNL1        0.0033
     15 CL        -28.7893    1.4746   27.2145 Cl      1  UNL1       -0.0822
     16 CL        -29.2900   -2.9092   30.1377 Cl      1  UNL1       -0.0822
     17 O         -21.0271    0.2266   28.5741 O.3     1  UNL1       -0.2866
@<TRIPOS>BOND
     1     7    15    1
     2     6    16    1
     3    12    17    1
     4     1     2   ar
     5     3     4   ar
     6     4     5   ar
     7     5     6   ar
     8     6     1   ar
     9     2     3   ar
    10     3    10   ar
    11     9     8   ar
    12     8     7   ar
    13     7     2   ar
    14     9    10   ar
    15    10    11   ar
    16    11    12   ar
    17    12    13   ar
    18    13    14   ar
    19    14     9   ar
