@<TRIPOS>MOLECULE
No_3383-gen_results/8p0m/2024-11-26-14-13-15/
 32 35 0 0 0
SMALL
GASTEIGER

@<TRIPOS>ATOM
      1 C         -28.0162   -0.8135   28.8779 C.ar    1  UNL1        0.0372
      2 C         -27.0636   -0.1190   28.6079 C.ar    1  UNL1        0.1453
      3 C         -26.9287    1.1713   29.0083 C.ar    1  UNL1        0.0372
      4 C         -27.9560    1.7411   29.7840 C.ar    1  UNL1       -0.0003
      5 C         -29.0569   -0.3271   29.7466 C.ar    1  UNL1       -0.0003
      6 C         -28.9828    0.9722   30.1516 C.ar    1  UNL1       -0.0116
      7 O         -25.9834   -0.6074   27.8643 O.3     1  UNL1       -0.4535
      8 C         -24.8870   -1.1400   28.6021 C.ar    1  UNL1        0.1453
      9 C         -23.9518   -0.6659   28.7160 C.ar    1  UNL1        0.0375
     10 C         -25.2129   -2.3928   29.2754 C.ar    1  UNL1        0.0375
     11 C         -22.8176   -1.1985   29.4873 C.ar    1  UNL1        0.0031
     12 C         -24.2372   -3.0284   29.9602 C.ar    1  UNL1        0.0031
     13 C         -23.0331   -2.3791   30.1449 C.ar    1  UNL1        0.0002
     14 C         -30.1371    1.5211   30.9840 C.3     1  UNL1        0.0846
     15 BR        -31.2745    1.0555   30.8678 Br      1  UNL1       -0.0768
     16 C         -29.5776    1.6023   32.4107 C.3     1  UNL1        0.1174
     17 C         -30.0247    3.0658   30.5148 C.3     1  UNL1        0.0579
     18 C         -30.7319    3.4644   29.5208 C.ar    1  UNL1       -0.0173
     19 C         -29.2362    0.5142   33.0296 C.2     1  UNL1        0.3183
     20 C         -29.4787    2.8210   33.1693 C.3     1  UNL1        0.0380
     21 C         -29.1852    4.0207   31.2039 C.2     1  UNL1       -0.0255
     22 C         -28.6584    4.0621   32.1190 C.2     1  UNL1       -0.0297
     23 C         -31.9539    3.3946   29.3489 C.ar    1  UNL1       -0.0039
     24 C         -29.9075    3.5844   28.2715 C.ar    1  UNL1       -0.0039
     25 C         -30.5070    3.8946   27.0730 C.ar    1  UNL1       -0.0003
     26 C         -32.6636    3.8271   28.1709 C.ar    1  UNL1       -0.0003
     27 C         -31.8790    4.0571   27.0480 C.ar    1  UNL1       -0.0000
     28 O         -28.4831    0.1848   33.6321 O.2     1  UNL1       -0.2501
     29 O         -30.1391   -0.5902   32.7396 O.3     1  UNL1       -0.4398
     30 C         -30.0256   -1.6515   33.6405 C.3     1  UNL1        0.2798
     31 C         -29.9459   -2.9223   32.8302 C.2     1  UNL1        0.2550
     32 O         -29.2283   -2.9086   31.8827 O.2     1  UNL1       -0.2842
@<TRIPOS>BOND
     1     2     7    1
     2     7     8    1
     3     6    14    1
     4    14    15    1
     5    14    16    1
     6    14    17    1
     7    17    18    1
     8    16    19    1
     9    16    20    1
    10    17    21    1
    11    20    22    1
    12    21    22    2
    13    19    28    2
    14    19    29    1
    15    29    30    1
    16    30    31    1
    17    31    32    2
    18     8     9   ar
    19     9    11   ar
    20    11    13   ar
    21    13    12   ar
    22    12    10   ar
    23    10     8   ar
    24     1     2   ar
    25     2     3   ar
    26     3     4   ar
    27     4     6   ar
    28     6     5   ar
    29     5     1   ar
    30    18    23   ar
    31    23    26   ar
    32    26    27   ar
    33    27    25   ar
    34    25    24   ar
    35    24    18   ar
