@<TRIPOS>MOLECULE
No_3384-gen_results/8p0m/2024-11-26-14-13-15/
 30 33 0 0 0
SMALL
GASTEIGER

@<TRIPOS>ATOM
      1 C         -28.0162   -0.8135   28.8779 C.3     1  UNL1        0.1031
      2 C         -27.0636   -0.1190   28.6079 C.ar    1  UNL1        0.0399
      3 C         -25.7923   -0.4302   29.0761 C.ar    1  UNL1        0.1456
      4 C         -24.5456    0.3494   28.8225 C.ar    1  UNL1        0.0626
      5 C         -24.6586    1.4196   27.8878 C.ar    1  UNL1        0.0165
      6 C         -25.9471    1.6811   27.3792 C.ar    1  UNL1        0.0682
      7 C         -27.0439    0.9739   27.6871 C.ar    1  UNL1        0.0685
      8 N         -28.6567   -0.5529   30.0960 N.3     1  UNL1       -0.2688
      9 C         -28.5841    0.2509   30.7384 C.3     1  UNL1        0.0729
     10 C         -29.3702    0.2374   32.0976 C.3     1  UNL1        0.0286
     11 C         -29.4781   -1.8037   30.6035 C.3     1  UNL1        0.0729
     12 C         -30.1735   -1.7882   31.7070 C.3     1  UNL1        0.0286
     13 C         -30.0516   -0.6844   32.5277 C.3     1  UNL1        0.1062
     14 C         -23.4492    2.1340   27.5501 C.ar    1  UNL1        0.0011
     15 C         -22.1783    1.6641   28.0782 C.ar    1  UNL1        0.0023
     16 C         -22.1428    0.5911   28.9760 C.ar    1  UNL1        0.0297
     17 C         -23.2954   -0.0843   29.3395 C.ar    1  UNL1        0.1430
     18 CL        -28.5434    1.4329   26.9744 Cl      1  UNL1       -0.0815
     19 F         -23.2280   -1.1192   30.1218 F       1  UNL1       -0.2041
     20 C         -30.8330   -0.6393   33.8092 C.2     1  UNL1        0.3644
     21 O         -30.6777    0.1977   34.5800 O.co2   1  UNL1       -0.2457
     22 O         -31.6194   -1.6646   34.0063 O.co2   1  UNL1       -0.2457
     23 CL        -26.0097    3.0496   26.2899 Cl      1  UNL1       -0.0814
     24 O         -25.6471   -1.4069   29.9299 O.3     1  UNL1       -0.4509
     25 C         -26.3599   -2.5508   29.7552 C.2     1  UNL1        0.1767
     26 C         -25.3798   -3.7426   29.5367 C.2     1  UNL1        0.0361
     27 C         -25.9345   -4.9989   29.3502 C.2     1  UNL1        0.0920
     28 N         -24.9505   -5.8763   28.9961 N.2     1  UNL1       -0.2688
     29 C         -24.1906   -3.6864   28.8504 C.3     1  UNL1        0.0574
     30 C         -23.8898   -5.0608   28.6399 C.3     1  UNL1        0.1304
@<TRIPOS>BOND
     1     1     2    1
     2     1     8    1
     3     8     9    1
     4     8    11    1
     5    10    13    1
     6    12    13    1
     7     7    18    1
     8    17    19    1
     9    13    20    1
    10    20    21   ar
    11    20    22   ar
    12     6    23    1
    13     3    24    1
    14    24    25    1
    15    25    26    2
    16    26    27    1
    17    27    28    2
    18    26    29    1
    19    28    30    1
    20    29    30    1
    21     9    10    1
    22    12    11    1
    23     2     3   ar
    24     3     4   ar
    25     5     6   ar
    26     6     7   ar
    27     7     2   ar
    28     4     5   ar
    29     5    14   ar
    30    14    15   ar
    31    15    16   ar
    32    16    17   ar
    33    17     4   ar
