@<TRIPOS>MOLECULE
No_3385-gen_results/8p0m/2024-11-26-14-13-15/
 15 15 0 0 0
SMALL
GASTEIGER

@<TRIPOS>ATOM
      1 C         -28.0162   -0.8135   28.8779 C.ar    1  UNL1        0.0001
      2 C         -27.0636   -0.1190   28.6079 C.ar    1  UNL1        0.0045
      3 C         -26.9716    0.7139   27.5060 C.ar    1  UNL1        0.0535
      4 C         -28.1053    0.7744   26.6421 C.ar    1  UNL1        0.0084
      5 C         -29.2008    0.1044   27.0527 C.ar    1  UNL1        0.0716
      6 C         -29.2096   -0.6029   28.1853 C.ar    1  UNL1        0.0039
      7 C         -30.3749    0.2232   26.1670 C.3     1  UNL1        0.4186
      8 F         -30.8691    1.3093   26.1623 F       1  UNL1       -0.1659
      9 F         -31.3210   -0.6661   26.6592 F       1  UNL1       -0.1659
     10 F         -30.0991   -0.2178   24.9185 F       1  UNL1       -0.1659
     11 C         -25.6771    1.4104   27.1153 C.2     1  UNL1        0.2491
     12 O         -24.6606    0.9031   27.4038 O.2     1  UNL1       -0.2699
     13 N         -25.7480    2.5681   26.4270 N.am    1  UNL1       -0.2726
     14 C         -24.5747    3.3393   26.1078 C.3     1  UNL1        0.1152
     15 C         -26.9919    3.2358   26.0388 C.3     1  UNL1        0.1152
@<TRIPOS>BOND
     1     5     7    1
     2     7     8    1
     3     7     9    1
     4     7    10    1
     5     3    11    1
     6    11    12    2
     7    11    13   am
     8    13    14    1
     9    13    15    1
    10     1     2   ar
    11     2     3   ar
    12     3     4   ar
    13     4     5   ar
    14     5     6   ar
    15     6     1   ar
