@<TRIPOS>MOLECULE
No_3387-gen_results/8p0m/2024-11-26-14-13-15/
 19 20 0 0 0
SMALL
GASTEIGER

@<TRIPOS>ATOM
      1 C         -28.0162   -0.8135   28.8779 C.3     1  UNL1        0.1116
      2 C         -27.0636   -0.1189   28.6079 C.ar    1  UNL1       -0.0131
      3 C         -27.0010    0.6913   27.4910 C.ar    1  UNL1       -0.0036
      4 C         -25.7770    1.0214   26.9135 C.ar    1  UNL1        0.0043
      5 C         -24.5088    0.7364   27.5686 C.ar    1  UNL1        0.0554
      6 C         -24.5930   -0.0361   28.7390 C.ar    1  UNL1        0.0043
      7 C         -25.8114   -0.4771   29.1584 C.ar    1  UNL1       -0.0036
      8 C         -28.6413   -0.4024   30.1937 C.2     1  UNL1        0.2301
      9 O         -28.5472    0.5584   30.6795 O.2     1  UNL1       -0.2745
     10 N         -29.3354   -1.5296   30.8790 N.am    1  UNL1       -0.2793
     11 C         -23.2637    1.3352   27.0977 C.2     1  UNL1        0.2691
     12 N         -22.1891    1.3082   27.8770 N.am    1  UNL1       -0.1727
     13 O         -23.2364    2.0286   26.0439 O.2     1  UNL1       -0.2680
     14 C         -29.5521   -2.7841   30.3883 C.3     1  UNL1        0.0934
     15 C         -30.2724   -3.6117   31.1943 C.3     1  UNL1        0.0216
     16 C         -30.6083   -3.2938   32.3140 C.3     1  UNL1        0.0035
     17 C         -30.3881   -2.0443   32.9180 C.3     1  UNL1        0.0216
     18 C         -29.7422   -1.1289   32.1673 C.3     1  UNL1        0.0934
     19 C         -22.0536    0.6838   29.0905 C.2     1  UNL1        0.1068
@<TRIPOS>BOND
     1     1     2    1
     2     1     8    1
     3     8     9    2
     4     8    10   am
     5     5    11    1
     6    11    12    1
     7    11    13    2
     8    10    14    1
     9    15    16    1
    10    10    18    1
    11    17    18    1
    12    12    19    2
    13    14    15    1
    14    16    17    1
    15     2     3   ar
    16     3     4   ar
    17     4     5   ar
    18     5     6   ar
    19     6     7   ar
    20     7     2   ar
