@<TRIPOS>MOLECULE
No_3388-gen_results/8p0m/2024-11-26-14-13-15/
 14 15 0 0 0
SMALL
GASTEIGER

@<TRIPOS>ATOM
      1 C         -28.0162   -0.8135   28.8779 C.ar    1  UNL1       -0.0000
      2 C         -27.0636   -0.1189   28.6079 C.ar    1  UNL1       -0.0000
      3 C         -25.7647   -0.3897   29.0360 C.ar    1  UNL1       -0.0001
      4 C         -25.5296   -1.5302   29.9014 C.ar    1  UNL1       -0.0000
      5 C         -26.6577   -2.2915   30.2035 C.ar    1  UNL1       -0.0000
      6 C         -27.8548   -1.9555   29.7630 C.ar    1  UNL1       -0.0000
      7 C         -24.5441    0.4126   28.7379 C.ar    1  UNL1        0.0039
      8 C         -23.3232    0.0476   29.0499 C.ar    1  UNL1        0.0714
      9 C         -23.2018   -1.2373   29.7566 C.ar    1  UNL1        0.0039
     10 C         -24.2259   -1.9647   30.2122 C.ar    1  UNL1       -0.0001
     11 C         -22.1144    0.7738   28.7208 C.3     1  UNL1        0.4186
     12 F         -21.0902    0.2990   29.1007 F       1  UNL1       -0.1659
     13 F         -22.0753    2.0294   29.1836 F       1  UNL1       -0.1659
     14 F         -22.1051    0.9379   27.3455 F       1  UNL1       -0.1659
@<TRIPOS>BOND
     1     8    11    1
     2    11    12    1
     3    11    13    1
     4    11    14    1
     5     1     2   ar
     6     2     3   ar
     7     4     5   ar
     8     5     6   ar
     9     6     1   ar
    10     3     4   ar
    11     4    10   ar
    12    10     9   ar
    13     9     8   ar
    14     8     7   ar
    15     7     3   ar
