@<TRIPOS>MOLECULE
No_3389-gen_results/8p0m/2024-11-26-14-13-15/
 34 36 0 0 0
SMALL
GASTEIGER

@<TRIPOS>ATOM
      1 C         -28.0162   -0.8135   28.8779 C.ar    1  UNL1        0.1464
      2 C         -27.0636   -0.1190   28.6079 C.ar    1  UNL1        0.0518
      3 C         -27.0010    0.6913   27.4910 C.ar    1  UNL1        0.0076
      4 C         -28.1373    0.7363   26.6350 C.ar    1  UNL1        0.0640
      5 C         -29.2360    0.0765   27.0690 C.ar    1  UNL1        0.0630
      6 C         -29.2177   -0.6429   28.1747 C.ar    1  UNL1        0.0484
      7 CL        -30.6116    0.1653   26.0711 Cl      1  UNL1       -0.0823
      8 C         -25.7122   -0.2157   29.4104 C.ar    1  UNL1        0.0857
      9 N         -24.6344   -0.5874   28.8773 N.ar    1  UNL1       -0.2291
     10 C         -23.4909   -0.8524   29.4185 C.ar    1  UNL1        0.1491
     11 C         -23.3541   -0.6058   30.7548 C.ar    1  UNL1        0.0358
     12 C         -25.7018   -0.0143   30.8047 C.ar    1  UNL1        0.0193
     13 C         -24.4814   -0.1633   31.5230 C.ar    1  UNL1        0.0045
     14 O         -28.0769   -1.6434   29.9944 O.3     1  UNL1       -0.4243
     15 C         -28.7499   -1.8961   30.9114 C.3     1  UNL1        0.4999
     16 C         -28.8597   -1.0629   31.9571 C.3     1  UNL1        0.4968
     17 F         -28.0117   -0.1873   32.1274 F       1  UNL1       -0.1619
     18 F         -30.0972   -0.6998   32.1973 F       1  UNL1       -0.1619
     19 F         -28.3745   -3.1677   31.2851 F       1  UNL1       -0.1557
     20 F         -28.6345   -1.8355   33.1693 F       1  UNL1       -0.1619
     21 F         -29.9347   -2.2107   30.2844 F       1  UNL1       -0.1557
     22 N         -22.3570   -1.1629   28.7674 N.pl3   1  UNL1       -0.1963
     23 C         -28.0808    1.5964   25.4757 C.3     1  UNL1        0.3507
     24 F         -27.0144    1.4357   24.8475 F       1  UNL1       -0.1825
     25 F         -29.0594    1.2247   24.6043 F       1  UNL1       -0.1825
     26 CL        -28.2336    3.2823   25.9062 Cl      1  UNL1       -0.0423
     27 C         -21.1231   -0.5953   29.0887 C.3     1  UNL1        0.2253
     28 N         -20.6131    0.4725   28.4651 N.pl3   1  UNL1       -0.2143
     29 C         -21.3341    1.4675   27.8608 C.ar    1  UNL1        0.0673
     30 C         -22.6505    1.8438   28.3659 C.ar    1  UNL1        0.0162
     31 C         -23.5200    2.7028   27.6155 C.ar    1  UNL1        0.0013
     32 C         -23.3888    2.7261   26.2256 C.ar    1  UNL1        0.0001
     33 C         -22.2587    2.0638   25.6085 C.ar    1  UNL1        0.0013
     34 C         -21.2811    1.6218   26.4248 C.ar    1  UNL1        0.0162
@<TRIPOS>BOND
     1     5     7    1
     2     2     8    1
     3     1    14    1
     4    14    15    1
     5    15    16    1
     6    16    17    1
     7    16    18    1
     8    15    19    1
     9    16    20    1
    10    15    21    1
    11    10    22    1
    12     4    23    1
    13    23    24    1
    14    23    25    1
    15    23    26    1
    16    22    27    1
    17    27    28    1
    18    28    29    1
    19    29    30   ar
    20    30    31   ar
    21    31    32   ar
    22    32    33   ar
    23    33    34   ar
    24    34    29   ar
    25     1     2   ar
    26     2     3   ar
    27     3     4   ar
    28     4     5   ar
    29     5     6   ar
    30     6     1   ar
    31     8     9   ar
    32     9    10   ar
    33    10    11   ar
    34    11    13   ar
    35    13    12   ar
    36    12     8   ar
