@<TRIPOS>MOLECULE
No_339-gen_results/8p0m/2024-11-26-14-13-15/
 25 26 0 0 0
SMALL
GASTEIGER

@<TRIPOS>ATOM
      1 C         -28.0162   -0.8135   28.8779 C.ar    1  UNL1        0.0626
      2 C         -28.4690   -0.7850   29.8287 C.ar    1  UNL1        0.0051
      3 C         -28.1960    0.3478   28.0550 C.2     1  UNL1        0.1822
      4 C         -27.4421    0.5100   26.7946 C.3     1  UNL1        0.1269
      5 C         -26.4394    0.8329   26.6142 C.3     1  UNL1        0.0189
      6 C         -25.2140    0.6624   26.7020 C.3     1  UNL1        0.0258
      7 C         -24.3985    0.0427   27.6996 C.ar    1  UNL1        0.0075
      8 C         -23.2270    0.5345   28.2267 C.ar    1  UNL1       -0.0229
      9 C         -22.5415   -0.1250   29.2949 C.ar    1  UNL1       -0.0044
     10 C         -28.2122   -1.8993   30.9267 C.ar    1  UNL1        0.0002
     11 C         -23.0626   -1.2933   29.7963 C.ar    1  UNL1        0.0028
     12 C         -27.3366   -2.8715   30.4772 C.ar    1  UNL1        0.0023
     13 C         -26.5972   -2.7182   29.3614 C.ar    1  UNL1        0.0297
     14 C         -26.7949   -1.5835   28.5541 C.ar    1  UNL1        0.1428
     15 C         -24.1287   -1.9016   29.2778 C.ar    1  UNL1        0.0366
     16 C         -24.8533   -1.1997   28.2354 C.ar    1  UNL1        0.1344
     17 O         -24.9648   -1.9475   27.1556 O.3     1  UNL1       -0.4718
     18 F         -26.7431   -1.6383   27.2578 F       1  UNL1       -0.2041
     19 C         -24.1543   -2.6954   26.7188 C.3     1  UNL1        0.2525
     20 C         -28.4489    0.1252   25.7756 C.2     1  UNL1        0.2147
     21 O         -29.1312    1.2122   28.3395 O.2     1  UNL1       -0.2908
     22 C         -26.4951    2.2487   25.7808 C.3     1  UNL1        0.0012
     23 C         -24.4749    0.4996   25.4310 C.3     1  UNL1        0.0048
     24 C         -22.6232    1.7981   27.7635 C.3     1  UNL1        0.0308
     25 O         -29.5867    0.3665   25.8232 O.2     1  UNL1       -0.2878
@<TRIPOS>BOND
     1     1     3    1
     2     3     4    1
     3     4     5    1
     4     5     6    1
     5     6     7    1
     6    16    17    1
     7    14    18    1
     8    17    19    1
     9     4    20    1
    10     3    21    2
    11     5    22    1
    12     6    23    1
    13     8    24    1
    14    20    25    2
    15     7     8   ar
    16     8     9   ar
    17     9    11   ar
    18    11    15   ar
    19    15    16   ar
    20    16     7   ar
    21     1     2   ar
    22     2    10   ar
    23    10    12   ar
    24    12    13   ar
    25    13    14   ar
    26    14     1   ar
