@<TRIPOS>MOLECULE
No_3390-gen_results/8p0m/2024-11-26-14-13-15/
 35 37 0 0 0
SMALL
GASTEIGER

@<TRIPOS>ATOM
      1 CL        -28.1493   -0.8198   28.9079 Cl      1  UNL1       -0.0820
      2 C         -26.9116   -0.0797   28.9452 C.ar    1  UNL1        0.0639
      3 C         -26.0490   -0.0718   27.8591 C.ar    1  UNL1        0.0118
      4 C         -24.7194    0.4034   27.9174 C.ar    1  UNL1        0.0074
      5 C         -24.2099    0.9302   29.0839 C.ar    1  UNL1        0.0800
      6 C         -25.0231    0.9078   30.1875 C.ar    1  UNL1        0.0139
      7 C         -26.2532    0.3904   30.1401 C.ar    1  UNL1        0.0864
      8 C         -22.8500    1.4478   29.0593 C.2     1  UNL1        0.3878
      9 O         -22.1347    1.6551   28.1050 O.co2   1  UNL1       -0.2406
     10 O         -22.3524    1.6616   30.3233 O.co2   1  UNL1       -0.2406
     11 C         -27.0741    0.3447   31.4322 C.2     1  UNL1        0.3424
     12 O         -26.6046   -0.3227   32.2700 O.2     1  UNL1       -0.2449
     13 O         -28.1246    1.0112   31.4800 O.3     1  UNL1       -0.4404
     14 C         -28.3687    2.0174   30.9647 C.3     1  UNL1        0.2353
     15 C         -29.0770    2.9972   31.7638 C.ar    1  UNL1        0.0252
     16 C         -29.4866    2.8006   32.9156 C.ar    1  UNL1        0.0001
     17 C         -30.1954    3.7741   33.7725 C.ar    1  UNL1        0.0104
     18 C         -30.4168    5.0215   33.1268 C.ar    1  UNL1        0.0576
     19 C         -30.0216    5.3082   31.8958 C.ar    1  UNL1        0.0150
     20 C         -29.2691    4.3121   31.1161 C.ar    1  UNL1        0.0718
     21 CL        -31.2413    6.1972   34.0949 Cl      1  UNL1       -0.0823
     22 C         -28.8577    4.6273   29.7999 C.3     1  UNL1        0.4184
     23 F         -29.3357    5.5143   29.3581 F       1  UNL1       -0.1659
     24 F         -29.0219    3.4900   29.0557 F       1  UNL1       -0.1659
     25 F         -27.4607    4.7977   29.8412 F       1  UNL1       -0.1659
     26 C         -30.6373    3.4376   35.1184 C.2     1  UNL1        0.0008
     27 C         -29.8446    3.7532   36.1201 C.2     1  UNL1        0.0000
     28 C         -28.5117    4.2212   35.9705 C.2     1  UNL1        0.0000
     29 C         -27.8485    4.2695   34.9275 C.2     1  UNL1        0.0000
     30 C         -26.4235    4.7932   35.0626 C.ar    1  UNL1        0.0000
     31 C         -25.5816    4.9216   33.8796 C.ar    1  UNL1        0.0000
     32 C         -24.5309    5.7812   33.9286 C.ar    1  UNL1        0.0000
     33 C         -24.2861    6.6488   34.9750 C.ar    1  UNL1        0.0000
     34 C         -25.0704    6.5546   36.0864 C.ar    1  UNL1        0.0000
     35 C         -26.1787    5.7393   36.1425 C.ar    1  UNL1        0.0000
@<TRIPOS>BOND
     1     1     2    1
     2     5     8    1
     3     8     9   ar
     4     8    10   ar
     5     7    11    1
     6    11    12    2
     7    11    13    1
     8    13    14    1
     9    18    21    1
    10    20    22    1
    11    22    23    1
    12    22    24    1
    13    22    25    1
    14    17    26    1
    15    26    27    2
    16    27    28    1
    17    28    29    2
    18    29    30    1
    19    14    15    1
    20    15    16   ar
    21    16    17   ar
    22    17    18   ar
    23    18    19   ar
    24    19    20   ar
    25    20    15   ar
    26     2     3   ar
    27     3     4   ar
    28     4     5   ar
    29     5     6   ar
    30     6     7   ar
    31     7     2   ar
    32    30    31   ar
    33    31    32   ar
    34    32    33   ar
    35    33    34   ar
    36    34    35   ar
    37    35    30   ar
