@<TRIPOS>MOLECULE
No_3391-gen_results/8p0m/2024-11-26-14-13-15/
 21 23 0 0 0
SMALL
GASTEIGER

@<TRIPOS>ATOM
      1 C         -28.0162   -0.8135   28.8779 C.3     1  UNL1        0.0359
      2 C         -27.0636   -0.1190   28.6079 C.3     1  UNL1        0.0664
      3 C         -25.7923   -0.4302   29.0761 C.2     1  UNL1        0.0287
      4 C         -25.2700   -0.0487   30.0123 C.2     1  UNL1       -0.0114
      5 C         -28.5191   -0.6302   30.0918 C.2     1  UNL1       -0.0297
      6 C         -27.6457   -0.5646   31.3559 C.2     1  UNL1       -0.0266
      7 C         -26.2105   -0.2297   31.3879 C.3     1  UNL1        0.0449
      8 C         -26.8350    0.2952   27.0996 C.2     1  UNL1        0.0325
      9 C         -25.6316    0.5726   26.6117 C.2     1  UNL1       -0.0238
     10 C         -24.5170    0.0727   27.3494 C.3     1  UNL1        0.0476
     11 N         -25.0933   -1.3891   28.4870 N.pl3   1  UNL1       -0.2933
     12 C         -24.0874   -1.3482   27.5720 C.3     1  UNL1        0.0996
     13 C         -24.9479   -2.6023   29.2320 C.2     1  UNL1        0.0285
     14 C         -27.9859    0.7153   26.2748 C.2     1  UNL1        0.2452
     15 N         -28.9517    1.2577   26.8193 N.am    1  UNL1       -0.2728
     16 C         -28.8463    2.5977   27.1136 C.3     1  UNL1        0.1152
     17 C         -30.3130    0.7082   26.9321 C.3     1  UNL1        0.1152
     18 O         -28.0806    0.1864   25.1776 O.2     1  UNL1       -0.2702
     19 C         -24.6758   -3.7908   28.6403 C.2     1  UNL1        0.0113
     20 C         -25.5387   -2.7317   30.5360 C.3     1  UNL1        0.0421
     21 C         -25.5520   -1.6946   31.6965 C.3     1  UNL1        0.0147
@<TRIPOS>BOND
     1     1     2    1
     2     2     3    1
     3     3     4    2
     4     1     5    1
     5     5     6    2
     6     4     7    1
     7     6     7    1
     8     2     8    1
     9     8     9    2
    10     9    10    1
    11     3    11    1
    12    10    12    1
    13    11    12    1
    14    11    13    1
    15     8    14    1
    16    14    15   am
    17    15    16    1
    18    15    17    1
    19    14    18    2
    20    13    19    2
    21    13    20    1
    22     7    21    1
    23    20    21    1
