@<TRIPOS>MOLECULE
No_3392-gen_results/8p0m/2024-11-26-14-13-15/
 35 38 0 0 0
SMALL
GASTEIGER

@<TRIPOS>ATOM
      1 C         -28.0162   -0.8135   28.8779 C.ar    1  UNL1        0.0369
      2 C         -27.0636   -0.1189   28.6079 C.ar    1  UNL1        0.0031
      3 C         -25.7647   -0.3897   29.0360 C.ar    1  UNL1        0.0000
      4 C         -25.5296   -1.5302   29.9014 C.ar    1  UNL1        0.0031
      5 C         -26.6577   -2.2915   30.2035 C.ar    1  UNL1        0.0369
      6 C         -27.8548   -1.9555   29.7630 C.ar    1  UNL1        0.1387
      7 C         -24.5441    0.4126   28.7379 C.ar    1  UNL1       -0.0005
      8 C         -24.0952    1.3785   29.5751 C.ar    1  UNL1        0.0212
      9 C         -22.9715    2.1448   29.2493 C.ar    1  UNL1       -0.0007
     10 C         -22.2339    1.9126   28.0417 C.ar    1  UNL1       -0.0002
     11 C         -23.7826    0.2867   27.5524 C.ar    1  UNL1       -0.0002
     12 C         -22.6965    1.0118   27.2313 C.ar    1  UNL1       -0.0000
     13 C         -24.7432    1.6126   30.9137 C.3     1  UNL1        0.2320
     14 O         -25.8647    1.8481   30.9108 O.3     1  UNL1       -0.4706
     15 C         -26.1849    3.1919   30.8350 C.ar    1  UNL1        0.1391
     16 C         -25.7083    3.8344   31.4425 C.ar    1  UNL1        0.0369
     17 C         -27.3573    3.4812   30.0167 C.ar    1  UNL1        0.0369
     18 C         -25.9449    5.3725   31.4060 C.ar    1  UNL1        0.0031
     19 C         -27.6583    4.8378   29.8178 C.ar    1  UNL1        0.0031
     20 C         -26.9798    5.7875   30.6458 C.ar    1  UNL1        0.0002
     21 O         -28.9263   -2.7335   30.0296 O.3     1  UNL1       -0.4727
     22 C         -28.7484   -3.9779   30.5730 C.3     1  UNL1        0.2373
     23 C         -29.7435   -4.8517   30.1518 C.3     1  UNL1        0.1893
     24 O         -30.2447   -4.8526   29.0802 O.3     1  UNL1       -0.3491
     25 C         -31.5920   -5.2725   28.8951 C.3     1  UNL1        0.1510
     26 C         -31.7175   -6.5318   28.8356 C.3     1  UNL1        0.0750
     27 C         -31.7645   -7.2159   27.8391 C.ar    1  UNL1        0.0032
     28 C         -31.5449   -6.5408   26.6213 C.ar    1  UNL1        0.0950
     29 C         -31.9171   -8.6738   27.5725 C.ar    1  UNL1       -0.0007
     30 C         -31.6103   -9.3221   26.5873 C.ar    1  UNL1        0.0204
     31 N         -31.3719   -7.3268   25.3692 N.ar    1  UNL1       -0.2426
     32 C         -31.3763   -8.6115   25.3960 C.ar    1  UNL1        0.0989
     33 C         -32.8234   -6.9074   29.8838 C.2     1  UNL1       -0.0241
     34 C         -32.5201   -7.7632   30.7290 C.2     1  UNL1       -0.0300
     35 C         -33.4397   -8.1897   31.7689 C.3     1  UNL1        0.0304
@<TRIPOS>BOND
     1     3     7    1
     2     8    13    1
     3    13    14    1
     4    14    15    1
     5     6    21    1
     6    21    22    1
     7    22    23    1
     8    23    24    1
     9    24    25    1
    10    25    26    1
    11    26    27    1
    12    26    33    1
    13    33    34    2
    14    34    35    1
    15     7     8   ar
    16     8     9   ar
    17     9    10   ar
    18    10    12   ar
    19    12    11   ar
    20    11     7   ar
    21     1     2   ar
    22     2     3   ar
    23     3     4   ar
    24     4     5   ar
    25     5     6   ar
    26     6     1   ar
    27    15    16   ar
    28    16    18   ar
    29    18    20   ar
    30    20    19   ar
    31    19    17   ar
    32    17    15   ar
    33    27    28   ar
    34    28    31   ar
    35    31    32   ar
    36    32    30   ar
    37    30    29   ar
    38    29    27   ar
