@<TRIPOS>MOLECULE
No_3393-gen_results/8p0m/2024-11-26-14-13-15/
 26 28 0 0 0
SMALL
GASTEIGER

@<TRIPOS>ATOM
      1 C         -28.0162   -0.8135   28.8779 C.ar    1  UNL1        0.0045
      2 C         -27.0636   -0.1189   28.6079 C.ar    1  UNL1       -0.0002
      3 C         -25.7647   -0.3897   29.0360 C.ar    1  UNL1       -0.0043
      4 C         -24.5516    0.4058   28.7646 C.ar    1  UNL1       -0.0041
      5 C         -24.6957    1.4480   27.7988 C.ar    1  UNL1        0.0038
      6 C         -23.5821    2.2165   27.4626 C.ar    1  UNL1        0.0502
      7 C         -22.3295    1.8427   27.9661 C.ar    1  UNL1        0.0038
      8 C         -22.1809    0.8284   28.8814 C.ar    1  UNL1       -0.0041
      9 C         -23.3190    0.0774   29.2471 C.ar    1  UNL1       -0.0218
     10 C         -27.9056   -1.8765   29.8669 C.ar    1  UNL1        0.0533
     11 C         -26.6648   -2.3322   30.2886 C.ar    1  UNL1        0.0003
     12 C         -25.5477   -1.5609   29.9180 C.ar    1  UNL1       -0.0217
     13 C         -29.0812   -2.6967   30.2508 C.2     1  UNL1        0.2493
     14 O         -28.9860   -3.9005   30.3094 O.2     1  UNL1       -0.2699
     15 N         -30.0040   -2.0887   31.0053 N.am    1  UNL1       -0.2665
     16 C         -31.1569   -2.8413   31.5494 C.3     1  UNL1        0.1155
     17 C         -30.0955   -0.6501   31.1979 C.3     1  UNL1        0.1976
     18 C         -30.0389   -0.2869   32.6228 C.3     1  UNL1        0.4157
     19 F         -31.0209   -0.4507   32.9900 F       1  UNL1       -0.1682
     20 F         -29.7624    1.0902   32.6315 F       1  UNL1       -0.1682
     21 F         -28.9708   -0.8368   33.2397 F       1  UNL1       -0.1682
     22 C         -24.2351   -1.9261   30.3583 C.3     1  UNL1        0.0310
     23 C         -23.1579   -1.0922   30.1338 C.3     1  UNL1        0.0310
     24 C         -23.7675    3.3227   26.5159 C.2     1  UNL1        0.2536
     25 CL        -25.0246    4.0990   26.5997 Cl      1  UNL1       -0.0382
     26 O         -23.0218    3.3134   25.4083 O.2     1  UNL1       -0.2739
@<TRIPOS>BOND
     1     3     4    1
     2    10    13    1
     3    13    14    2
     4    13    15   am
     5    15    16    1
     6    15    17    1
     7    17    18    1
     8    18    19    1
     9    18    20    1
    10    18    21    1
    11    12    22    1
    12     9    23    1
    13    22    23    1
    14     6    24    1
    15    24    25    1
    16    24    26    2
    17     1     2   ar
    18     2     3   ar
    19     3    12   ar
    20    12    11   ar
    21    11    10   ar
    22    10     1   ar
    23     4     5   ar
    24     5     6   ar
    25     6     7   ar
    26     7     8   ar
    27     8     9   ar
    28     9     4   ar
