@<TRIPOS>MOLECULE
No_3394-gen_results/8p0m/2024-11-26-14-13-15/
 27 30 0 0 0
SMALL
GASTEIGER

@<TRIPOS>ATOM
      1 C         -28.0162   -0.8135   28.8779 C.ar    1  UNL1        0.0431
      2 C         -28.4690   -0.7850   29.8287 C.ar    1  UNL1        0.1841
      3 C         -26.5455   -0.8762   28.8500 C.ar    1  UNL1        0.0330
      4 C         -25.8974   -0.8267   29.8894 C.ar    1  UNL1        0.1435
      5 C         -27.9129   -0.8385   31.1942 C.ar    1  UNL1        0.2321
      6 C         -26.5519   -0.8324   31.1775 C.ar    1  UNL1        0.0748
      7 O         -29.9348   -0.7809   29.9077 O.3     1  UNL1       -0.4505
      8 F         -24.5420   -0.8301   29.9198 F       1  UNL1       -0.2041
      9 C         -30.5913    0.3082   30.3202 C.ar    1  UNL1        0.1447
     10 C         -31.7241    0.3526   30.1123 C.ar    1  UNL1        0.0396
     11 C         -32.5184    1.5701   30.4794 C.ar    1  UNL1        0.0325
     12 C         -31.8195    2.6130   31.1171 C.ar    1  UNL1        0.1377
     13 C         -30.4666    2.4637   31.3262 C.ar    1  UNL1        0.0275
     14 C         -29.7948    1.3648   30.9470 C.ar    1  UNL1        0.0532
     15 F         -32.5038    3.6568   31.4915 F       1  UNL1       -0.2045
     16 C         -29.6975    3.5563   31.9969 C.3     1  UNL1        0.1199
     17 N         -28.4471    3.4326   32.1403 N.pl3   1  UNL1       -0.3004
     18 C         -27.6771    4.2288   32.9242 C.2     1  UNL1        0.0571
     19 C         -26.3631    3.7239   32.9794 C.2     1  UNL1       -0.0085
     20 C         -26.3145    2.6430   32.0362 C.3     1  UNL1        0.0511
     21 C         -27.6077    2.4899   31.6201 C.3     1  UNL1        0.1219
     22 C         -28.3342    1.3416   31.1248 C.3     1  UNL1        0.2092
     23 O         -28.6185   -0.3710   32.1154 O.3     1  UNL1       -0.2832
     24 O         -27.8569    1.8174   29.8567 O.2     1  UNL1       -0.4702
     25 C         -27.0815    2.4587   29.1279 C.2     1  UNL1        0.1680
     26 C         -27.4999    3.6041   28.4342 C.2     1  UNL1        0.0142
     27 C         -26.6493    4.2777   27.6776 C.3     1  UNL1        0.0341
@<TRIPOS>BOND
     1     2     7    1
     2     4     8    1
     3     7     9    1
     4    12    15    1
     5    13    16    1
     6    16    17    1
     7    17    18    1
     8    18    19    2
     9    19    20    1
    10    17    21    1
    11    20    21    1
    12    14    22    1
    13    21    22    1
    14     5    23    1
    15    22    24    1
    16    24    25    1
    17    25    26    2
    18    26    27    1
    19     9    10   ar
    20    10    11   ar
    21    11    12   ar
    22    12    13   ar
    23    13    14   ar
    24    14     9   ar
    25     1     2   ar
    26     2     5   ar
    27     5     6   ar
    28     6     4   ar
    29     4     3   ar
    30     3     1   ar
