@<TRIPOS>MOLECULE
No_3396-gen_results/8p0m/2024-11-26-14-13-15/
 13 14 0 0 0
SMALL
GASTEIGER

@<TRIPOS>ATOM
      1 C         -28.0162   -0.8135   28.8779 C.3     1  UNL1        0.0526
      2 C         -28.4690   -0.7850   29.8287 C.ar    1  UNL1       -0.0178
      3 C         -27.0871    0.2903   28.6377 C.ar    1  UNL1       -0.0178
      4 C         -26.9102    0.8486   27.4199 C.ar    1  UNL1       -0.0039
      5 C         -29.6069   -1.6266   30.1338 C.ar    1  UNL1       -0.0039
      6 C         -25.7234    1.3208   27.0407 C.ar    1  UNL1       -0.0003
      7 C         -24.6229    1.5356   27.9411 C.ar    1  UNL1       -0.0000
      8 C         -24.7675    0.9407   29.1933 C.ar    1  UNL1       -0.0003
      9 C         -25.9505    0.2472   29.4560 C.ar    1  UNL1       -0.0039
     10 C         -30.4811   -1.3012   31.0311 C.ar    1  UNL1       -0.0003
     11 C         -30.1472   -0.3825   32.0995 C.ar    1  UNL1       -0.0000
     12 C         -29.0174    0.3374   31.9822 C.ar    1  UNL1       -0.0003
     13 C         -28.2543    0.2300   30.9289 C.ar    1  UNL1       -0.0039
@<TRIPOS>BOND
     1     1     2    1
     2     1     3    1
     3     3     4   ar
     4     4     6   ar
     5     6     7   ar
     6     7     8   ar
     7     8     9   ar
     8     9     3   ar
     9     2     5   ar
    10     5    10   ar
    11    10    11   ar
    12    11    12   ar
    13    12    13   ar
    14    13     2   ar
