@<TRIPOS>MOLECULE
No_3397-gen_results/8p0m/2024-11-26-14-13-15/
 15 17 0 0 0
SMALL
GASTEIGER

@<TRIPOS>ATOM
      1 C         -28.0162   -0.8135   28.8779 C.ar    1  UNL1        0.0042
      2 C         -28.4690   -0.7850   29.8287 C.ar    1  UNL1        0.0497
      3 C         -26.5042   -0.7777   28.8766 C.ar    1  UNL1        0.0001
      4 C         -25.8103   -0.8531   30.1028 C.ar    1  UNL1       -0.0003
      5 C         -27.9906   -0.8916   31.2257 C.ar    1  UNL1       -0.0161
      6 C         -26.6042   -0.8676   31.2652 C.ar    1  UNL1       -0.0041
      7 C         -30.0739   -0.8360   29.8615 C.2     1  UNL1        0.2487
      8 O         -30.5608   -0.4417   28.9417 O.2     1  UNL1       -0.2699
      9 N         -30.7428   -1.0431   31.0560 N.am    1  UNL1       -0.2774
     10 C         -32.1782   -1.0348   31.0369 C.3     1  UNL1        0.0937
     11 C         -32.7161   -1.5278   32.0197 C.3     1  UNL1        0.0216
     12 C         -32.0010   -1.9429   33.2372 C.3     1  UNL1        0.0035
     13 C         -30.6024   -1.9569   33.1777 C.3     1  UNL1        0.0202
     14 C         -29.9592   -1.6319   32.1011 C.3     1  UNL1        0.0800
     15 C         -28.7464   -2.0082   32.0696 C.3     1  UNL1        0.0463
@<TRIPOS>BOND
     1     2     7    1
     2     7     8    2
     3     7     9   am
     4     9    10    1
     5    11    12    1
     6     9    14    1
     7    13    14    1
     8     5    15    1
     9    14    15    1
    10    10    11    1
    11    12    13    1
    12     1     2   ar
    13     2     5   ar
    14     5     6   ar
    15     6     4   ar
    16     4     3   ar
    17     3     1   ar
