@<TRIPOS>MOLECULE
No_3398-gen_results/8p0m/2024-11-26-14-13-15/
 20 20 0 0 0
SMALL
GASTEIGER

@<TRIPOS>ATOM
      1 C         -28.0162   -0.8135   28.8779 C.2     1  UNL1        0.2648
      2 C         -27.0636   -0.1190   28.6079 C.ar    1  UNL1        0.0550
      3 C         -25.7923   -0.4302   29.0761 C.ar    1  UNL1        0.0045
      4 C         -24.5456    0.3494   28.8225 C.ar    1  UNL1        0.0040
      5 C         -24.6586    1.4196   27.8878 C.ar    1  UNL1        0.0714
      6 C         -25.9471    1.6811   27.3792 C.ar    1  UNL1        0.0040
      7 C         -27.0439    0.9739   27.6871 C.ar    1  UNL1        0.0045
      8 N         -27.9517   -1.7518   29.9375 N.am    1  UNL1       -0.2017
      9 O         -29.2110   -0.3383   28.7434 O.2     1  UNL1       -0.2684
     10 C         -29.0271   -2.5366   30.4973 C.3     1  UNL1        0.1155
     11 C         -23.4605    2.1651   27.5966 C.3     1  UNL1        0.4186
     12 F         -22.5463    2.0253   28.2745 F       1  UNL1       -0.1659
     13 F         -23.0820    1.8776   26.2232 F       1  UNL1       -0.1659
     14 F         -23.8508    3.5053   27.4881 F       1  UNL1       -0.1659
     15 C         -28.8507   -3.9313   30.3692 C.3     1  UNL1        0.0253
     16 C         -30.0579   -4.6788   30.0563 C.3     1  UNL1        0.0252
     17 C         -30.9795   -3.8917   29.4883 C.3     1  UNL1        0.1123
     18 N         -32.0499   -4.6088   29.0290 N.pl3   1  UNL1       -0.2363
     19 C         -32.6057   -4.3904   27.8421 C.2     1  UNL1        0.0801
     20 C         -33.5332   -5.2595   27.2403 C.2     1  UNL1        0.0188
@<TRIPOS>BOND
     1     1     2    1
     2     1     8   am
     3     1     9    2
     4     8    10    1
     5     5    11    1
     6    11    12    1
     7    11    13    1
     8    11    14    1
     9    10    15    1
    10    15    16    1
    11    16    17    1
    12    17    18    1
    13    18    19    1
    14    19    20    2
    15     2     3   ar
    16     3     4   ar
    17     4     5   ar
    18     5     6   ar
    19     6     7   ar
    20     7     2   ar
