@<TRIPOS>MOLECULE
No_34-gen_results/8p0m/2024-11-26-14-13-15/
 9 9 0 0 0
SMALL
GASTEIGER

@<TRIPOS>ATOM
      1 C         -28.0162   -0.8135   28.8779 C.ar    1  UNL1        0.0066
      2 C         -28.4690   -0.7850   29.8287 C.ar    1  UNL1        0.0798
      3 C         -28.1816    0.4277   28.1134 C.ar    1  UNL1        0.0002
      4 C         -28.9841    1.4155   28.5154 C.ar    1  UNL1        0.0000
      5 C         -28.3375   -2.0481   30.7873 C.2     1  UNL1        0.3878
      6 C         -29.5615    1.2930   29.7416 C.ar    1  UNL1        0.0002
      7 C         -29.3196    0.1647   30.4451 C.ar    1  UNL1        0.0066
      8 O         -28.8290   -2.9408   30.7339 O.co2   1  UNL1       -0.2406
      9 O         -27.2320   -1.9600   31.6546 O.co2   1  UNL1       -0.2406
@<TRIPOS>BOND
     1     2     5    1
     2     5     8   ar
     3     5     9   ar
     4     1     2   ar
     5     2     7   ar
     6     7     6   ar
     7     6     4   ar
     8     4     3   ar
     9     3     1   ar
