@<TRIPOS>MOLECULE
No_340-gen_results/8p0m/2024-11-26-14-13-15/
 15 16 0 0 0
SMALL
GASTEIGER

@<TRIPOS>ATOM
      1 C         -28.0162   -0.8135   28.8779 C.ar    1  UNL1        0.0001
      2 C         -27.0636   -0.1189   28.6079 C.ar    1  UNL1        0.0046
      3 C         -26.9716    0.7139   27.5060 C.ar    1  UNL1        0.0573
      4 C         -25.8205    1.4910   27.1160 C.ar    1  UNL1        0.0342
      5 C         -24.6562    1.4242   27.9180 C.ar    1  UNL1        0.1403
      6 C         -24.6847    0.5901   29.0659 C.ar    1  UNL1        0.0296
      7 C         -25.8099   -0.1265   29.3338 C.ar    1  UNL1        0.0024
      8 C         -28.0445   -1.5734   30.1690 C.ar    1  UNL1        0.0000
      9 C         -26.8172   -1.7595   30.8704 C.ar    1  UNL1        0.0000
     10 C         -25.7477   -0.9917   30.5376 C.ar    1  UNL1        0.0001
     11 F         -23.6045    2.1622   27.6259 F       1  UNL1       -0.2042
     12 C         -28.0954    0.8124   26.5123 C.2     1  UNL1        0.2649
     13 N         -29.1841    0.9034   26.7387 N.am    1  UNL1       -0.1998
     14 C         -30.2000    0.7882   25.9132 C.3     1  UNL1        0.1388
     15 O         -27.7424    0.9654   25.3324 O.2     1  UNL1       -0.2684
@<TRIPOS>BOND
     1     5    11    1
     2     3    12    1
     3    12    13   am
     4    13    14    1
     5    12    15    2
     6     2     3   ar
     7     3     4   ar
     8     4     5   ar
     9     5     6   ar
    10     6     7   ar
    11     1     2   ar
    12     2     7   ar
    13     7    10   ar
    14    10     9   ar
    15     9     8   ar
    16     8     1   ar
