@<TRIPOS>MOLECULE
No_3402-gen_results/8p0m/2024-11-26-14-13-15/
 18 19 0 0 0
SMALL
GASTEIGER

@<TRIPOS>ATOM
      1 C         -28.0162   -0.8135   28.8779 C.ar    1  UNL1        0.0046
      2 C         -27.0636   -0.1189   28.6079 C.ar    1  UNL1        0.0001
      3 C         -26.9287    1.1713   29.0083 C.ar    1  UNL1        0.0000
      4 C         -25.7702    2.0341   28.6884 C.ar    1  UNL1        0.0000
      5 C         -24.7141    1.4431   27.9188 C.ar    1  UNL1        0.0000
      6 C         -23.5566    2.1673   27.5933 C.ar    1  UNL1        0.0000
      7 C         -29.0912   -0.2748   29.7317 C.ar    1  UNL1        0.0554
      8 C         -29.0503    0.9872   30.1426 C.ar    1  UNL1        0.0046
      9 C         -27.9501    1.7660   29.8118 C.ar    1  UNL1        0.0001
     10 C         -25.6210    3.3874   28.9730 C.ar    1  UNL1        0.0000
     11 C         -24.5895    4.2089   28.4034 C.ar    1  UNL1        0.0000
     12 C         -23.5223    3.5277   27.7603 C.ar    1  UNL1        0.0000
     13 C         -30.1977   -1.2140   30.0538 C.2     1  UNL1        0.2697
     14 N         -30.0337   -2.3505   30.5181 N.am    1  UNL1       -0.1624
     15 O         -31.3872   -0.7977   29.9686 O.2     1  UNL1       -0.2680
     16 C         -28.6970   -2.9685   30.8138 C.2     1  UNL1        0.1734
     17 C         -28.7105   -4.4683   30.5465 C.1     1  UNL1        0.1522
     18 O         -29.6841   -5.0954   30.7982 O.2     1  UNL1       -0.2297
@<TRIPOS>BOND
     1     3     4    1
     2     7    13    1
     3    13    14   am
     4    13    15    2
     5    14    16    1
     6    16    17    2
     7    17    18    2
     8     4     5   ar
     9     5     6   ar
    10     6    12   ar
    11    12    11   ar
    12    11    10   ar
    13    10     4   ar
    14     1     2   ar
    15     2     3   ar
    16     3     9   ar
    17     9     8   ar
    18     8     7   ar
    19     7     1   ar
