@<TRIPOS>MOLECULE
No_3403-gen_results/8p0m/2024-11-26-14-13-15/
 35 38 0 0 0
SMALL
GASTEIGER

@<TRIPOS>ATOM
      1 C         -28.0162   -0.8135   28.8779 C.ar    1  UNL1       -0.0041
      2 C         -28.4690   -0.7850   29.8287 C.ar    1  UNL1        0.0267
      3 C         -26.5042   -0.7777   28.8766 C.ar    1  UNL1       -0.0180
      4 C         -25.8103   -0.8531   30.1028 C.ar    1  UNL1       -0.0040
      5 C         -27.9906   -0.8916   31.2257 C.ar    1  UNL1       -0.0002
      6 C         -26.6042   -0.8676   31.2652 C.ar    1  UNL1       -0.0005
      7 C         -30.0773   -0.8857   30.0240 C.3     1  UNL1        0.2514
      8 O         -30.6406   -1.8993   30.1420 O.3     1  UNL1       -0.1956
      9 N         -30.6919    0.2904   30.2463 N.pl3   1  UNL1       -0.2780
     10 C         -32.1049    0.3100   30.2994 C.3     1  UNL1        0.0976
     11 C         -29.9907    1.5859   30.2358 C.ar    1  UNL1        0.0500
     12 C         -29.7000    2.2829   29.1280 C.ar    1  UNL1        0.0146
     13 C         -29.8818    3.3494   29.0508 C.ar    1  UNL1        0.0013
     14 C         -30.0047    4.2723   30.2396 C.ar    1  UNL1        0.0001
     15 C         -29.5837    1.9284   31.5519 C.ar    1  UNL1        0.0146
     16 C         -29.7747    3.4655   31.6070 C.ar    1  UNL1        0.0013
     17 C         -25.6570   -0.7047   27.6647 C.3     1  UNL1        0.0526
     18 C         -25.2508    0.6558   27.3147 C.ar    1  UNL1       -0.0178
     19 C         -24.0017    0.9983   27.7320 C.ar    1  UNL1       -0.0039
     20 C         -23.4093    2.2252   27.1898 C.ar    1  UNL1       -0.0003
     21 C         -25.9666    1.4648   26.4804 C.ar    1  UNL1       -0.0040
     22 C         -27.2728    1.0108   26.0198 C.2     1  UNL1       -0.0045
     23 C         -24.2028    3.0352   26.3791 C.ar    1  UNL1       -0.0000
     24 C         -25.4582    2.6738   26.0226 C.ar    1  UNL1       -0.0003
     25 C         -27.4565    0.7402   24.6271 C.2     1  UNL1       -0.0214
     26 C         -28.6828    0.2733   24.2067 C.3     1  UNL1        0.0523
     27 C         -29.7379    0.7348   24.4715 C.ar    1  UNL1       -0.0178
     28 C         -30.9914    0.2574   24.0978 C.ar    1  UNL1       -0.0039
     29 C         -32.2283    0.7948   24.4072 C.ar    1  UNL1       -0.0003
     30 C         -32.2201    1.9199   25.2678 C.ar    1  UNL1       -0.0000
     31 C         -31.0934    2.5179   25.6759 C.ar    1  UNL1       -0.0003
     32 C         -29.8779    1.9982   25.3387 C.ar    1  UNL1       -0.0039
     33 C         -32.7650    0.6165   31.3436 C.2     1  UNL1       -0.0067
     34 C         -34.1065    0.8308   31.3735 C.2     1  UNL1       -0.0032
     35 C         -32.7594    0.0876   29.0403 C.3     1  UNL1        0.0264
@<TRIPOS>BOND
     1     2     7    1
     2     7     8    1
     3     7     9    1
     4     9    10    1
     5     9    11    1
     6     3    17    1
     7    17    18    1
     8    21    22    1
     9    22    25    2
    10    25    26    1
    11    10    33    1
    12    33    34    2
    13    10    35    1
    14    26    27    1
    15    27    28   ar
    16    28    29   ar
    17    29    30   ar
    18    30    31   ar
    19    31    32   ar
    20    32    27   ar
    21    11    12   ar
    22    12    13   ar
    23    13    14   ar
    24    14    16   ar
    25    16    15   ar
    26    15    11   ar
    27     1     2   ar
    28     2     5   ar
    29     5     6   ar
    30     6     4   ar
    31     4     3   ar
    32     3     1   ar
    33    18    19   ar
    34    19    20   ar
    35    20    23   ar
    36    23    24   ar
    37    24    21   ar
    38    21    18   ar
