@<TRIPOS>MOLECULE
No_3404-gen_results/8p0m/2024-11-26-14-13-15/
 24 27 0 0 0
SMALL
GASTEIGER

@<TRIPOS>ATOM
      1 C         -28.0162   -0.8135   28.8779 C.2     1  UNL1       -0.0064
      2 C         -27.0636   -0.1190   28.6079 C.2     1  UNL1       -0.0360
      3 C         -26.9716    0.7139   27.5060 C.3     1  UNL1        0.0292
      4 C         -28.1053    0.7744   26.6421 C.3     1  UNL1        0.0461
      5 C         -29.2041    0.1179   27.0477 C.2     1  UNL1        0.0333
      6 C         -29.2127   -0.6088   28.1281 C.2     1  UNL1        0.0101
      7 C         -25.7106    1.4518   27.1380 C.3     1  UNL1        0.0383
      8 C         -24.6052    0.9253   27.6902 C.2     1  UNL1        0.0647
      9 C         -24.5938    0.0936   28.8218 C.2     1  UNL1       -0.0147
     10 C         -25.7077   -0.4530   29.2468 C.3     1  UNL1        0.0624
     11 C         -23.2701    1.6921   27.4122 C.2     1  UNL1        0.4063
     12 N         -22.1196    1.1734   27.8460 N.2     1  UNL1       -0.0536
     13 N         -23.2554    2.7666   26.6106 N.pl3   1  UNL1        0.2155
     14 N         -30.3607    0.2949   26.2716 N.pl3   1  UNL1       -0.2675
     15 C         -31.4906    0.4751   26.7535 C.2     1  UNL1        0.0650
     16 C         -30.2746    0.1440   24.8301 C.2     1  UNL1        0.0650
     17 C         -25.6522   -1.5012   30.2867 C.2     1  UNL1       -0.0147
     18 C         -24.7969   -1.9832   30.6890 C.2     1  UNL1       -0.0039
     19 C         -27.0437   -1.9235   30.7404 C.2     1  UNL1       -0.0037
     20 C         -28.1809   -1.6902   30.0221 C.2     1  UNL1       -0.0009
     21 C         -32.5964    0.3276   26.0498 C.2     1  UNL1       -0.0050
     22 C         -31.3748   -0.1055   24.0894 C.2     1  UNL1       -0.0050
     23 C         -32.6027    0.1707   24.6491 C.3     1  UNL1        0.0547
     24 C         -21.9490    0.2467   28.7396 C.3     1  UNL1        0.3208
@<TRIPOS>BOND
     1     1     2    2
     2     2     3    1
     3     3     4    1
     4     4     5    1
     5     1     6    1
     6     5     6    2
     7     3     7    1
     8     7     8    1
     9     8     9    2
    10     2    10    1
    11     9    10    1
    12     8    11    1
    13    11    12    2
    14    11    13    1
    15     5    14    1
    16    14    15    1
    17    14    16    1
    18    10    17    1
    19    17    18    2
    20    17    19    1
    21     1    20    1
    22    19    20    2
    23    15    21    2
    24    16    22    2
    25    21    23    1
    26    22    23    1
    27    12    24    1
