@<TRIPOS>MOLECULE
No_3405-gen_results/8p0m/2024-11-26-14-13-15/
 13 14 0 0 0
SMALL
GASTEIGER

@<TRIPOS>ATOM
      1 C         -28.0162   -0.8135   28.8779 C.ar    1  UNL1       -0.0039
      2 C         -28.4690   -0.7850   29.8287 C.ar    1  UNL1       -0.0003
      3 C         -27.1356    0.2359   28.5352 C.ar    1  UNL1       -0.0178
      4 C         -26.8745    1.2825   29.3982 C.ar    1  UNL1       -0.0039
      5 C         -28.3613    0.1987   30.9244 C.ar    1  UNL1       -0.0000
      6 C         -27.5277    1.2234   30.6356 C.ar    1  UNL1       -0.0003
      7 C         -26.3879    0.2914   27.2334 C.3     1  UNL1        0.0526
      8 C         -26.4937    0.9729   26.2859 C.ar    1  UNL1       -0.0178
      9 C         -27.4762    2.0647   26.3647 C.ar    1  UNL1       -0.0039
     10 C         -28.1249    2.4658   25.1478 C.ar    1  UNL1       -0.0003
     11 C         -27.7481    1.8933   23.9417 C.ar    1  UNL1       -0.0000
     12 C         -26.9318    0.8157   23.9033 C.ar    1  UNL1       -0.0003
     13 C         -26.3812    0.3142   24.9754 C.ar    1  UNL1       -0.0039
@<TRIPOS>BOND
     1     3     7    1
     2     7     8    1
     3     8     9   ar
     4     9    10   ar
     5    10    11   ar
     6    11    12   ar
     7    12    13   ar
     8    13     8   ar
     9     1     2   ar
    10     2     5   ar
    11     5     6   ar
    12     6     4   ar
    13     4     3   ar
    14     3     1   ar
