@<TRIPOS>MOLECULE
No_3406-gen_results/8p0m/2024-11-26-14-13-15/
 12 13 0 0 0
SMALL
GASTEIGER

@<TRIPOS>ATOM
      1 C         -28.0162   -0.8135   28.8779 C.ar    1  UNL1        0.0000
      2 C         -27.0636   -0.1189   28.6079 C.ar    1  UNL1        0.0000
      3 C         -25.7923   -0.4302   29.0761 C.ar    1  UNL1        0.0000
      4 C         -25.5756   -1.5654   29.9363 C.ar    1  UNL1        0.0000
      5 C         -26.7354   -2.3004   30.2173 C.ar    1  UNL1        0.0000
      6 C         -27.9184   -1.9537   29.7629 C.ar    1  UNL1        0.0000
      7 C         -27.3243    1.0850   27.8190 C.ar    1  UNL1        0.0000
      8 C         -27.7260    1.0711   26.6257 C.ar    1  UNL1        0.0000
      9 C         -27.8948    2.2249   25.7990 C.ar    1  UNL1        0.0000
     10 C         -27.4769    3.4830   26.2480 C.ar    1  UNL1        0.0000
     11 C         -26.9208    3.5390   27.5118 C.ar    1  UNL1        0.0000
     12 C         -26.7546    2.4039   28.2711 C.ar    1  UNL1        0.0000
@<TRIPOS>BOND
     1     2     7    1
     2     1     2   ar
     3     2     3   ar
     4     3     4   ar
     5     4     5   ar
     6     5     6   ar
     7     6     1   ar
     8     7     8   ar
     9     8     9   ar
    10     9    10   ar
    11    10    11   ar
    12    11    12   ar
    13    12     7   ar
