@<TRIPOS>MOLECULE
No_3407-gen_results/8p0m/2024-11-26-14-13-15/
 35 38 0 0 0
SMALL
GASTEIGER

@<TRIPOS>ATOM
      1 O         -28.1229   -1.3353   28.4874 O.2     1  UNL1       -0.2733
      2 C         -27.4806   -0.4044   28.7094 C.2     1  UNL1        0.2418
      3 N         -26.4599   -0.1104   28.0051 N.am    1  UNL1       -0.2027
      4 C         -25.4297    0.8788   28.3572 C.3     1  UNL1        0.1175
      5 C         -24.3600    1.0559   27.5650 C.ar    1  UNL1       -0.0026
      6 C         -27.9530    0.7132   29.7121 C.3     1  UNL1        0.0863
      7 C         -24.3231    1.5865   26.4295 C.ar    1  UNL1       -0.0026
      8 C         -23.0906    1.8510   25.6405 C.ar    1  UNL1       -0.0003
      9 C         -21.9093    1.8335   26.4155 C.ar    1  UNL1       -0.0000
     10 C         -21.8778    1.4393   27.7371 C.ar    1  UNL1       -0.0003
     11 C         -23.0626    1.1569   28.3573 C.ar    1  UNL1       -0.0026
     12 C         -25.7666    1.6704   29.4984 C.3     1  UNL1        0.0267
     13 C         -27.0054    1.6190   30.1599 C.3     1  UNL1        0.0119
     14 C         -29.1810    0.4055   30.4149 C.3     1  UNL1        0.0529
     15 C         -29.9974    1.2580   30.4033 C.ar    1  UNL1       -0.0183
     16 C         -31.2798    1.0881   31.1092 C.ar    1  UNL1       -0.0082
     17 C         -32.2432    2.0806   31.1728 C.ar    1  UNL1       -0.0222
     18 C         -31.9768    3.2859   30.5021 C.ar    1  UNL1       -0.0043
     19 C         -30.8053    3.4802   29.8039 C.ar    1  UNL1       -0.0006
     20 C         -29.8371    2.5469   29.7553 C.ar    1  UNL1       -0.0040
     21 C         -28.8220   -0.1385   31.7817 C.ar    1  UNL1       -0.0219
     22 C         -28.8227   -1.5410   32.0625 C.ar    1  UNL1       -0.0251
     23 C         -28.5463    0.7056   32.8858 C.ar    1  UNL1       -0.0040
     24 C         -28.2856    0.2010   34.1382 C.ar    1  UNL1        0.0062
     25 C         -28.5993   -2.0183   33.3209 C.ar    1  UNL1        0.0020
     26 C         -28.3214   -1.1550   34.3524 C.ar    1  UNL1        0.0794
     27 C         -29.0825   -2.3976   30.9714 C.3     1  UNL1        0.0379
     28 C         -30.2535   -3.2612   31.2353 C.3     1  UNL1        0.1187
     29 C         -30.6035   -4.0649   30.2347 C.2     1  UNL1        0.3652
     30 O         -29.7275   -4.8978   29.8604 O.co2   1  UNL1       -0.2456
     31 O         -31.6200   -3.9673   29.4763 O.co2   1  UNL1       -0.2456
     32 C         -28.0532   -1.7178   35.7181 C.2     1  UNL1        0.3877
     33 O         -26.9447   -1.5218   36.1966 O.co2   1  UNL1       -0.2406
     34 O         -28.8864   -2.5137   36.2042 O.co2   1  UNL1       -0.2406
     35 C         -33.4745    1.8437   31.9220 C.3     1  UNL1        0.0310
@<TRIPOS>BOND
     1     1     2    2
     2     2     3   am
     3     3     4    1
     4     4     5    1
     5     2     6    1
     6     4    12    1
     7     6    14    1
     8    14    15    1
     9    14    21    1
    10    22    27    1
    11    27    28    1
    12    28    29    1
    13    29    30   ar
    14    29    31   ar
    15    26    32    1
    16    32    33   ar
    17    32    34   ar
    18    17    35    1
    19    12    13    1
    20    13     6    1
    21    15    16   ar
    22    16    17   ar
    23    17    18   ar
    24    18    19   ar
    25    19    20   ar
    26    20    15   ar
    27     5     7   ar
    28     7     8   ar
    29     8     9   ar
    30     9    10   ar
    31    10    11   ar
    32    11     5   ar
    33    21    22   ar
    34    22    25   ar
    35    25    26   ar
    36    26    24   ar
    37    24    23   ar
    38    23    21   ar
