@<TRIPOS>MOLECULE
No_3408-gen_results/8p0m/2024-11-26-14-13-15/
 35 39 0 0 0
SMALL
GASTEIGER

@<TRIPOS>ATOM
      1 C         -28.0162   -0.8135   28.8779 C.ar    1  UNL1        0.0113
      2 C         -27.0636   -0.1189   28.6079 C.ar    1  UNL1        0.0347
      3 C         -25.7923   -0.4302   29.0761 C.ar    1  UNL1        0.0067
      4 C         -25.5756   -1.5654   29.9363 C.ar    1  UNL1        0.0007
      5 C         -26.7354   -2.3004   30.2173 C.ar    1  UNL1        0.0046
      6 C         -27.9184   -1.9537   29.7629 C.ar    1  UNL1        0.0556
      7 BR        -27.1569    1.4255   27.5348 Br      1  UNL1       -0.0490
      8 C         -29.0672   -2.7901   30.1831 C.2     1  UNL1        0.2663
      9 N         -30.1932   -2.3067   30.1791 N.am    1  UNL1       -0.1822
     10 O         -28.8722   -3.9787   30.5967 O.2     1  UNL1       -0.2683
     11 C         -31.4198   -3.0551   30.5327 C.3     1  UNL1        0.1395
     12 C         -32.4535   -2.7575   29.8583 C.2     1  UNL1       -0.0195
     13 C         -33.2184   -1.9889   30.1075 C.2     1  UNL1       -0.0052
     14 C         -32.8462   -0.9285   30.9600 C.ar    1  UNL1        0.0161
     15 C         -33.4088   -0.1091   31.6907 C.ar    1  UNL1        0.0013
     16 C         -32.8431    0.9891   32.4513 C.ar    1  UNL1        0.0001
     17 C         -31.4437    1.1319   32.3804 C.ar    1  UNL1        0.0014
     18 C         -30.7229    0.2548   31.5480 C.ar    1  UNL1        0.0180
     19 C         -31.3626   -0.6841   30.8716 C.ar    1  UNL1        0.0874
     20 N         -30.6084   -1.4425   30.1315 N.pl3   1  UNL1       -0.1442
     21 C         -33.1067   -4.2674   29.5256 C.3     1  UNL1        0.0356
     22 C         -32.3471   -5.0794   28.8793 C.ar    1  UNL1       -0.0193
     23 C         -32.7991   -6.2892   28.4021 C.ar    1  UNL1       -0.0040
     24 C         -31.9022   -7.2292   27.6698 C.ar    1  UNL1       -0.0003
     25 C         -30.6006   -6.7115   27.3645 C.ar    1  UNL1       -0.0000
     26 C         -30.1821   -5.5069   27.8521 C.ar    1  UNL1       -0.0003
     27 C         -30.9617   -4.7198   28.5138 C.ar    1  UNL1       -0.0040
     28 C         -33.7338   -4.8270   30.7777 C.3     1  UNL1        0.0091
     29 C         -34.2726   -3.8962   28.4402 C.3     1  UNL1        0.0079
     30 C         -35.5266   -4.3098   28.6660 C.3     1  UNL1        0.0007
     31 C         -35.0672   -5.2840   30.8729 C.3     1  UNL1        0.0157
     32 C         -35.4890   -5.8728   32.0540 C.3     1  UNL1        0.0799
     33 C         -35.9204   -4.9285   29.8040 C.3     1  UNL1        0.0013
     34 CL        -36.8032   -6.5969   32.3557 Cl      1  UNL1       -0.1150
     35 C         -34.5066   -5.8585   33.2289 C.3     1  UNL1        0.0175
@<TRIPOS>BOND
     1     2     7    1
     2     6     8    1
     3     8     9   am
     4     8    10    2
     5     9    11    1
     6    11    12    1
     7    12    13    2
     8    13    14    1
     9     9    20    1
    10    19    20    1
    11    12    21    1
    12    21    22    1
    13    21    28    1
    14    21    29    1
    15    31    32    1
    16    30    33    1
    17    31    33    1
    18    32    34    1
    19    32    35    1
    20    28    31    1
    21    30    29    1
    22     1     2   ar
    23     2     3   ar
    24     3     4   ar
    25     4     5   ar
    26     5     6   ar
    27     6     1   ar
    28    22    23   ar
    29    23    24   ar
    30    24    25   ar
    31    25    26   ar
    32    26    27   ar
    33    27    22   ar
    34    14    15   ar
    35    15    16   ar
    36    16    17   ar
    37    17    18   ar
    38    18    19   ar
    39    19    14   ar
