@<TRIPOS>MOLECULE
No_3409-gen_results/8p0m/2024-11-26-14-13-15/
 23 25 0 0 0
SMALL
GASTEIGER

@<TRIPOS>ATOM
      1 C         -28.0162   -0.8135   28.8779 C.ar    1  UNL1       -0.0025
      2 C         -27.0636   -0.1190   28.6079 C.ar    1  UNL1       -0.0081
      3 C         -26.9716    0.7139   27.5060 C.ar    1  UNL1       -0.0025
      4 C         -28.1053    0.7744   26.6421 C.ar    1  UNL1        0.0064
      5 C         -29.2008    0.1044   27.0527 C.ar    1  UNL1        0.0345
      6 C         -29.2096   -0.6029   28.1853 C.ar    1  UNL1        0.0064
      7 BR        -30.6913    0.2536   25.9499 Br      1  UNL1       -0.0490
      8 C         -25.6962   -0.2340   29.4204 C.3     1  UNL1        0.0789
      9 N         -24.7999   -1.0864   29.0629 N.3     1  UNL1       -0.2583
     10 C         -23.6102   -1.2414   29.4235 C.3     1  UNL1        0.1500
     11 C         -22.8222   -0.0696   29.5531 C.1     1  UNL1       -0.0727
     12 C         -23.5401    1.0138   30.2191 C.1     1  UNL1       -0.0859
     13 C         -24.9133    1.2026   29.3399 C.3     1  UNL1        0.0883
     14 C         -26.0437   -0.4419   30.9366 C.3     1  UNL1        0.0219
     15 C         -25.1987   -2.0912   27.9533 C.3     1  UNL1        0.0906
     16 C         -25.6586    2.3628   30.0005 C.ar    1  UNL1       -0.0101
     17 C         -25.8378    3.4924   29.1289 C.ar    1  UNL1       -0.0033
     18 C         -26.4646    4.6583   29.6651 C.ar    1  UNL1       -0.0003
     19 C         -26.9931    4.6331   30.9503 C.ar    1  UNL1       -0.0000
     20 C         -26.8273    3.4898   31.7342 C.ar    1  UNL1       -0.0003
     21 C         -26.1286    2.4233   31.3065 C.ar    1  UNL1       -0.0033
     22 C         -24.4450    1.5074   27.9025 C.3     1  UNL1        0.0178
     23 C         -23.1152    1.0172   27.7338 C.3     1  UNL1        0.0014
@<TRIPOS>BOND
     1     5     7    1
     2     2     8    1
     3     8     9    1
     4     9    10    1
     5    10    11    1
     6    11    12    3
     7     8    13    1
     8    12    13    1
     9     8    14    1
    10     9    15    1
    11    13    16    1
    12    13    22    1
    13    22    23    1
    14     1     2   ar
    15     2     3   ar
    16     3     4   ar
    17     4     5   ar
    18     5     6   ar
    19     6     1   ar
    20    16    17   ar
    21    17    18   ar
    22    18    19   ar
    23    19    20   ar
    24    20    21   ar
    25    21    16   ar
