@<TRIPOS>MOLECULE
No_341-gen_results/8p0m/2024-11-26-14-13-15/
 12 12 0 0 0
SMALL
GASTEIGER

@<TRIPOS>ATOM
      1 C         -28.0162   -0.8135   28.8779 C.3     1  UNL1        0.3410
      2 C         -27.0636   -0.1189   28.6079 C.ar    1  UNL1        0.0436
      3 C         -26.8756    1.1325   28.9134 C.ar    1  UNL1        0.0013
      4 C         -25.6883    1.9515   28.5672 C.ar    1  UNL1        0.0064
      5 C         -24.6394    1.2834   27.8753 C.ar    1  UNL1        0.0798
      6 C         -24.8068   -0.0513   27.6040 C.ar    1  UNL1        0.0064
      7 C         -25.9019   -0.7670   27.9511 C.ar    1  UNL1        0.0013
      8 F         -27.8714   -2.0158   29.4385 F       1  UNL1       -0.1933
      9 F         -28.8239   -0.1520   29.8554 F       1  UNL1       -0.1933
     10 C         -23.4226    1.9607   27.5002 C.2     1  UNL1        0.3878
     11 O         -22.7651    2.4905   28.0408 O.co2   1  UNL1       -0.2406
     12 O         -23.2662    1.9152   26.1053 O.co2   1  UNL1       -0.2406
@<TRIPOS>BOND
     1     1     8    1
     2     1     9    1
     3     5    10    1
     4    10    11   ar
     5    10    12   ar
     6     1     2    1
     7     2     3   ar
     8     3     4   ar
     9     4     5   ar
    10     5     6   ar
    11     6     7   ar
    12     7     2   ar
