@<TRIPOS>MOLECULE
No_3410-gen_results/8p0m/2024-11-26-14-13-15/
 11 12 0 0 0
SMALL
GASTEIGER

@<TRIPOS>ATOM
      1 C         -28.0162   -0.8135   28.8779 C.ar    1  UNL1        0.0000
      2 C         -28.4690   -0.7850   29.8287 C.ar    1  UNL1        0.0000
      3 C         -27.1356    0.2359   28.5352 C.ar    1  UNL1        0.0001
      4 C         -26.3351    0.2900   27.2835 C.ar    1  UNL1        0.0023
      5 C         -28.3692    0.1957   30.9236 C.ar    1  UNL1        0.0000
      6 C         -27.5158    1.2655   30.6540 C.ar    1  UNL1        0.0001
      7 C         -26.8411    1.2942   29.4761 C.ar    1  UNL1        0.0022
      8 C         -25.3611    0.7750   26.9674 C.ar    1  UNL1        0.0296
      9 C         -24.8301    1.7667   28.0169 C.ar    1  UNL1        0.1401
     10 C         -25.5665    2.0014   29.2022 C.ar    1  UNL1        0.0296
     11 F         -23.7629    2.5319   27.7193 F       1  UNL1       -0.2042
@<TRIPOS>BOND
     1     9    11    1
     2     1     2   ar
     3     2     5   ar
     4     5     6   ar
     5     6     7   ar
     6     3     1   ar
     7     3     4   ar
     8     4     8   ar
     9     8     9   ar
    10     9    10   ar
    11    10     7   ar
    12     7     3   ar
