@<TRIPOS>MOLECULE
No_3412-gen_results/8p0m/2024-11-26-14-13-15/
 22 24 0 0 0
SMALL
GASTEIGER

@<TRIPOS>ATOM
      1 C         -28.0162   -0.8135   28.8779 C.3     1  UNL1        0.0311
      2 C         -28.4690   -0.7850   29.8287 C.3     1  UNL1        0.0379
      3 C         -27.0871    0.2903   28.6377 C.ar    1  UNL1       -0.0255
      4 C         -26.9103    0.8486   27.4199 C.ar    1  UNL1       -0.0043
      5 C         -27.8863   -0.5049   31.0945 C.2     1  UNL1        0.0351
      6 C         -28.4684   -0.6301   32.3865 C.1     1  UNL1        0.1250
      7 C         -25.8008    1.6968   27.1743 C.ar    1  UNL1        0.0035
      8 C         -24.8836    1.9949   28.2152 C.ar    1  UNL1        0.0711
      9 C         -25.0172    1.3818   29.4076 C.ar    1  UNL1       -0.0004
     10 C         -26.0450    0.5052   29.6452 C.ar    1  UNL1       -0.0214
     11 C         -26.5972    0.2423   30.9309 C.3     1  UNL1        0.0589
     12 C         -27.7065    0.5597   26.2461 C.ar    1  UNL1       -0.0003
     13 C         -28.9183    0.5319   26.1264 C.ar    1  UNL1       -0.0000
     14 C         -29.6482    0.2585   24.9533 C.ar    1  UNL1       -0.0000
     15 C         -28.8594   -0.1150   23.8266 C.ar    1  UNL1       -0.0000
     16 C         -27.0559    0.2649   25.0139 C.ar    1  UNL1       -0.0000
     17 C         -27.5692   -0.0521   23.9323 C.ar    1  UNL1       -0.0000
     18 C         -23.3637    2.0795   27.7100 C.3     1  UNL1        0.4186
     19 F         -22.9361    1.1983   27.3059 F       1  UNL1       -0.1659
     20 F         -23.3823    3.1709   26.7225 F       1  UNL1       -0.1659
     21 F         -22.6407    2.6574   28.6882 F       1  UNL1       -0.1659
     22 O         -27.8706   -0.4923   33.2958 O.2     1  UNL1       -0.2318
@<TRIPOS>BOND
     1     1     2    1
     2     1     3    1
     3     2     5    1
     4     5     6    2
     5     5    11    1
     6    10    11    1
     7     4    12    1
     8     8    18    1
     9    18    19    1
    10    18    20    1
    11    18    21    1
    12     6    22    2
    13     3     4   ar
    14     4     7   ar
    15     7     8   ar
    16     8     9   ar
    17     9    10   ar
    18    10     3   ar
    19    12    13   ar
    20    13    14   ar
    21    14    15   ar
    22    15    17   ar
    23    17    16   ar
    24    16    12   ar
