@<TRIPOS>MOLECULE
No_3413-gen_results/8p0m/2024-11-26-14-13-15/
 19 21 0 0 0
SMALL
GASTEIGER

@<TRIPOS>ATOM
      1 C         -28.0162   -0.8135   28.8779 C.ar    1  UNL1        0.0350
      2 C         -27.0636   -0.1189   28.6079 C.ar    1  UNL1        0.1392
      3 N         -25.8176   -0.3427   29.0488 N.ar    1  UNL1       -0.2285
      4 C         -25.5552   -1.4726   29.7295 C.ar    1  UNL1        0.1003
      5 C         -26.6210   -2.2986   30.1049 C.ar    1  UNL1        0.0208
      6 C         -27.8348   -1.9700   29.6762 C.ar    1  UNL1        0.0045
      7 N         -27.1598    1.0910   27.8992 N.pl3   1  UNL1       -0.2511
      8 C         -27.6895    1.1876   26.7187 C.ar    1  UNL1        0.0569
      9 C         -28.3825    0.2716   26.2261 C.ar    1  UNL1        0.0152
     10 C         -28.9494    0.3502   24.8926 C.ar    1  UNL1        0.0013
     11 C         -28.7103    1.5228   24.1745 C.ar    1  UNL1        0.0001
     12 C         -27.9649    2.5632   24.7067 C.ar    1  UNL1        0.0013
     13 C         -27.4523    2.4621   25.9703 C.ar    1  UNL1        0.0152
     14 C         -26.5871    2.3248   28.5947 C.ar    1  UNL1        0.0569
     15 C         -26.3192    2.2394   30.0448 C.ar    1  UNL1        0.0152
     16 C         -25.7306    3.3962   30.4798 C.ar    1  UNL1        0.0013
     17 C         -25.4820    4.5456   29.7821 C.ar    1  UNL1        0.0001
     18 C         -25.7452    4.5358   28.4127 C.ar    1  UNL1        0.0013
     19 C         -26.2916    3.3845   27.8096 C.ar    1  UNL1        0.0152
@<TRIPOS>BOND
     1     2     7    1
     2     7     8    1
     3     7    14    1
     4     1     2   ar
     5     2     3   ar
     6     3     4   ar
     7     4     5   ar
     8     5     6   ar
     9     6     1   ar
    10     8     9   ar
    11     9    10   ar
    12    10    11   ar
    13    11    12   ar
    14    12    13   ar
    15    13     8   ar
    16    14    15   ar
    17    15    16   ar
    18    16    17   ar
    19    17    18   ar
    20    18    19   ar
    21    19    14   ar
