@<TRIPOS>MOLECULE
No_3414-gen_results/8p0m/2024-11-26-14-13-15/
 26 28 0 0 0
SMALL
GASTEIGER

@<TRIPOS>ATOM
      1 C         -28.0162   -0.8135   28.8779 C.3     1  UNL1        0.3410
      2 C         -27.0636   -0.1189   28.6079 C.ar    1  UNL1        0.0436
      3 C         -26.9287    1.1713   29.0083 C.ar    1  UNL1        0.0012
      4 C         -25.7702    2.0341   28.6884 C.ar    1  UNL1        0.0010
      5 C         -24.7141    1.4431   27.9188 C.ar    1  UNL1        0.0131
      6 C         -24.8590    0.0783   27.5836 C.ar    1  UNL1        0.0010
      7 C         -25.9647   -0.6606   27.9164 C.ar    1  UNL1        0.0012
      8 F         -29.0591   -0.5087   28.2818 F       1  UNL1       -0.1933
      9 F         -27.9950   -1.8369   29.6552 F       1  UNL1       -0.1933
     10 C         -23.5400    2.1438   27.5689 C.2     1  UNL1        0.0540
     11 N         -22.3778    2.1966   27.9276 N.2     1  UNL1       -0.2743
     12 C         -23.7701    2.9385   26.2626 C.3     1  UNL1        0.0516
     13 C         -21.4525    1.1493   28.0563 C.3     1  UNL1        0.1298
     14 C         -21.5702    0.1777   28.8018 C.3     1  UNL1        0.0526
     15 C         -22.5312    0.0976   29.8299 C.ar    1  UNL1       -0.0202
     16 C         -22.7153   -1.0678   30.6735 C.ar    1  UNL1       -0.0042
     17 C         -23.6378   -0.9504   31.6775 C.ar    1  UNL1       -0.0003
     18 C         -24.4534    0.1936   31.8872 C.ar    1  UNL1       -0.0000
     19 C         -25.4771    0.2051   32.8936 C.ar    1  UNL1       -0.0000
     20 C         -26.4029    1.2515   32.9146 C.ar    1  UNL1       -0.0000
     21 C         -27.5469    1.1765   33.6719 C.ar    1  UNL1        0.0000
     22 C         -27.8147   -0.0245   34.3603 C.ar    1  UNL1        0.0000
     23 C         -26.9745   -1.0690   34.2725 C.ar    1  UNL1        0.0000
     24 C         -25.8347   -0.9815   33.5143 C.ar    1  UNL1       -0.0000
     25 C         -24.2280    1.3143   31.0087 C.ar    1  UNL1       -0.0003
     26 C         -23.1540    1.3119   30.1039 C.ar    1  UNL1       -0.0042
@<TRIPOS>BOND
     1     1     2    1
     2     1     8    1
     3     1     9    1
     4     5    10    1
     5    10    11    2
     6    10    12    1
     7    11    13    1
     8    13    14    1
     9    18    19    1
    10    14    15    1
    11     2     3   ar
    12     3     4   ar
    13     4     5   ar
    14     5     6   ar
    15     6     7   ar
    16     7     2   ar
    17    15    16   ar
    18    16    17   ar
    19    17    18   ar
    20    18    25   ar
    21    25    26   ar
    22    26    15   ar
    23    19    20   ar
    24    20    21   ar
    25    21    22   ar
    26    22    23   ar
    27    23    24   ar
    28    24    19   ar
