@<TRIPOS>MOLECULE
No_3416-gen_results/8p0m/2024-11-26-14-13-15/
 16 16 0 0 0
SMALL
GASTEIGER

@<TRIPOS>ATOM
      1 C         -28.0162   -0.8135   28.8779 C.ar    1  UNL1        0.0046
      2 C         -28.4690   -0.7850   29.8287 C.ar    1  UNL1        0.0001
      3 C         -27.1356    0.2359   28.5352 C.ar    1  UNL1        0.0550
      4 C         -26.8745    1.2825   29.3982 C.ar    1  UNL1        0.0046
      5 C         -28.3613    0.1987   30.9244 C.ar    1  UNL1        0.0000
      6 C         -27.5277    1.2234   30.6356 C.ar    1  UNL1        0.0001
      7 C         -26.3987    0.2949   27.2279 C.2     1  UNL1        0.2648
      8 N         -26.0303    1.4479   26.7584 N.am    1  UNL1       -0.2017
      9 O         -26.1891   -0.7238   26.5721 O.2     1  UNL1       -0.2684
     10 C         -25.2103    1.5894   25.5492 C.3     1  UNL1        0.1159
     11 C         -23.9712    2.2955   25.8327 C.3     1  UNL1        0.0312
     12 C         -23.8349    2.9096   27.1197 C.3     1  UNL1        0.0667
     13 C         -22.8445    2.6103   27.9596 C.3     1  UNL1        0.0078
     14 C         -24.6540    4.0816   27.4446 C.2     1  UNL1        0.2070
     15 C         -22.0116    1.4348   27.6261 C.3     1  UNL1        0.0005
     16 O         -24.8636    4.9614   26.6839 O.2     1  UNL1       -0.2883
@<TRIPOS>BOND
     1     3     7    1
     2     7     8   am
     3     7     9    2
     4     8    10    1
     5    10    11    1
     6    11    12    1
     7    12    13    1
     8    12    14    1
     9    13    15    1
    10    14    16    2
    11     1     2   ar
    12     2     5   ar
    13     5     6   ar
    14     6     4   ar
    15     4     3   ar
    16     3     1   ar
