@<TRIPOS>MOLECULE
No_3417-gen_results/8p0m/2024-11-26-14-13-15/
 9 9 0 0 0
SMALL
GASTEIGER

@<TRIPOS>ATOM
      1 F         -28.0727   -1.2542   28.5316 F       1  UNL1       -0.1933
      2 C         -27.3591   -0.3792   28.7224 C.3     1  UNL1        0.3410
      3 C         -26.8100    0.1885   27.6513 C.ar    1  UNL1        0.0436
      4 C         -25.6015    0.9529   27.6828 C.ar    1  UNL1        0.0011
      5 C         -24.8881    1.5328   26.5873 C.ar    1  UNL1       -0.0001
      6 C         -25.4370    1.1787   25.3139 C.ar    1  UNL1       -0.0000
      7 C         -26.5059    0.3325   25.2401 C.ar    1  UNL1       -0.0001
      8 C         -27.1146   -0.1812   26.3328 C.ar    1  UNL1        0.0011
      9 F         -26.3375   -0.7203   29.6335 F       1  UNL1       -0.1933
@<TRIPOS>BOND
     1     1     2    1
     2     2     9    1
     3     2     3    1
     4     3     4   ar
     5     4     5   ar
     6     5     6   ar
     7     6     7   ar
     8     7     8   ar
     9     8     3   ar
