@<TRIPOS>MOLECULE
No_3418-gen_results/8p0m/2024-11-26-14-13-15/
 13 14 0 0 0
SMALL
GASTEIGER

@<TRIPOS>ATOM
      1 C         -28.0162   -0.8135   28.8779 C.ar    1  UNL1        0.0067
      2 C         -27.0636   -0.1190   28.6079 C.ar    1  UNL1        0.0005
      3 C         -25.7923   -0.4302   29.0761 C.ar    1  UNL1        0.0000
      4 C         -25.5756   -1.5654   29.9363 C.ar    1  UNL1        0.0005
      5 C         -26.7354   -2.3004   30.2173 C.ar    1  UNL1        0.0067
      6 C         -27.9184   -1.9537   29.7629 C.ar    1  UNL1        0.0346
      7 BR        -29.4034   -2.9791   30.2597 Br      1  UNL1       -0.0490
      8 C         -27.1046    1.1105   27.7589 C.ar    1  UNL1        0.0000
      9 C         -27.8871    1.7214   27.5280 C.ar    1  UNL1        0.0000
     10 C         -27.9194    2.9020   26.5518 C.ar    1  UNL1        0.0000
     11 C         -26.7641    3.1913   25.8681 C.ar    1  UNL1        0.0000
     12 C         -25.6145    2.4292   26.1293 C.ar    1  UNL1        0.0000
     13 C         -25.6928    1.4142   27.0315 C.ar    1  UNL1        0.0000
@<TRIPOS>BOND
     1     6     7    1
     2     2     8    1
     3     1     2   ar
     4     2     3   ar
     5     3     4   ar
     6     4     5   ar
     7     5     6   ar
     8     6     1   ar
     9     8     9   ar
    10     9    10   ar
    11    10    11   ar
    12    11    12   ar
    13    12    13   ar
    14    13     8   ar
