@<TRIPOS>MOLECULE
No_342-gen_results/8p0m/2024-11-26-14-13-15/
 7 6 0 0 0
SMALL
GASTEIGER

@<TRIPOS>ATOM
      1 C         -28.0162   -0.8135   28.8779 C.3     1  UNL1        0.0307
      2 C         -27.0636   -0.1189   28.6079 C.2     1  UNL1       -0.0258
      3 C         -27.0010    0.6913   27.4910 C.2     1  UNL1       -0.0049
      4 C         -25.8548    1.4825   27.0830 C.2     1  UNL1       -0.0049
      5 C         -24.6901    1.4526   27.8807 C.2     1  UNL1       -0.0261
      6 C         -24.7379    0.6010   29.0416 C.3     1  UNL1        0.0260
      7 C         -25.8234   -0.1688   29.3887 C.3     1  UNL1        0.0050
@<TRIPOS>BOND
     1     1     2    1
     2     2     3    2
     3     3     4    1
     4     4     5    2
     5     5     6    1
     6     6     7    1
