@<TRIPOS>MOLECULE
No_3421-gen_results/8p0m/2024-11-26-14-13-15/
 35 39 0 0 0
SMALL
GASTEIGER

@<TRIPOS>ATOM
      1 C         -28.0162   -0.8135   28.8779 C.2     1  UNL1        0.2502
      2 C         -27.0636   -0.1189   28.6079 C.ar    1  UNL1        0.0536
      3 C         -26.9287    1.1713   29.0083 C.ar    1  UNL1        0.0047
      4 C         -25.7702    2.0341   28.6884 C.ar    1  UNL1        0.0067
      5 C         -24.7141    1.4431   27.9188 C.ar    1  UNL1        0.0798
      6 C         -24.8590    0.0783   27.5836 C.ar    1  UNL1        0.0067
      7 C         -25.9647   -0.6606   27.9164 C.ar    1  UNL1        0.0047
      8 N         -29.1701   -0.2984   28.9471 N.am    1  UNL1       -0.2602
      9 C         -29.7216    0.3727   28.0429 C.3     1  UNL1        0.1079
     10 C         -30.7197    0.3622   27.5501 C.3     1  UNL1        0.1391
     11 C         -31.7199   -0.6191   28.0465 C.3     1  UNL1        0.0871
     12 C         -30.1477   -0.8159   29.9380 C.3     1  UNL1        0.1604
     13 N         -31.3884   -1.0895   29.3103 N.3     1  UNL1       -0.2501
     14 C         -23.4892    2.1182   27.5985 C.2     1  UNL1        0.3878
     15 O         -22.4328    1.8894   27.6215 O.co2   1  UNL1       -0.2406
     16 O         -23.8029    3.3849   27.1528 O.co2   1  UNL1       -0.2406
     17 O         -27.8058   -1.9662   29.4500 O.2     1  UNL1       -0.2699
     18 C         -31.0506    0.8922   26.1881 C.2     1  UNL1        0.3674
     19 O         -30.4285    1.6241   25.6134 O.co2   1  UNL1       -0.2456
     20 O         -32.0506    0.2395   25.5261 O.co2   1  UNL1       -0.2456
     21 C         -32.3173   -1.9145   30.0701 C.3     1  UNL1        0.1003
     22 C         -33.1256   -1.2492   30.8970 C.2     1  UNL1       -0.0088
     23 C         -33.0372   -0.2210   31.3276 C.2     1  UNL1       -0.0034
     24 C         -31.8851    0.7243   31.0992 C.ar    1  UNL1       -0.0014
     25 C         -31.9702    2.0879   31.7231 C.ar    1  UNL1       -0.0002
     26 C         -30.8205    2.9093   31.6037 C.ar    1  UNL1       -0.0000
     27 C         -29.6762    2.4430   30.8949 C.ar    1  UNL1       -0.0002
     28 C         -29.6275    1.1494   30.5911 C.ar    1  UNL1       -0.0013
     29 C         -30.6966    0.3367   30.8284 C.ar    1  UNL1        0.0112
     30 C         -28.5631    3.4663   30.9126 C.ar    1  UNL1       -0.0000
     31 C         -27.5382    3.2129   31.7476 C.ar    1  UNL1       -0.0000
     32 C         -26.4339    4.1400   31.7227 C.ar    1  UNL1       -0.0000
     33 C         -26.2965    5.1734   30.7828 C.ar    1  UNL1        0.0000
     34 C         -27.3666    5.3207   29.9017 C.ar    1  UNL1       -0.0000
     35 C         -28.5040    4.4759   29.9591 C.ar    1  UNL1       -0.0000
@<TRIPOS>BOND
     1     1     2    1
     2     1     8   am
     3     8     9    1
     4    10    11    1
     5     8    12    1
     6    11    13    1
     7    12    13    1
     8     5    14    1
     9    14    15   ar
    10    14    16   ar
    11     1    17    2
    12    10    18    1
    13    18    19   ar
    14    18    20   ar
    15    13    21    1
    16    21    22    1
    17    22    23    2
    18    23    24    1
    19    12    29    1
    20    27    30    1
    21     9    10    1
    22     2     3   ar
    23     3     4   ar
    24     4     5   ar
    25     5     6   ar
    26     6     7   ar
    27     7     2   ar
    28    24    25   ar
    29    25    26   ar
    30    26    27   ar
    31    27    28   ar
    32    28    29   ar
    33    29    24   ar
    34    30    31   ar
    35    31    32   ar
    36    32    33   ar
    37    33    34   ar
    38    34    35   ar
    39    35    30   ar
