@<TRIPOS>MOLECULE
No_3422-gen_results/8p0m/2024-11-26-14-13-15/
 20 20 0 0 0
SMALL
GASTEIGER

@<TRIPOS>ATOM
      1 O         -28.1229   -1.3353   28.4874 O.2     1  UNL1       -0.2742
      2 C         -27.0637   -0.8242   28.8687 C.2     1  UNL1        0.2395
      3 C         -26.4017   -0.0623   28.6224 C.3     1  UNL1        0.1723
      4 N         -26.5721   -1.5844   30.1172 N.am    1  UNL1       -0.2223
      5 C         -25.0209    0.3562   29.0444 C.3     1  UNL1        0.0308
      6 C         -24.6541   -0.3468   30.2523 C.3     1  UNL1        0.1243
      7 C         -25.4243   -1.3431   30.6966 C.3     1  UNL1        0.1123
      8 C         -26.9085    0.7722   27.4175 C.3     1  UNL1        0.4056
      9 F         -26.8502    2.0413   27.6455 F       1  UNL1       -0.1695
     10 F         -28.1546    0.4472   27.1726 F       1  UNL1       -0.1695
     11 F         -26.1307    0.5512   26.2938 F       1  UNL1       -0.1695
     12 C         -27.4306   -2.6878   30.6019 C.2     1  UNL1        0.3267
     13 C         -28.5800   -2.3163   31.3647 C.3     1  UNL1        0.4700
     14 F         -28.2847   -1.5359   32.2181 F       1  UNL1       -0.1620
     15 F         -29.4204   -1.6057   30.4534 F       1  UNL1       -0.1620
     16 F         -29.1878   -3.4037   31.8137 F       1  UNL1       -0.1620
     17 O         -27.0426   -3.8680   30.2495 O.2     1  UNL1       -0.2653
     18 C         -23.3495    0.0685   30.8531 C.2     1  UNL1        0.3660
     19 O         -23.1020   -0.2308   31.9190 O.co2   1  UNL1       -0.2456
     20 O         -22.4524    0.7029   30.0648 O.co2   1  UNL1       -0.2456
@<TRIPOS>BOND
     1     1     2    2
     2     2     3    1
     3     2     4   am
     4     3     5    1
     5     4     7    1
     6     6     7    1
     7     3     8    1
     8     8     9    1
     9     8    10    1
    10     8    11    1
    11     4    12   am
    12    12    13    1
    13    13    14    1
    14    13    15    1
    15    13    16    1
    16    12    17    2
    17     6    18    1
    18    18    19   ar
    19    18    20   ar
    20     5     6    1
