@<TRIPOS>MOLECULE
No_3423-gen_results/8p0m/2024-11-26-14-13-15/
 35 38 0 0 0
SMALL
GASTEIGER

@<TRIPOS>ATOM
      1 C         -28.0162   -0.8135   28.8779 C.ar    1  UNL1       -0.0055
      2 C         -27.0636   -0.1190   28.6079 C.ar    1  UNL1       -0.0221
      3 C         -26.8756    1.1325   28.9134 C.ar    1  UNL1       -0.0043
      4 C         -27.9014    1.8066   29.6436 C.ar    1  UNL1       -0.0005
      5 C         -29.0458   -0.2316   29.7181 C.ar    1  UNL1        0.0125
      6 C         -28.9402    1.0517   30.0597 C.ar    1  UNL1       -0.0013
      7 C         -30.1632   -1.1170   30.1252 C.3     1  UNL1        0.1827
      8 C         -30.6370   -0.9936   31.3591 C.ar    1  UNL1        0.0128
      9 O         -29.7644   -2.4969   29.8786 O.3     1  UNL1       -0.2121
     10 C         -31.2494   -0.9713   29.0155 C.ar    1  UNL1        0.0130
     11 C         -31.3060   -0.0033   28.2712 C.ar    1  UNL1        0.0053
     12 C         -32.2454   -0.0043   27.1463 C.ar    1  UNL1        0.0796
     13 C         -32.2662   -2.0076   28.9204 C.ar    1  UNL1       -0.0013
     14 C         -33.1815   -1.9952   27.9211 C.ar    1  UNL1       -0.0000
     15 C         -33.1796   -0.9424   27.0435 C.ar    1  UNL1        0.0066
     16 C         -31.0057    0.0254   31.9898 C.ar    1  UNL1       -0.0013
     17 C         -31.5369    0.2107   33.1899 C.ar    1  UNL1       -0.0002
     18 C         -31.6283   -0.9564   33.9475 C.ar    1  UNL1       -0.0000
     19 C         -31.0949   -2.1009   32.2585 C.ar    1  UNL1       -0.0013
     20 C         -31.4311   -2.1065   33.4891 C.ar    1  UNL1       -0.0002
     21 C         -25.9035   -0.7066   27.7354 C.3     1  UNL1        0.0307
     22 C         -24.6929   -1.0626   28.5754 C.3     1  UNL1        0.0267
     23 C         -24.6621   -2.2577   29.1168 C.ar    1  UNL1       -0.0222
     24 C         -25.7009   -3.1891   29.1282 C.ar    1  UNL1       -0.0043
     25 C         -25.4888   -4.5953   29.3537 C.ar    1  UNL1       -0.0003
     26 C         -24.2084   -5.0719   29.1947 C.ar    1  UNL1       -0.0000
     27 C         -23.2010   -4.1835   28.7344 C.ar    1  UNL1       -0.0003
     28 C         -23.3794   -2.8843   28.7205 C.ar    1  UNL1       -0.0043
     29 C         -32.2347    1.1710   26.1613 C.2     1  UNL1        0.3877
     30 O         -32.3784    2.2323   26.4006 O.co2   1  UNL1       -0.2406
     31 O         -31.9175    0.7262   24.9594 O.co2   1  UNL1       -0.2406
     32 C         -23.7823    0.0237   28.8715 C.3     1  UNL1        0.0044
     33 C         -23.1406    0.1226   30.0325 C.3     1  UNL1        0.0003
     34 C         -23.3478    0.8814   27.7753 C.3     1  UNL1        0.0003
     35 C         -24.1365    1.8546   27.1495 C.3     1  UNL1        0.0000
@<TRIPOS>BOND
     1     5     7    1
     2     7     8    1
     3     7     9    1
     4     7    10    1
     5     2    21    1
     6    21    22    1
     7    12    29    1
     8    29    30   ar
     9    29    31   ar
    10    22    32    1
    11    32    33    1
    12    32    34    1
    13    34    35    1
    14    22    23    1
    15     8    16   ar
    16    16    17   ar
    17    17    18   ar
    18    18    20   ar
    19    20    19   ar
    20    19     8   ar
    21    23    24   ar
    22    24    25   ar
    23    25    26   ar
    24    26    27   ar
    25    27    28   ar
    26    28    23   ar
    27     1     2   ar
    28     2     3   ar
    29     3     4   ar
    30     4     6   ar
    31     6     5   ar
    32     5     1   ar
    33    10    11   ar
    34    11    12   ar
    35    12    15   ar
    36    15    14   ar
    37    14    13   ar
    38    13    10   ar
