@<TRIPOS>MOLECULE
No_3424-gen_results/8p0m/2024-11-26-14-13-15/
 14 14 0 0 0
SMALL
GASTEIGER

@<TRIPOS>ATOM
      1 C         -28.0162   -0.8135   28.8779 C.ar    1  UNL1        0.0002
      2 C         -27.0636   -0.1189   28.6079 C.ar    1  UNL1       -0.0000
      3 C         -26.9716    0.7139   27.5060 C.ar    1  UNL1        0.0001
      4 C         -28.1053    0.7744   26.6421 C.ar    1  UNL1        0.0066
      5 C         -29.2041    0.1179   27.0477 C.ar    1  UNL1        0.0798
      6 C         -30.3488    0.2568   26.2203 C.2     1  UNL1        0.3878
      7 C         -29.1817   -0.6758   28.1173 C.ar    1  UNL1        0.0066
      8 O         -30.3285   -0.0553   25.0162 O.co2   1  UNL1       -0.2406
      9 O         -31.5408    0.4943   26.7257 O.co2   1  UNL1       -0.2406
     10 C         -25.6689    1.4187   27.1340 C.2     1  UNL1        0.0010
     11 C         -24.5290    1.0495   27.7204 C.2     1  UNL1        0.0448
     12 C         -23.3099    1.8141   27.3784 C.3     1  UNL1        0.3409
     13 F         -23.4176    2.5446   26.3720 F       1  UNL1       -0.1933
     14 F         -22.1865    1.0130   27.1405 F       1  UNL1       -0.1933
@<TRIPOS>BOND
     1     5     6    1
     2     6     8   ar
     3     6     9   ar
     4     3    10    1
     5    10    11    2
     6    11    12    1
     7    12    13    1
     8    12    14    1
     9     1     2   ar
    10     2     3   ar
    11     3     4   ar
    12     4     5   ar
    13     5     7   ar
    14     7     1   ar
