@<TRIPOS>MOLECULE
No_3425-gen_results/8p0m/2024-11-26-14-13-15/
 32 35 0 0 0
SMALL
GASTEIGER

@<TRIPOS>ATOM
      1 C         -28.0162   -0.8135   28.8779 C.ar    1  UNL1        0.0229
      2 C         -28.4690   -0.7850   29.8287 C.ar    1  UNL1        0.1223
      3 C         -28.1816    0.4277   28.1134 C.ar    1  UNL1        0.0353
      4 C         -27.4498    0.6435   26.8500 C.ar    1  UNL1        0.1387
      5 C         -27.8596    1.4573   25.9076 C.ar    1  UNL1        0.0369
      6 C         -29.4263    0.1097   30.4178 C.ar    1  UNL1        0.0199
      7 C         -29.6233    1.2198   29.7351 C.ar    1  UNL1        0.0015
      8 C         -28.9609    1.4529   28.5513 C.ar    1  UNL1        0.0030
      9 C         -28.7869    2.5467   26.3167 C.ar    1  UNL1        0.0031
     10 C         -29.4265    2.4288   27.5639 C.ar    1  UNL1        0.0002
     11 O         -26.5515   -0.2951   26.4177 O.3     1  UNL1       -0.4714
     12 C         -25.7312    0.1908   25.4679 C.3     1  UNL1        0.2525
     13 S         -28.1978   -2.3241   30.9634 S.O2    1  UNL1        0.0633
     14 O         -27.0803   -2.8428   30.5061 O.2     1  UNL1       -0.1528
     15 N         -29.5154   -3.2080   30.6988 N.3     1  UNL1       -0.1552
     16 O         -28.1833   -1.7804   32.3079 O.2     1  UNL1       -0.1528
     17 C         -29.3508   -4.5233   30.4527 C.3     1  UNL1        0.0963
     18 C         -30.5986   -5.1203   29.9211 C.3     1  UNL1        0.0273
     19 C         -31.7510   -4.4837   30.2715 C.3     1  UNL1        0.0717
     20 C         -31.7699   -3.0761   30.3957 C.3     1  UNL1        0.0468
     21 C         -30.6801   -2.5226   30.8116 C.3     1  UNL1        0.1005
     22 C         -33.0120   -2.5972   31.1323 C.2     1  UNL1       -0.0288
     23 C         -33.4001   -1.2838   30.9079 C.2     1  UNL1       -0.0259
     24 C         -32.7760   -0.4961   30.0036 C.3     1  UNL1        0.0520
     25 C         -33.4222   -0.0952   28.9497 C.ar    1  UNL1       -0.0178
     26 C         -32.7586    0.5771   27.8205 C.ar    1  UNL1       -0.0039
     27 C         -32.7519    0.4700   26.7022 C.ar    1  UNL1       -0.0003
     28 C         -33.5554   -0.5151   26.1523 C.ar    1  UNL1       -0.0000
     29 C         -34.4624   -1.1680   27.0276 C.ar    1  UNL1       -0.0003
     30 C         -34.7935   -0.2112   28.6982 C.ar    1  UNL1       -0.0039
     31 C         -32.9104   -5.3375   30.2690 C.2     1  UNL1        0.2074
     32 O         -33.9474   -4.9879   30.8537 O.2     1  UNL1       -0.2883
@<TRIPOS>BOND
     1     4    11    1
     2    11    12    1
     3     2    13    1
     4    13    14    2
     5    13    15    1
     6    13    16    2
     7    15    17    1
     8    17    18    1
     9    18    19    1
    10    19    20    1
    11    15    21    1
    12    20    21    1
    13    20    22    1
    14    22    23    2
    15    23    24    1
    16    24    25    1
    17    19    31    1
    18    31    32    2
    19    25    26   ar
    20    26    27   ar
    21    27    28   ar
    22    28    29   ar
    23    29    30   ar
    24    30    25   ar
    25     3     4   ar
    26     4     5   ar
    27     5     9   ar
    28     9    10   ar
    29    10     8   ar
    30     1     2   ar
    31     2     6   ar
    32     6     7   ar
    33     7     8   ar
    34     8     3   ar
    35     3     1   ar
