@<TRIPOS>MOLECULE
No_3426-gen_results/8p0m/2024-11-26-14-13-15/
 15 16 0 0 0
SMALL
GASTEIGER

@<TRIPOS>ATOM
      1 C         -28.0162   -0.8135   28.8779 C.ar    1  UNL1       -0.0026
      2 C         -28.4690   -0.7850   29.8287 C.ar    1  UNL1       -0.0027
      3 C         -26.5042   -0.7777   28.8766 C.ar    1  UNL1       -0.0003
      4 C         -25.8103   -0.8531   30.1028 C.ar    1  UNL1       -0.0000
      5 C         -27.9906   -0.8916   31.2257 C.ar    1  UNL1       -0.0026
      6 C         -26.6042   -0.8676   31.2652 C.ar    1  UNL1       -0.0003
      7 C         -30.0739   -0.8360   29.8615 C.3     1  UNL1        0.1142
      8 N         -30.7170    0.0956   30.4784 N.pl3   1  UNL1       -0.2392
      9 C         -31.4241    0.8594   30.2262 C.2     1  UNL1        0.0433
     10 C         -31.8792    1.8171   30.3666 C.2     1  UNL1        0.0117
     11 C         -32.1660    0.2902   28.7981 C.3     1  UNL1        0.0428
     12 C         -31.3297    2.6029   31.6461 C.2     1  UNL1        0.0010
     13 C         -31.6022    3.8912   32.0728 C.2     1  UNL1        0.0000
     14 C         -31.7276   -0.8221   28.2600 C.3     1  UNL1        0.0082
     15 C         -30.3244   -0.8766   28.4372 C.3     1  UNL1        0.0265
@<TRIPOS>BOND
     1     2     7    1
     2     7     8    1
     3     8     9    1
     4     9    10    2
     5     9    11    1
     6    10    12    1
     7    12    13    2
     8    11    14    1
     9     7    15    1
    10    14    15    1
    11     1     2   ar
    12     2     5   ar
    13     5     6   ar
    14     6     4   ar
    15     4     3   ar
    16     3     1   ar
