@<TRIPOS>MOLECULE
No_3427-gen_results/8p0m/2024-11-26-14-13-15/
 9 8 0 0 0
SMALL
GASTEIGER

@<TRIPOS>ATOM
      1 P         -27.9505   -0.5786   29.0402 P.3     1  UNL1        0.5329
      2 O         -27.2401    0.0613   28.4283 O.3     1  UNL1       -0.2654
      3 O         -27.2444   -1.9817   29.3768 O.3     1  UNL1       -0.1145
      4 O         -28.1843   -0.0275   30.5202 O.2     1  UNL1       -0.2224
      5 O         -29.3988   -0.9154   28.6487 O.3     1  UNL1       -0.1145
      6 C         -25.9395    0.2581   28.6022 C.3     1  UNL1        0.1796
      7 C         -25.2158    1.1298   27.6854 C.2     1  UNL1        0.0017
      8 C         -23.8138    1.1891   27.9726 C.2     1  UNL1       -0.0279
      9 C         -22.9906    2.2565   27.4584 C.3     1  UNL1        0.0304
@<TRIPOS>BOND
     1     1     2    1
     2     1     3    1
     3     1     4    2
     4     1     5    1
     5     2     6    1
     6     6     7    1
     7     7     8    2
     8     8     9    1
