@<TRIPOS>MOLECULE
No_3428-gen_results/8p0m/2024-11-26-14-13-15/
 16 16 0 0 0
SMALL
GASTEIGER

@<TRIPOS>ATOM
      1 C         -28.0162   -0.8135   28.8779 C.3     1  UNL1        0.1404
      2 C         -27.0636   -0.1189   28.6079 C.ar    1  UNL1       -0.0109
      3 C         -25.7647   -0.3897   29.0360 C.ar    1  UNL1       -0.0035
      4 C         -24.5516    0.4058   28.7646 C.ar    1  UNL1        0.0063
      5 C         -24.6957    1.4480   27.7988 C.ar    1  UNL1        0.0798
      6 C         -25.9755    1.7250   27.3077 C.ar    1  UNL1        0.0063
      7 C         -27.0718    1.0134   27.6535 C.ar    1  UNL1       -0.0035
      8 C         -28.6178   -0.4695   30.2207 C.2     1  UNL1        0.3692
      9 O         -29.6245   -1.2712   30.6820 O.co2   1  UNL1       -0.2453
     10 C         -23.4834    2.1873   27.4808 C.2     1  UNL1        0.3878
     11 O         -23.5540    3.1441   26.6990 O.co2   1  UNL1       -0.2406
     12 O         -22.2324    1.6628   27.6576 O.co2   1  UNL1       -0.2406
     13 O         -28.2371    0.3594   30.8982 O.co2   1  UNL1       -0.2453
     14 C         -28.3748    1.3201   27.0379 C.2     1  UNL1       -0.0049
     15 C         -28.9487    2.4193   27.5625 C.2     1  UNL1       -0.0258
     16 C         -30.2410    2.8518   27.0101 C.3     1  UNL1        0.0307
@<TRIPOS>BOND
     1     1     8    1
     2     8     9   ar
     3     5    10    1
     4    10    11   ar
     5    10    12   ar
     6     8    13   ar
     7     7    14    1
     8    14    15    2
     9    15    16    1
    10     1     2    1
    11     2     3   ar
    12     3     4   ar
    13     4     5   ar
    14     5     6   ar
    15     6     7   ar
    16     7     2   ar
