@<TRIPOS>MOLECULE
No_3431-gen_results/8p0m/2024-11-26-14-13-15/
 20 23 0 0 0
SMALL
GASTEIGER

@<TRIPOS>ATOM
      1 C         -28.0162   -0.8135   28.8779 C.ar    1  UNL1        0.0000
      2 C         -28.4690   -0.7850   29.8287 C.ar    1  UNL1        0.0000
      3 C         -26.5042   -0.7777   28.8766 C.ar    1  UNL1        0.0000
      4 C         -25.8103   -0.8531   30.1028 C.ar    1  UNL1        0.0000
      5 C         -27.9906   -0.8916   31.2257 C.ar    1  UNL1        0.0000
      6 C         -26.6042   -0.8676   31.2652 C.ar    1  UNL1        0.0000
      7 C         -24.4436   -0.6734   29.9745 C.ar    1  UNL1        0.0000
      8 C         -23.7579   -0.0773   29.0348 C.ar    1  UNL1        0.0000
      9 C         -22.3098    0.0234   29.0817 C.ar    1  UNL1        0.0000
     10 C         -21.6167    0.7242   28.0737 C.ar    1  UNL1        0.0000
     11 C         -22.3583    1.5400   27.1683 C.ar    1  UNL1        0.0000
     12 C         -23.7595    1.5966   27.2412 C.ar    1  UNL1        0.0000
     13 C         -24.4431    0.8590   28.1928 C.ar    1  UNL1        0.0000
     14 C         -25.7715    0.0513   27.9512 C.ar    1  UNL1        0.0000
     15 C         -26.4375    0.5079   26.6357 C.ar    1  UNL1        0.0000
     16 C         -26.1026   -0.1991   25.5771 C.ar    1  UNL1        0.0000
     17 C         -27.3213    1.5381   26.6023 C.ar    1  UNL1        0.0000
     18 C         -28.0268    1.7888   25.4806 C.ar    1  UNL1        0.0000
     19 C         -26.7150   -0.0076   24.3424 C.ar    1  UNL1        0.0000
     20 C         -27.6852    1.0512   24.3213 C.ar    1  UNL1        0.0000
@<TRIPOS>BOND
     1    14    15    1
     2     4     7   ar
     3     7     8   ar
     4    13    14   ar
     5    14     3   ar
     6     8     9   ar
     7     9    10   ar
     8    10    11   ar
     9    11    12   ar
    10    12    13   ar
    11    13     8   ar
    12     1     2   ar
    13     2     5   ar
    14     5     6   ar
    15     6     4   ar
    16     4     3   ar
    17     3     1   ar
    18    15    16   ar
    19    16    19   ar
    20    19    20   ar
    21    20    18   ar
    22    18    17   ar
    23    17    15   ar
