@<TRIPOS>MOLECULE
No_3433-gen_results/8p0m/2024-11-26-14-13-15/
 18 18 0 0 0
SMALL
GASTEIGER

@<TRIPOS>ATOM
      1 C         -28.0162   -0.8135   28.8779 C.3     1  UNL1        0.1207
      2 C         -27.0636   -0.1189   28.6079 C.ar    1  UNL1       -0.0046
      3 C         -25.7923   -0.4302   29.0761 C.ar    1  UNL1       -0.0027
      4 C         -24.5456    0.3494   28.8225 C.ar    1  UNL1        0.0043
      5 C         -24.6586    1.4196   27.8878 C.ar    1  UNL1        0.0566
      6 C         -25.9471    1.6811   27.3792 C.ar    1  UNL1        0.0043
      7 C         -27.0439    0.9739   27.6871 C.ar    1  UNL1       -0.0027
      8 N         -29.1882   -0.1472   29.0918 N.3     1  UNL1       -0.1497
      9 C         -30.2017   -0.7833   29.7303 C.3     1  UNL1        0.4079
     10 C         -23.6445    2.3436   27.6825 C.2     1  UNL1        0.2842
     11 N         -23.4998    2.9799   26.5641 N.am    1  UNL1       -0.0837
     12 O         -22.4935    2.2569   28.3546 O.2     1  UNL1       -0.2667
     13 F         -30.5487   -0.3745   30.8419 F       1  UNL1       -0.1760
     14 O         -31.3079   -0.7969   28.8122 O.3     1  UNL1       -0.1597
     15 C         -30.0283   -2.2820   30.0056 C.2     1  UNL1        0.3942
     16 O         -30.3887   -2.5599   31.3166 O.3     1  UNL1       -0.4398
     17 O         -29.5281   -3.1219   29.3581 O.2     1  UNL1       -0.2425
     18 C         -30.1567   -3.9755   31.6891 C.3     1  UNL1        0.2558
@<TRIPOS>BOND
     1     1     2    1
     2     1     8    1
     3     8     9    1
     4     5    10    1
     5    10    11   am
     6    10    12    2
     7     9    13    1
     8     9    14    1
     9     9    15    1
    10    15    16    1
    11    15    17    2
    12    16    18    1
    13     2     3   ar
    14     3     4   ar
    15     4     5   ar
    16     5     6   ar
    17     6     7   ar
    18     7     2   ar
