@<TRIPOS>MOLECULE
No_3434-gen_results/8p0m/2024-11-26-14-13-15/
 13 14 0 0 0
SMALL
GASTEIGER

@<TRIPOS>ATOM
      1 C         -28.0162   -0.8135   28.8779 C.ar    1  UNL1        0.0375
      2 C         -28.4690   -0.7850   29.8287 C.ar    1  UNL1        0.1453
      3 C         -26.5455   -0.8762   28.8500 C.ar    1  UNL1        0.0031
      4 C         -25.8041   -1.0324   30.0571 C.ar    1  UNL1        0.0002
      5 C         -27.9437   -0.9869   31.2075 C.ar    1  UNL1        0.0375
      6 C         -26.5825   -1.0386   31.2231 C.ar    1  UNL1        0.0031
      7 O         -29.9267   -0.7257   29.8772 O.3     1  UNL1       -0.4535
      8 C         -30.5050   -0.0237   28.9624 C.ar    1  UNL1        0.1453
      9 C         -31.4832    0.8406   29.2619 C.ar    1  UNL1        0.0375
     10 C         -32.1539    1.5739   28.2620 C.ar    1  UNL1        0.0031
     11 C         -31.7957    1.3125   26.9187 C.ar    1  UNL1        0.0002
     12 C         -30.8391    0.4126   26.5919 C.ar    1  UNL1        0.0031
     13 C         -30.1719   -0.2821   27.5920 C.ar    1  UNL1        0.0375
@<TRIPOS>BOND
     1     2     7    1
     2     7     8    1
     3     8     9   ar
     4     9    10   ar
     5    10    11   ar
     6    11    12   ar
     7    12    13   ar
     8    13     8   ar
     9     1     2   ar
    10     2     5   ar
    11     5     6   ar
    12     6     4   ar
    13     4     3   ar
    14     3     1   ar
