@<TRIPOS>MOLECULE
No_3435-gen_results/8p0m/2024-11-26-14-13-15/
 15 16 0 0 0
SMALL
GASTEIGER

@<TRIPOS>ATOM
      1 C         -28.0162   -0.8135   28.8779 C.ar    1  UNL1        0.0211
      2 C         -27.0636   -0.1189   28.6079 C.ar    1  UNL1        0.0481
      3 N         -26.9849    0.5972   27.5218 N.pl3   1  UNL1       -0.3075
      4 C         -27.9606   -1.5421   30.1660 C.ar    1  UNL1        0.0810
      5 C         -26.7814   -1.6198   30.8836 C.ar    1  UNL1        0.0067
      6 C         -25.7036   -0.9461   30.3328 C.ar    1  UNL1        0.0015
      7 C         -25.7596   -0.1866   29.2380 C.ar    1  UNL1        0.0145
      8 C         -26.7997    1.8989   27.4114 C.3     1  UNL1        0.0908
      9 C         -26.6142    2.5548   26.1511 C.3     1  UNL1        0.0215
     10 C         -27.1643    0.0228   26.1872 C.3     1  UNL1        0.0908
     11 C         -27.1269    0.5516   24.9610 C.3     1  UNL1        0.0215
     12 C         -26.8379    1.8968   24.9063 C.3     1  UNL1        0.0035
     13 C         -29.1268   -2.3398   30.6635 C.2     1  UNL1        0.3878
     14 O         -29.8195   -1.9132   31.3553 O.co2   1  UNL1       -0.2406
     15 O         -28.9587   -3.6419   30.4411 O.co2   1  UNL1       -0.2406
@<TRIPOS>BOND
     1     2     3    1
     2     3     8    1
     3     3    10    1
     4     9    12    1
     5    11    12    1
     6     4    13    1
     7    13    14   ar
     8    13    15   ar
     9     8     9    1
    10    11    10    1
    11     1     2   ar
    12     2     7   ar
    13     7     6   ar
    14     6     5   ar
    15     5     4   ar
    16     4     1   ar
