@<TRIPOS>MOLECULE
No_3437-gen_results/8p0m/2024-11-26-14-13-15/
 16 17 0 0 0
SMALL
GASTEIGER

@<TRIPOS>ATOM
      1 C         -28.0162   -0.8135   28.8779 C.ar    1  UNL1        0.0334
      2 C         -28.4690   -0.7850   29.8287 C.ar    1  UNL1        0.1451
      3 C         -27.0871    0.2903   28.6377 C.ar    1  UNL1       -0.0152
      4 C         -26.8317    1.2487   29.5869 C.ar    1  UNL1        0.0310
      5 C         -28.3914    0.0801   31.0065 C.ar    1  UNL1        0.0376
      6 C         -27.4940    1.1521   30.7841 C.ar    1  UNL1        0.0057
      7 C         -26.3172    0.3994   27.3653 C.3     1  UNL1        0.0432
      8 C         -25.4320    1.4867   27.2802 C.3     1  UNL1        0.0919
      9 C         -25.2642    2.4427   28.2693 C.3     1  UNL1        0.0857
     10 C         -25.9406    2.3223   29.4480 C.2     1  UNL1        0.1740
     11 O         -25.7166    3.2572   30.3821 O.2     1  UNL1       -0.2913
     12 CL        -24.5352    1.6240   25.7805 Cl      1  UNL1       -0.1142
     13 O         -29.4292   -1.8015   30.3246 O.3     1  UNL1       -0.4508
     14 C         -30.6541   -1.7141   30.1970 C.2     1  UNL1        0.1750
     15 C         -31.2838   -1.0633   29.5533 C.2     1  UNL1        0.0148
     16 C         -32.7333   -1.0881   29.4069 C.3     1  UNL1        0.0341
@<TRIPOS>BOND
     1     3     7    1
     2     7     8    1
     3     4    10    1
     4     9    10    1
     5    10    11    2
     6     8    12    1
     7     2    13    1
     8    13    14    1
     9    14    15    2
    10    15    16    1
    11     8     9    1
    12     1     2   ar
    13     2     5   ar
    14     5     6   ar
    15     6     4   ar
    16     4     3   ar
    17     3     1   ar
