@<TRIPOS>MOLECULE
No_3438-gen_results/8p0m/2024-11-26-14-13-15/
 10 11 0 0 0
SMALL
GASTEIGER

@<TRIPOS>ATOM
      1 N         -28.0544   -1.0498   28.7246 N.ar    1  UNL1       -0.2251
      2 C         -26.9659   -0.4722   28.7709 C.ar    1  UNL1        0.1623
      3 C         -26.8423    0.7388   29.2341 C.ar    1  UNL1        0.0359
      4 C         -27.9523    1.4476   29.6919 C.ar    1  UNL1        0.0046
      5 C         -29.1477   -0.4833   29.2435 C.ar    1  UNL1        0.1006
      6 C         -29.1466    0.7686   29.7055 C.ar    1  UNL1        0.0208
      7 N         -25.7856   -1.0922   28.3304 N.ar    1  UNL1       -0.2251
      8 C         -24.6586   -1.0794   28.9522 C.ar    1  UNL1        0.1006
      9 C         -24.2117    0.2481   29.2530 C.ar    1  UNL1        0.0208
     10 C         -25.4083    1.1142   29.7172 C.ar    1  UNL1        0.0046
@<TRIPOS>BOND
     1     1     2   ar
     2     3     4   ar
     3     4     6   ar
     4     6     5   ar
     5     5     1   ar
     6     2     3   ar
     7     3    10   ar
     8    10     9   ar
     9     9     8   ar
    10     8     7   ar
    11     7     2   ar
