@<TRIPOS>MOLECULE
No_3439-gen_results/8p0m/2024-11-26-14-13-15/
 13 14 0 0 0
SMALL
GASTEIGER

@<TRIPOS>ATOM
      1 C         -28.0162   -0.8135   28.8779 C.ar    1  UNL1        0.0114
      2 C         -27.0636   -0.1190   28.6079 C.ar    1  UNL1        0.0009
      3 C         -25.7647   -0.3897   29.0360 C.ar    1  UNL1        0.0001
      4 C         -25.5296   -1.5302   29.9014 C.ar    1  UNL1        0.0009
      5 C         -26.6888   -2.2893   30.1810 C.ar    1  UNL1        0.0114
      6 C         -27.8727   -1.9508   29.7373 C.ar    1  UNL1        0.0577
      7 CL        -29.1941   -2.9228   30.2191 Cl      1  UNL1       -0.0822
      8 C         -24.5326    0.4192   28.7249 C.ar    1  UNL1        0.0000
      9 C         -24.5321    1.2875   27.7195 C.ar    1  UNL1        0.0000
     10 C         -23.3564    1.9022   27.3176 C.ar    1  UNL1        0.0000
     11 C         -22.1273    1.7043   27.9482 C.ar    1  UNL1        0.0000
     12 C         -23.2631    0.1180   29.3425 C.ar    1  UNL1        0.0000
     13 C         -22.0809    0.7909   28.9765 C.ar    1  UNL1        0.0000
@<TRIPOS>BOND
     1     6     7    1
     2     3     8    1
     3     1     2   ar
     4     2     3   ar
     5     3     4   ar
     6     4     5   ar
     7     5     6   ar
     8     6     1   ar
     9     8     9   ar
    10     9    10   ar
    11    10    11   ar
    12    11    13   ar
    13    13    12   ar
    14    12     8   ar
