@<TRIPOS>MOLECULE
No_344-gen_results/8p0m/2024-11-26-14-13-15/
 10 10 0 0 0
SMALL
GASTEIGER

@<TRIPOS>ATOM
      1 C         -28.0162   -0.8135   28.8779 C.ar    1  UNL1       -0.0000
      2 C         -27.0636   -0.1189   28.6079 C.ar    1  UNL1       -0.0000
      3 C         -27.0010    0.6913   27.4910 C.ar    1  UNL1       -0.0003
      4 C         -28.1373    0.7363   26.6350 C.ar    1  UNL1       -0.0043
      5 C         -28.1438    1.4323   25.4880 C.2     1  UNL1       -0.0261
      6 C         -29.2801   -0.5524   28.2479 C.ar    1  UNL1       -0.0000
      7 C         -29.2552    0.0950   27.0446 C.ar    1  UNL1       -0.0003
      8 C         -28.5317    2.6153   25.4770 C.2     1  UNL1       -0.0300
      9 C         -27.6373    0.8030   24.2694 C.3     1  UNL1        0.0307
     10 C         -28.9605    3.3076   24.2146 C.3     1  UNL1        0.0304
@<TRIPOS>BOND
     1     4     5    1
     2     5     8    2
     3     5     9    1
     4     8    10    1
     5     1     2   ar
     6     2     3   ar
     7     3     4   ar
     8     4     7   ar
     9     7     6   ar
    10     6     1   ar
