@<TRIPOS>MOLECULE
No_3441-gen_results/8p0m/2024-11-26-14-13-15/
 13 13 0 0 0
SMALL
GASTEIGER

@<TRIPOS>ATOM
      1 O         -28.1229   -1.3353   28.4874 O.2     1  UNL1       -0.2541
      2 C         -27.4806   -0.4044   28.7094 C.2     1  UNL1        0.3335
      3 C         -27.1904    0.2460   29.5268 C.ar    1  UNL1        0.0688
      4 F         -26.7282   -0.1238   27.4073 F       1  UNL1       -0.1586
      5 C         -26.2623    1.3699   29.6678 C.ar    1  UNL1        0.0170
      6 C         -25.9232    2.1331   30.6673 C.ar    1  UNL1        0.0581
      7 C         -26.4835    1.7867   31.9470 C.ar    1  UNL1        0.0180
      8 C         -27.3434    0.7022   31.9954 C.ar    1  UNL1        0.0808
      9 C         -27.6341   -0.0418   30.9649 C.ar    1  UNL1        0.0122
     10 CL        -24.8488    3.4345   30.5964 Cl      1  UNL1       -0.0822
     11 C         -27.8855    0.3730   33.3791 C.2     1  UNL1        0.3878
     12 O         -28.6320   -0.3806   33.5275 O.co2   1  UNL1       -0.2406
     13 O         -27.6025    1.3011   34.3145 O.co2   1  UNL1       -0.2406
@<TRIPOS>BOND
     1     1     2    2
     2     2     3    1
     3     2     4    1
     4     6    10    1
     5     8    11    1
     6    11    12   ar
     7    11    13   ar
     8     3     5   ar
     9     5     6   ar
    10     6     7   ar
    11     7     8   ar
    12     8     9   ar
    13     9     3   ar
