@<TRIPOS>MOLECULE
No_3442-gen_results/8p0m/2024-11-26-14-13-15/
 23 26 0 0 0
SMALL
GASTEIGER

@<TRIPOS>ATOM
      1 C         -28.0162   -0.8135   28.8779 C.ar    1  UNL1        0.0028
      2 C         -28.4690   -0.7850   29.8287 C.ar    1  UNL1        0.0001
      3 C         -28.1816    0.4277   28.1134 C.ar    1  UNL1        0.0325
      4 C         -28.9841    1.4155   28.5154 C.ar    1  UNL1        0.0667
      5 C         -29.3802    0.1384   30.4612 C.ar    1  UNL1        0.0013
      6 C         -29.5415    1.2736   29.7242 C.ar    1  UNL1        0.0161
      7 C         -27.4586    0.4934   26.7701 C.2     1  UNL1        0.0824
      8 N         -27.8805    0.6637   25.7783 N.2     1  UNL1       -0.2456
      9 C         -25.9360    0.3119   26.8304 C.ar    1  UNL1        0.0177
     10 C         -25.3851    0.5394   25.5799 C.ar    1  UNL1        0.0015
     11 C         -29.3366    0.8249   25.6888 C.ar    1  UNL1        0.0774
     12 C         -23.9357    0.6791   25.6650 C.ar    1  UNL1        0.0000
     13 C         -23.2689    0.8251   26.8363 C.ar    1  UNL1        0.0000
     14 C         -23.9202    0.6612   28.0976 C.ar    1  UNL1        0.0000
     15 C         -25.3078    0.5160   28.1199 C.ar    1  UNL1        0.0015
     16 C         -29.9347    0.4978   24.7602 C.ar    1  UNL1        0.0188
     17 C         -31.3513    0.5678   24.6006 C.ar    1  UNL1        0.0015
     18 C         -32.0971    1.1596   25.6139 C.ar    1  UNL1       -0.0002
     19 C         -31.4247    1.5754   26.7208 C.ar    1  UNL1       -0.0027
     20 C         -30.0255    1.4379   26.8197 C.ar    1  UNL1       -0.0028
     21 C         -29.5037    3.0335   26.8417 C.3     1  UNL1        0.0512
     22 N         -28.3261    2.7191   28.4751 N.pl3   1  UNL1       -0.2372
     23 C         -28.7667    3.6823   27.6558 C.3     1  UNL1        0.1169
@<TRIPOS>BOND
     1     3     7    1
     2     7     8    2
     3     7     9    1
     4     8    11    1
     5    20    21    1
     6     4    22    1
     7    21    23    1
     8    22    23    1
     9     9    10   ar
    10    10    12   ar
    11    12    13   ar
    12    13    14   ar
    13    14    15   ar
    14    15     9   ar
    15    11    16   ar
    16    16    17   ar
    17    17    18   ar
    18    18    19   ar
    19    19    20   ar
    20    20    11   ar
    21     1     2   ar
    22     2     5   ar
    23     5     6   ar
    24     6     4   ar
    25     4     3   ar
    26     3     1   ar
