@<TRIPOS>MOLECULE
No_3443-gen_results/8p0m/2024-11-26-14-13-15/
 23 24 0 0 0
SMALL
GASTEIGER

@<TRIPOS>ATOM
      1 C         -28.0162   -0.8135   28.8779 C.3     1  UNL1        0.0263
      2 C         -27.0636   -0.1189   28.6079 C.ar    1  UNL1       -0.0222
      3 C         -26.9716    0.7139   27.5060 C.ar    1  UNL1       -0.0043
      4 C         -25.8205    1.4910   27.1160 C.ar    1  UNL1        0.0035
      5 C         -24.6562    1.4242   27.9180 C.ar    1  UNL1        0.0714
      6 C         -24.7114    0.5419   29.0507 C.ar    1  UNL1        0.0035
      7 C         -25.8042   -0.2058   29.3881 C.ar    1  UNL1       -0.0043
      8 C         -28.7426   -0.4419   30.1405 C.3     1  UNL1        0.0044
      9 C         -29.8587   -1.2672   30.5944 C.3     1  UNL1        0.0054
     10 C         -23.4474    2.1579   27.6272 C.3     1  UNL1        0.4186
     11 F         -22.8753    2.5711   28.6490 F       1  UNL1       -0.1659
     12 F         -23.6075    3.1881   26.7541 F       1  UNL1       -0.1659
     13 F         -22.5120    1.3601   27.0250 F       1  UNL1       -0.1659
     14 C         -29.2271    1.0000   30.1422 C.3     1  UNL1        0.0003
     15 C         -27.6808   -0.4923   31.3721 C.3     1  UNL1        0.0003
     16 C         -29.7201   -2.4192   31.0900 C.3     1  UNL1        0.0377
     17 C         -29.3139   -3.4958   30.2437 C.2     1  UNL1        0.0586
     18 C         -28.7385   -4.7083   30.8929 C.1     1  UNL1        0.1293
     19 C         -30.2335    1.3248   29.4180 C.3     1  UNL1        0.0000
     20 C         -31.1785   -0.8664   30.1790 C.3     1  UNL1        0.0004
     21 C         -32.2680   -1.7038   30.4603 C.3     1  UNL1        0.0000
     22 C         -31.3626    0.4738   29.6172 C.3     1  UNL1        0.0000
     23 O         -27.8470   -5.2402   30.4313 O.2     1  UNL1       -0.2314
@<TRIPOS>BOND
     1     1     8    1
     2     8     9    1
     3     5    10    1
     4    10    11    1
     5    10    12    1
     6    10    13    1
     7     8    14    1
     8     8    15    1
     9     9    16    1
    10    16    17    1
    11    17    18    2
    12     9    20    1
    13    20    21    1
    14    19    22    1
    15    20    22    1
    16    18    23    2
    17     1     2    1
    18    19    14    1
    19     2     3   ar
    20     3     4   ar
    21     4     5   ar
    22     5     6   ar
    23     6     7   ar
    24     7     2   ar
