@<TRIPOS>MOLECULE
No_3444-gen_results/8p0m/2024-11-26-14-13-15/
 10 10 0 0 0
SMALL
GASTEIGER

@<TRIPOS>ATOM
      1 C         -28.0162   -0.8135   28.8779 C.ar    1  UNL1        0.0012
      2 C         -28.4690   -0.7850   29.8287 C.ar    1  UNL1        0.0153
      3 C         -27.1356    0.2359   28.5352 C.ar    1  UNL1        0.0000
      4 C         -26.8745    1.2825   29.3982 C.ar    1  UNL1        0.0000
      5 C         -29.3996   -1.9131   30.3104 C.2     1  UNL1        0.0805
      6 C         -27.5028    1.2252   30.6283 C.ar    1  UNL1        0.0000
      7 C         -28.3160    0.1386   30.9698 C.ar    1  UNL1        0.0012
      8 N         -29.1374   -3.1672   30.3907 N.2     1  UNL1       -0.1527
      9 C         -30.8233   -1.6756   30.6469 C.3     1  UNL1        0.0477
     10 C         -31.6527   -2.7101   30.9151 C.3     1  UNL1        0.0068
@<TRIPOS>BOND
     1     2     5    1
     2     5     8    2
     3     5     9    1
     4     9    10    1
     5     1     2   ar
     6     2     7   ar
     7     7     6   ar
     8     6     4   ar
     9     4     3   ar
    10     3     1   ar
