@<TRIPOS>MOLECULE
No_3445-gen_results/8p0m/2024-11-26-14-13-15/
 35 38 0 0 0
SMALL
GASTEIGER

@<TRIPOS>ATOM
      1 C         -28.0162   -0.8135   28.8779 C.ar    1  UNL1        0.1387
      2 C         -27.0636   -0.1190   28.6079 C.ar    1  UNL1        0.0366
      3 C         -26.9716    0.7139   27.5060 C.ar    1  UNL1        0.1352
      4 C         -28.1053    0.7744   26.6421 C.ar    1  UNL1        0.0187
      5 C         -29.2041    0.1179   27.0477 C.ar    1  UNL1        0.0552
      6 C         -29.2528   -0.3099   28.1229 C.ar    1  UNL1        0.0337
      7 F         -25.8268    1.3208   27.1223 F       1  UNL1       -0.2047
      8 C         -30.3811    0.3478   26.1248 C.2     1  UNL1        0.2584
      9 O         -31.2986   -0.2682   26.2333 O.2     1  UNL1       -0.2692
     10 N         -30.2272    1.1756   25.0037 N.am    1  UNL1       -0.2044
     11 F         -28.1012   -1.4698   30.0220 F       1  UNL1       -0.2044
     12 C         -29.1905    2.1148   24.8228 C.2     1  UNL1        0.2399
     13 C         -27.9248    1.7957   25.5381 C.3     1  UNL1        0.1147
     14 C         -25.7028   -0.3381   29.3913 C.3     1  UNL1        0.0588
     15 C         -25.0881   -1.5214   29.2402 C.2     1  UNL1        0.0324
     16 C         -25.4632   -2.6152   28.9581 C.2     1  UNL1        0.0951
     17 C         -24.6099   -3.8110   28.9720 C.2     1  UNL1        0.4118
     18 N         -23.3900   -3.2802   29.0457 N.2     1  UNL1       -0.0405
     19 C         -23.6359   -1.8959   29.2862 C.3     1  UNL1        0.2971
     20 N         -24.8384   -5.0490   28.7316 N.pl3   1  UNL1        0.2159
     21 C         -31.3371    1.3661   24.1340 C.ar    1  UNL1        0.0606
     22 N         -22.7473   -0.8939   29.5042 N.3     1  UNL1       -0.2202
     23 C         -21.8870   -0.5062   28.5159 C.3     1  UNL1        0.1801
     24 C         -22.7114   -0.2814   30.8282 C.3     1  UNL1        0.0940
     25 C         -21.6786    1.0008   28.4362 C.3     1  UNL1        0.4122
     26 F         -22.5002    1.4996   27.4113 F       1  UNL1       -0.1685
     27 F         -22.0350    1.6542   29.3996 F       1  UNL1       -0.1685
     28 F         -20.4509    1.2679   27.9581 F       1  UNL1       -0.1685
     29 C         -31.6181    2.6759   23.8241 C.ar    1  UNL1        0.0111
     30 C         -32.7588    2.8674   22.9810 C.ar    1  UNL1       -0.0206
     31 C         -33.3927    1.8134   22.3717 C.ar    1  UNL1       -0.0042
     32 C         -33.0042    0.5212   22.7013 C.ar    1  UNL1        0.0010
     33 C         -31.9806    0.2991   23.5906 C.ar    1  UNL1        0.0153
     34 O         -29.1538    2.9756   23.9906 O.2     1  UNL1       -0.2738
     35 C         -33.1975    4.2683   22.5577 C.3     1  UNL1        0.0311
@<TRIPOS>BOND
     1     3     7    1
     2     5     8    1
     3     8     9    2
     4     8    10   am
     5     1    11    1
     6    10    12   am
     7     4    13    1
     8    12    13    1
     9     2    14    1
    10    14    15    1
    11    15    16    2
    12    16    17    1
    13    17    18    2
    14    15    19    1
    15    18    19    1
    16    17    20    1
    17    10    21    1
    18    19    22    1
    19    22    23    1
    20    22    24    1
    21    23    25    1
    22    25    26    1
    23    25    27    1
    24    25    28    1
    25    12    34    2
    26    30    35    1
    27     1     2   ar
    28     2     3   ar
    29     3     4   ar
    30     4     5   ar
    31     5     6   ar
    32     6     1   ar
    33    21    29   ar
    34    29    30   ar
    35    30    31   ar
    36    31    32   ar
    37    32    33   ar
    38    33    21   ar
