@<TRIPOS>MOLECULE
No_3446-gen_results/8p0m/2024-11-26-14-13-15/
 29 31 0 0 0
SMALL
GASTEIGER

@<TRIPOS>ATOM
      1 C         -28.0162   -0.8135   28.8779 C.ar    1  UNL1        0.0369
      2 C         -28.4690   -0.7850   29.8287 C.ar    1  UNL1        0.1390
      3 C         -26.5042   -0.7777   28.8766 C.ar    1  UNL1        0.0031
      4 C         -25.8103   -0.8531   30.1028 C.ar    1  UNL1        0.0002
      5 C         -27.9906   -0.8916   31.2257 C.ar    1  UNL1        0.0369
      6 C         -26.6042   -0.8676   31.2652 C.ar    1  UNL1        0.0031
      7 O         -29.9385   -0.8194   29.8358 O.3     1  UNL1       -0.4713
      8 C         -30.6978   -1.6543   30.3501 C.3     1  UNL1        0.2306
      9 C         -24.3665   -0.8009   30.1517 C.ar    1  UNL1        0.0001
     10 C         -23.6883   -1.1790   30.8400 C.ar    1  UNL1        0.0000
     11 C         -22.1768   -1.0300   30.9218 C.ar    1  UNL1        0.0001
     12 C         -21.6963   -0.4179   29.8040 C.ar    1  UNL1        0.0046
     13 C         -23.6765   -0.0967   29.0190 C.ar    1  UNL1        0.0046
     14 C         -22.4273    0.1003   28.8897 C.ar    1  UNL1        0.0567
     15 C         -21.8731    0.8277   27.7239 C.2     1  UNL1        0.2842
     16 N         -20.8338    1.6821   28.0180 N.am    1  UNL1       -0.0837
     17 O         -22.7131    1.3342   26.8919 O.2     1  UNL1       -0.2667
     18 C         -31.7143   -1.9982   29.5501 C.2     1  UNL1        0.2802
     19 O         -31.9309   -3.1811   29.3140 O.2     1  UNL1       -0.2695
     20 N         -32.2548   -1.1266   28.5574 N.am    1  UNL1       -0.2006
     21 C         -33.1294   -1.5054   27.5540 C.3     1  UNL1        0.1386
     22 C         -31.2545   -1.0839   31.6943 C.3     1  UNL1        0.0518
     23 C         -31.0644   -1.8640   32.8177 C.3     1  UNL1        0.0053
     24 C         -30.7208   -3.0966   32.7827 C.3     1  UNL1        0.0158
     25 C         -30.5996   -3.7780   31.5535 C.3     1  UNL1        0.0994
     26 C         -30.2174   -5.1611   31.4734 C.1     1  UNL1       -0.0762
     27 C         -29.8974   -5.6233   30.1936 C.1     1  UNL1       -0.0141
     28 C         -30.5227   -2.9112   30.4128 C.3     1  UNL1        0.2085
     29 O         -29.5234   -3.2736   29.5263 O.3     1  UNL1       -0.2178
@<TRIPOS>BOND
     1     2     7    1
     2     7     8    1
     3     4     9    1
     4    14    15    1
     5    15    16   am
     6    15    17    2
     7     8    18    1
     8    18    19    2
     9    18    20   am
    10    20    21    1
    11     8    22    1
    12    22    23    1
    13    24    25    1
    14    25    26    1
    15    26    27    3
    16     8    28    1
    17    25    28    1
    18    28    29    1
    19    23    24    1
    20     1     2   ar
    21     2     5   ar
    22     5     6   ar
    23     6     4   ar
    24     4     3   ar
    25     3     1   ar
    26     9    10   ar
    27    10    11   ar
    28    11    12   ar
    29    12    14   ar
    30    14    13   ar
    31    13     9   ar
