@<TRIPOS>MOLECULE
No_3447-gen_results/8p0m/2024-11-26-14-13-15/
 35 37 0 0 0
SMALL
GASTEIGER

@<TRIPOS>ATOM
      1 C         -28.0162   -0.8135   28.8779 C.ar    1  UNL1        0.0064
      2 C         -27.0636   -0.1190   28.6079 C.ar    1  UNL1        0.0001
      3 C         -25.7647   -0.3897   29.0360 C.ar    1  UNL1        0.0023
      4 C         -25.5296   -1.5302   29.9014 C.ar    1  UNL1        0.0003
      5 C         -26.6577   -2.2915   30.2035 C.ar    1  UNL1        0.0064
      6 C         -27.8548   -1.9555   29.7630 C.ar    1  UNL1        0.0758
      7 C         -24.5441    0.4126   28.7379 C.ar    1  UNL1        0.0305
      8 C         -24.4731    1.2064   27.7114 C.ar    1  UNL1        0.1745
      9 C         -23.2632    1.9110   27.3928 C.ar    1  UNL1        0.1792
     10 C         -22.0960    1.7116   28.0459 C.ar    1  UNL1        0.0401
     11 C         -23.3012    0.1559   29.4817 C.ar    1  UNL1        0.0024
     12 C         -22.1018    0.8312   29.1085 C.ar    1  UNL1        0.0033
     13 C         -29.0138   -2.7978   30.1831 C.2     1  UNL1        0.3449
     14 O         -28.9303   -4.0297   30.2736 O.2     1  UNL1       -0.2448
     15 O         -29.9621   -2.2414   30.8738 O.3     1  UNL1       -0.3909
     16 O         -23.3167    2.7910   26.3306 O.3     1  UNL1       -0.3889
     17 C         -31.0309   -2.6832   31.1714 C.3     1  UNL1        0.5020
     18 C         -32.2398   -1.8710   31.1685 C.3     1  UNL1        0.4969
     19 F         -32.1157   -0.6786   31.2914 F       1  UNL1       -0.1619
     20 F         -33.1409   -2.3123   32.1048 F       1  UNL1       -0.1619
     21 F         -32.7837   -2.1098   29.9241 F       1  UNL1       -0.1619
     22 F         -31.2156   -3.8739   30.5889 F       1  UNL1       -0.1557
     23 F         -30.7323   -3.0972   32.5736 F       1  UNL1       -0.1557
     24 C         -24.5947    3.2340   25.9506 C.2     1  UNL1        0.5567
     25 C         -27.2233    1.1091   27.6912 C.ar    1  UNL1       -0.0009
     26 C         -28.3796    1.7159   27.5981 C.ar    1  UNL1       -0.0001
     27 C         -28.7051    2.5775   27.0661 C.ar    1  UNL1        0.0033
     28 C         -27.7329    3.2194   26.1516 C.ar    1  UNL1        0.0417
     29 C         -26.5145    2.7377   26.0536 C.ar    1  UNL1        0.1917
     30 O         -24.7784    4.5078   25.4216 O.co2   1  UNL1       -0.1996
     31 C         -26.2467    1.6101   26.7756 C.ar    1  UNL1        0.0171
     32 F         -24.3864    0.5259   26.7902 F       1  UNL1       -0.2009
     33 O         -24.4427    2.6640   24.8587 O.co2   1  UNL1       -0.1996
     34 C         -26.1520    0.4343   25.7462 C.3     1  UNL1        0.0344
     35 O         -26.4925    2.5355   24.6179 O.3     1  UNL1       -0.2869
@<TRIPOS>BOND
     1     3     7    1
     2     6    13    1
     3    13    14    2
     4    13    15    1
     5     9    16    1
     6    15    17    1
     7    17    18    1
     8    18    19    1
     9    18    20    1
    10    18    21    1
    11    17    22    1
    12    17    23    1
    13    16    24    1
    14     2    25    1
    15    24    30   ar
    16     8    32    1
    17    24    33   ar
    18    31    34    1
    19    29    35    1
    20     7     8   ar
    21     8     9   ar
    22     9    10   ar
    23    10    12   ar
    24    12    11   ar
    25    11     7   ar
    26     1     2   ar
    27     2     3   ar
    28     3     4   ar
    29     4     5   ar
    30     5     6   ar
    31     6     1   ar
    32    25    26   ar
    33    26    27   ar
    34    27    28   ar
    35    28    29   ar
    36    29    31   ar
    37    31    25   ar
