@<TRIPOS>MOLECULE
No_3448-gen_results/8p0m/2024-11-26-14-13-15/
 26 28 0 0 0
SMALL
GASTEIGER

@<TRIPOS>ATOM
      1 C         -28.0162   -0.8135   28.8779 C.ar    1  UNL1        0.0065
      2 C         -28.4690   -0.7850   29.8287 C.ar    1  UNL1        0.0765
      3 C         -28.1816    0.4277   28.1134 C.ar    1  UNL1        0.0010
      4 C         -27.4498    0.6435   26.8500 C.ar    1  UNL1        0.0000
      5 C         -27.8596    1.4573   25.9076 C.ar    1  UNL1        0.0000
      6 C         -29.4263    0.1097   30.4178 C.ar    1  UNL1        0.0178
      7 C         -29.6233    1.2198   29.7351 C.ar    1  UNL1        0.0579
      8 C         -28.9609    1.4529   28.5513 C.ar    1  UNL1        0.0114
      9 C         -27.1733    1.5743   24.7028 C.ar    1  UNL1        0.0000
     10 C         -26.0892    0.7468   24.4126 C.ar    1  UNL1        0.0000
     11 C         -25.6364   -0.1191   25.3972 C.ar    1  UNL1        0.0000
     12 C         -26.2807   -0.2063   26.5817 C.ar    1  UNL1        0.0000
     13 CL        -30.6758    2.4766   30.3234 Cl      1  UNL1       -0.0822
     14 C         -28.2794   -2.1430   30.7156 C.2     1  UNL1        0.3412
     15 O         -28.9537   -2.7171   31.2331 O.2     1  UNL1       -0.2449
     16 O         -26.9300   -2.5443   30.6085 O.3     1  UNL1       -0.4454
     17 C         -26.3626   -2.7554   29.4472 C.3     1  UNL1        0.2088
     18 C         -24.8959   -3.3387   29.7686 C.3     1  UNL1        0.0478
     19 C         -23.9431   -2.7270   28.7648 C.3     1  UNL1        0.0085
     20 C         -22.7677   -2.2761   29.4751 C.3     1  UNL1        0.0265
     21 C         -22.4618   -0.8891   28.9518 C.ar    1  UNL1       -0.0222
     22 C         -23.5272    0.0592   28.6744 C.ar    1  UNL1       -0.0043
     23 C         -23.1516    1.2519   27.9491 C.ar    1  UNL1       -0.0003
     24 C         -21.8152    1.5024   27.6514 C.ar    1  UNL1       -0.0000
     25 C         -21.1185   -0.4837   28.6440 C.ar    1  UNL1       -0.0043
     26 C         -20.8180    0.7876   28.0876 C.ar    1  UNL1       -0.0003
@<TRIPOS>BOND
     1     3     4    1
     2     7    13    1
     3     2    14    1
     4    14    15    2
     5    14    16    1
     6    16    17    1
     7    17    18    1
     8    18    19    1
     9    19    20    1
    10    20    21    1
    11    21    22   ar
    12    22    23   ar
    13    23    24   ar
    14    24    26   ar
    15    26    25   ar
    16    25    21   ar
    17     4     5   ar
    18     5     9   ar
    19     9    10   ar
    20    10    11   ar
    21    11    12   ar
    22    12     4   ar
    23     1     2   ar
    24     2     6   ar
    25     6     7   ar
    26     7     8   ar
    27     8     3   ar
    28     3     1   ar
