@<TRIPOS>MOLECULE
No_3449-gen_results/8p0m/2024-11-26-14-13-15/
 18 20 0 0 0
SMALL
GASTEIGER

@<TRIPOS>ATOM
      1 C         -28.0162   -0.8135   28.8779 C.ar    1  UNL1        0.0045
      2 C         -28.4690   -0.7850   29.8287 C.ar    1  UNL1        0.0001
      3 C         -27.0871    0.2903   28.6377 C.ar    1  UNL1        0.0539
      4 C         -26.2516    0.4114   27.4223 C.2     1  UNL1        0.2528
      5 C         -28.3913    0.1041   30.9805 C.ar    1  UNL1        0.0000
      6 C         -27.5332    1.1666   30.7866 C.ar    1  UNL1        0.0001
      7 C         -26.8281    1.2557   29.6454 C.ar    1  UNL1        0.0045
      8 N         -25.7856    1.5766   27.1546 N.am    1  UNL1       -0.2508
      9 C         -24.4032    1.7344   26.9421 C.ar    1  UNL1        0.0873
     10 C         -23.8658    2.9952   26.5560 C.ar    1  UNL1        0.1613
     11 C         -23.4461    0.8243   27.4745 C.ar    1  UNL1        0.0194
     12 C         -22.0680    1.1906   27.5247 C.ar    1  UNL1        0.0221
     13 N         -22.5471    3.2394   26.4395 N.ar    1  UNL1       -0.2264
     14 C         -21.6773    2.4244   26.9550 C.ar    1  UNL1        0.1005
     15 C         -26.6392    2.6255   26.7761 C.3     1  UNL1        0.1219
     16 O         -25.7314   -0.5952   26.8637 O.2     1  UNL1       -0.2696
     17 N         -24.7067    3.9592   26.0561 N.pl3   1  UNL1       -0.2174
     18 C         -26.0683    3.8371   26.1895 C.3     1  UNL1        0.1357
@<TRIPOS>BOND
     1     3     4    1
     2     4     8   am
     3     8     9    1
     4     8    15    1
     5     4    16    2
     6    10    17    1
     7    17    18    1
     8    18    15    1
     9     9    11   ar
    10    11    12   ar
    11    12    14   ar
    12    14    13   ar
    13    13    10   ar
    14    10     9   ar
    15     1     2   ar
    16     2     5   ar
    17     5     6   ar
    18     6     7   ar
    19     7     3   ar
    20     3     1   ar
