@<TRIPOS>MOLECULE
No_345-gen_results/8p0m/2024-11-26-14-13-15/
 17 18 0 0 0
SMALL
GASTEIGER

@<TRIPOS>ATOM
      1 C         -28.0162   -0.8135   28.8779 C.ar    1  UNL1        0.0375
      2 C         -27.0636   -0.1189   28.6079 C.ar    1  UNL1        0.1453
      3 C         -25.7923   -0.4302   29.0761 C.ar    1  UNL1        0.0375
      4 C         -25.5756   -1.5654   29.9363 C.ar    1  UNL1        0.0031
      5 C         -26.7354   -2.3004   30.2173 C.ar    1  UNL1        0.0002
      6 C         -27.9184   -1.9537   29.7629 C.ar    1  UNL1        0.0031
      7 O         -27.1229    1.0229   27.8500 O.3     1  UNL1       -0.4538
      8 C         -26.9669    2.2204   28.1879 C.ar    1  UNL1        0.1413
      9 C         -26.5323    3.0870   27.3718 C.ar    1  UNL1        0.0129
     10 C         -26.0668    2.7879   26.0579 C.3     1  UNL1        0.0342
     11 C         -27.2703    2.5921   29.5720 C.ar    1  UNL1        0.0374
     12 C         -27.1009    3.9367   29.8824 C.ar    1  UNL1        0.0097
     13 C         -26.2429    4.5058   27.7889 C.ar    1  UNL1        0.0053
     14 C         -26.5811    4.8646   29.0463 C.ar    1  UNL1        0.0797
     15 C         -26.3537    6.2696   29.5005 C.2     1  UNL1        0.3877
     16 O         -25.9457    6.5063   30.5757 O.co2   1  UNL1       -0.2406
     17 O         -26.4946    7.2036   28.6139 O.co2   1  UNL1       -0.2406
@<TRIPOS>BOND
     1     2     7    1
     2     7     8    1
     3     9    10    1
     4    14    15    1
     5    15    16   ar
     6    15    17   ar
     7     1     2   ar
     8     2     3   ar
     9     3     4   ar
    10     4     5   ar
    11     5     6   ar
    12     6     1   ar
    13     8     9   ar
    14     9    13   ar
    15    13    14   ar
    16    14    12   ar
    17    12    11   ar
    18    11     8   ar
