@<TRIPOS>MOLECULE
No_3450-gen_results/8p0m/2024-11-26-14-13-15/
 10 10 0 0 0
SMALL
GASTEIGER

@<TRIPOS>ATOM
      1 C         -28.0162   -0.8135   28.8779 C.3     1  UNL1        0.0986
      2 C         -27.0636   -0.1189   28.6079 C.ar    1  UNL1       -0.0165
      3 C         -26.8756    1.1325   28.9134 C.ar    1  UNL1       -0.0041
      4 C         -25.6883    1.9515   28.5672 C.ar    1  UNL1       -0.0003
      5 C         -24.6394    1.2834   27.8753 C.ar    1  UNL1       -0.0000
      6 C         -24.8068   -0.0513   27.6040 C.ar    1  UNL1       -0.0003
      7 C         -25.9020   -0.7670   27.9511 C.ar    1  UNL1       -0.0041
      8 C         -28.0678   -1.4475   30.2707 C.3     1  UNL1        0.3229
      9 F         -28.1719   -0.8257   31.1342 F       1  UNL1       -0.1981
     10 F         -26.8751   -2.1801   30.3755 F       1  UNL1       -0.1981
@<TRIPOS>BOND
     1     1     8    1
     2     8     9    1
     3     8    10    1
     4     1     2    1
     5     2     3   ar
     6     3     4   ar
     7     4     5   ar
     8     5     6   ar
     9     6     7   ar
    10     7     2   ar
