@<TRIPOS>MOLECULE
No_3451-gen_results/8p0m/2024-11-26-14-13-15/
 26 28 0 0 0
SMALL
GASTEIGER

@<TRIPOS>ATOM
      1 C         -28.0162   -0.8135   28.8779 C.ar    1  UNL1        0.0369
      2 C         -27.0636   -0.1190   28.6079 C.ar    1  UNL1        0.0033
      3 C         -25.7647   -0.3897   29.0360 C.ar    1  UNL1        0.0046
      4 C         -24.5516    0.4058   28.7646 C.ar    1  UNL1        0.0536
      5 C         -23.2300    0.1178   29.2575 C.ar    1  UNL1        0.0045
      6 C         -23.0942   -1.1309   29.8730 C.ar    1  UNL1        0.0001
      7 C         -27.7981   -1.9341   29.8560 C.ar    1  UNL1        0.1386
      8 C         -26.5420   -2.3269   30.2580 C.ar    1  UNL1        0.0369
      9 C         -25.4514   -1.5516   29.9079 C.ar    1  UNL1        0.0032
     10 C         -24.1562   -1.9097   30.2809 C.ar    1  UNL1        0.0001
     11 C         -24.6450    1.6582   27.9464 C.2     1  UNL1        0.2491
     12 N         -23.7227    1.8820   27.0720 N.am    1  UNL1       -0.2726
     13 C         -23.8889    2.5959   25.9297 C.3     1  UNL1        0.1152
     14 O         -25.5326    2.4164   28.1659 O.2     1  UNL1       -0.2699
     15 O         -28.9272   -2.6444   30.1858 O.3     1  UNL1       -0.4739
     16 C         -29.2213   -2.8361   31.5366 C.3     1  UNL1        0.2245
     17 C         -29.7508   -4.1617   31.7852 C.3     1  UNL1        0.1396
     18 C         -29.8438   -5.0286   30.8020 C.3     1  UNL1        0.0492
     19 N         -29.0784   -4.8850   32.9265 N.3     1  UNL1       -0.1286
     20 C         -31.1743   -5.2681   30.1866 C.ar    1  UNL1       -0.0206
     21 C         -31.4185   -4.9481   29.2626 C.ar    1  UNL1       -0.0042
     22 C         -32.7413   -4.9412   28.7419 C.ar    1  UNL1       -0.0003
     23 C         -33.6645   -5.6817   29.3982 C.ar    1  UNL1       -0.0000
     24 C         -32.2740   -5.7643   30.9347 C.ar    1  UNL1       -0.0042
     25 C         -33.4537   -6.0278   30.5718 C.ar    1  UNL1       -0.0003
     26 C         -22.2686    2.3596   27.5514 C.3     1  UNL1        0.1152
@<TRIPOS>BOND
     1     4    11    1
     2    11    12   am
     3    12    13    1
     4    11    14    2
     5     7    15    1
     6    15    16    1
     7    16    17    1
     8    17    18    1
     9    17    19    1
    10    18    20    1
    11    12    26    1
    12     1     2   ar
    13     2     3   ar
    14     9     8   ar
    15     8     7   ar
    16     7     1   ar
    17    20    21   ar
    18    21    22   ar
    19    22    23   ar
    20    23    25   ar
    21    25    24   ar
    22    24    20   ar
    23     3     4   ar
    24     4     5   ar
    25     5     6   ar
    26     6    10   ar
    27    10     9   ar
    28     9     3   ar
