@<TRIPOS>MOLECULE
No_3452-gen_results/8p0m/2024-11-26-14-13-15/
 31 34 0 0 0
SMALL
GASTEIGER

@<TRIPOS>ATOM
      1 C         -28.0162   -0.8135   28.8779 C.ar    1  UNL1        0.0369
      2 C         -27.0636   -0.1190   28.6079 C.ar    1  UNL1        0.0046
      3 C         -25.7647   -0.3897   29.0360 C.ar    1  UNL1        0.0179
      4 C         -25.5296   -1.5302   29.9014 C.ar    1  UNL1        0.0046
      5 C         -26.6888   -2.2893   30.1810 C.ar    1  UNL1        0.0369
      6 C         -27.8727   -1.9508   29.7373 C.ar    1  UNL1        0.1385
      7 O         -29.0153   -2.5742   30.0979 O.3     1  UNL1       -0.4774
      8 C         -24.4090    0.2086   28.7699 C.ar    1  UNL1        0.0828
      9 N         -24.3121    1.1955   27.8973 N.ar    1  UNL1       -0.2275
     10 C         -23.1381    1.6653   27.4749 C.ar    1  UNL1        0.1697
     11 N         -22.9711    2.7096   26.6378 N.pl3   1  UNL1       -0.1072
     12 C         -23.2156   -0.2307   29.2804 C.ar    1  UNL1        0.0192
     13 C         -21.8685    1.2062   28.0126 C.ar    1  UNL1        0.0376
     14 C         -21.9074    0.2482   28.9581 C.ar    1  UNL1        0.0045
     15 C         -28.9415   -3.8909   30.5752 C.3     1  UNL1        0.1856
     16 C         -28.9386   -4.7791   30.1087 C.3     1  UNL1        0.0471
     17 C         -29.9281   -5.3612   30.2845 C.3     1  UNL1        0.0252
     18 C         -30.4828   -5.6190   31.6090 C.3     1  UNL1        0.0911
     19 C         -28.8128   -3.8812   32.1126 C.3     1  UNL1        0.1346
     20 N         -29.9765   -4.7628   32.5322 N.pl3   1  UNL1       -0.3033
     21 C         -30.0187   -5.1554   34.0049 C.2     1  UNL1        0.0614
     22 C         -30.1447   -4.0726   34.7827 C.2     1  UNL1        0.0158
     23 C         -30.5923   -2.8645   34.3034 C.ar    1  UNL1        0.0010
     24 C         -30.6247   -1.7166   35.1710 C.ar    1  UNL1        0.0000
     25 C         -31.0160   -0.4137   34.6544 C.ar    1  UNL1        0.0000
     26 C         -31.1323   -0.2413   33.5389 C.ar    1  UNL1       -0.0000
     27 C         -31.0085   -1.2645   32.5201 C.ar    1  UNL1       -0.0003
     28 C         -30.6532   -2.5284   32.9838 C.ar    1  UNL1       -0.0039
     29 C         -31.3340   -3.4235   32.1904 C.2     1  UNL1       -0.0218
     30 C         -32.5912   -3.8068   32.7670 C.2     1  UNL1       -0.0046
     31 C         -31.9357   -2.4928   30.9716 C.3     1  UNL1        0.0310
@<TRIPOS>BOND
     1     6     7    1
     2     3     8    1
     3    10    11    1
     4     7    15    1
     5    16    17    1
     6    17    18    1
     7    15    19    1
     8    18    20    1
     9    19    20    1
    10    20    21    1
    11    21    22    2
    12    22    23    1
    13    28    29    1
    14    29    30    2
    15    29    31    1
    16    16    15    1
    17     1     2   ar
    18     2     3   ar
    19     3     4   ar
    20     4     5   ar
    21     5     6   ar
    22     6     1   ar
    23    23    24   ar
    24    24    25   ar
    25    25    26   ar
    26    26    27   ar
    27    27    28   ar
    28    28    23   ar
    29     8     9   ar
    30     9    10   ar
    31    10    13   ar
    32    13    14   ar
    33    14    12   ar
    34    12     8   ar
