@<TRIPOS>MOLECULE
No_3453-gen_results/8p0m/2024-11-26-14-13-15/
 7 6 0 0 0
SMALL
GASTEIGER

@<TRIPOS>ATOM
      1 C         -28.0162   -0.8135   28.8779 C.3     1  UNL1        0.0529
      2 C         -27.0636   -0.1190   28.6079 C.2     1  UNL1        0.0675
      3 N         -25.8176   -0.3427   29.0488 N.2     1  UNL1       -0.2687
      4 C         -24.6506    0.4444   28.7649 C.3     1  UNL1        0.1509
      5 C         -23.3389    0.1171   29.2584 C.2     1  UNL1       -0.0046
      6 C         -23.2172   -1.2155   29.6883 C.2     1  UNL1       -0.0284
      7 C         -24.2972   -2.0318   29.8793 C.3     1  UNL1        0.0304
@<TRIPOS>BOND
     1     1     2    1
     2     2     3    2
     3     3     4    1
     4     4     5    1
     5     5     6    2
     6     6     7    1
