@<TRIPOS>MOLECULE
No_3454-gen_results/8p0m/2024-11-26-14-13-15/
 28 30 0 0 0
SMALL
GASTEIGER

@<TRIPOS>ATOM
      1 C         -28.0162   -0.8135   28.8779 C.ar    1  UNL1        0.0064
      2 C         -28.4690   -0.7850   29.8287 C.ar    1  UNL1        0.0757
      3 C         -26.5042   -0.7777   28.8766 C.ar    1  UNL1        0.0002
      4 C         -25.8103   -0.8531   30.1028 C.ar    1  UNL1        0.0000
      5 C         -27.9906   -0.8916   31.2257 C.ar    1  UNL1        0.0064
      6 C         -26.6042   -0.8676   31.2652 C.ar    1  UNL1        0.0002
      7 C         -30.0739   -0.8360   29.8615 C.2     1  UNL1        0.3415
      8 O         -30.5608   -0.4417   28.9417 O.2     1  UNL1       -0.2449
      9 O         -30.7384   -0.9996   31.0027 O.3     1  UNL1       -0.4407
     10 C         -24.3674   -0.8039   30.1383 C.ar    1  UNL1        0.0002
     11 C         -23.6569   -1.3689   30.7347 C.ar    1  UNL1        0.0000
     12 C         -23.7640    0.2062   29.2037 C.ar    1  UNL1        0.0066
     13 C         -22.3669    0.2988   29.1074 C.ar    1  UNL1        0.0798
     14 C         -22.1938   -1.3453   30.8535 C.ar    1  UNL1        0.0002
     15 C         -21.6165   -0.5196   29.8761 C.ar    1  UNL1        0.0066
     16 C         -21.7687    1.1982   28.1187 C.2     1  UNL1        0.3878
     17 O         -22.4592    1.7062   27.1413 O.co2   1  UNL1       -0.2406
     18 O         -20.4839    1.4680   28.1804 O.co2   1  UNL1       -0.2406
     19 C         -31.8742   -1.3065   31.0333 C.3     1  UNL1        0.2373
     20 C         -32.8404   -0.3789   31.3047 C.3     1  UNL1        0.0782
     21 C         -32.5507    0.5771   32.1480 C.ar    1  UNL1       -0.0181
     22 C         -32.2460    0.3746   33.4194 C.ar    1  UNL1       -0.0041
     23 C         -31.8895    1.4047   34.3819 C.ar    1  UNL1       -0.0003
     24 C         -31.9793    2.7353   33.9027 C.ar    1  UNL1       -0.0000
     25 C         -32.3350    2.9929   32.6084 C.ar    1  UNL1       -0.0003
     26 C         -32.6013    1.9471   31.7253 C.ar    1  UNL1       -0.0041
     27 C         -32.1274   -2.7064   30.9883 C.2     1  UNL1        0.2510
     28 O         -33.0170   -3.2004   30.4647 O.2     1  UNL1       -0.2843
@<TRIPOS>BOND
     1     2     7    1
     2     7     8    2
     3     7     9    1
     4     4    10    1
     5    13    16    1
     6    16    17   ar
     7    16    18   ar
     8     9    19    1
     9    19    20    1
    10    20    21    1
    11    19    27    1
    12    27    28    2
    13    10    11   ar
    14    11    14   ar
    15    14    15   ar
    16    15    13   ar
    17    13    12   ar
    18    12    10   ar
    19     1     2   ar
    20     2     5   ar
    21     5     6   ar
    22     6     4   ar
    23     4     3   ar
    24     3     1   ar
    25    21    22   ar
    26    22    23   ar
    27    23    24   ar
    28    24    25   ar
    29    25    26   ar
    30    26    21   ar
