@<TRIPOS>MOLECULE
No_3456-gen_results/8p0m/2024-11-26-14-13-15/
 16 17 0 0 0
SMALL
GASTEIGER

@<TRIPOS>ATOM
      1 C         -28.0162   -0.8135   28.8779 C.ar    1  UNL1        0.0441
      2 C         -27.0636   -0.1189   28.6079 C.ar    1  UNL1        0.1455
      3 C         -26.8756    1.1325   28.9134 C.ar    1  UNL1        0.0375
      4 C         -27.9014    1.8066   29.6436 C.ar    1  UNL1        0.0033
      5 C         -29.0458   -0.2316   29.7181 C.ar    1  UNL1        0.0828
      6 C         -28.9402    1.0517   30.0597 C.ar    1  UNL1        0.0068
      7 O         -25.9795   -0.6907   27.8753 O.3     1  UNL1       -0.4535
      8 C         -24.9341   -1.2498   28.6642 C.ar    1  UNL1        0.1453
      9 C         -24.9389   -2.3910   29.0877 C.ar    1  UNL1        0.0375
     10 C         -23.7241   -0.4325   28.7213 C.ar    1  UNL1        0.0375
     11 C         -22.6020   -0.9900   29.4036 C.ar    1  UNL1        0.0031
     12 C         -23.8399   -2.9975   29.7280 C.ar    1  UNL1        0.0031
     13 C         -22.6741   -2.2577   29.8739 C.ar    1  UNL1        0.0002
     14 C         -30.1938   -1.1004   30.1307 C.2     1  UNL1        0.3879
     15 O         -30.7564   -0.8333   30.9470 O.co2   1  UNL1       -0.2406
     16 O         -30.3163   -2.1626   29.4008 O.co2   1  UNL1       -0.2406
@<TRIPOS>BOND
     1     2     7    1
     2     7     8    1
     3     5    14    1
     4    14    15   ar
     5    14    16   ar
     6     1     2   ar
     7     2     3   ar
     8     3     4   ar
     9     4     6   ar
    10     6     5   ar
    11     5     1   ar
    12     8     9   ar
    13     9    12   ar
    14    12    13   ar
    15    13    11   ar
    16    11    10   ar
    17    10     8   ar
