@<TRIPOS>MOLECULE
No_3457-gen_results/8p0m/2024-11-26-14-13-15/
 27 30 0 0 0
SMALL
GASTEIGER

@<TRIPOS>ATOM
      1 C         -28.0162   -0.8135   28.8779 C.ar    1  UNL1        0.0039
      2 C         -27.0636   -0.1189   28.6079 C.ar    1  UNL1       -0.0001
      3 C         -25.7923   -0.4302   29.0761 C.ar    1  UNL1       -0.0002
      4 C         -24.5456    0.3494   28.8225 C.ar    1  UNL1        0.0003
      5 C         -23.2409    0.0217   29.3323 C.ar    1  UNL1       -0.0001
      6 C         -27.8820   -1.8995   29.8633 C.ar    1  UNL1        0.0714
      7 C         -26.6526   -2.3141   30.3138 C.ar    1  UNL1        0.0039
      8 C         -25.5153   -1.5607   29.9787 C.ar    1  UNL1       -0.0001
      9 C         -22.1645    0.7936   28.9524 C.ar    1  UNL1        0.0031
     10 C         -22.1241    1.7484   27.9889 C.ar    1  UNL1        0.0367
     11 C         -24.5235    1.3782   27.7946 C.ar    1  UNL1        0.0280
     12 C         -23.3387    2.0417   27.4305 C.ar    1  UNL1        0.1377
     13 C         -28.9372   -2.8361   30.3486 C.3     1  UNL1        0.4186
     14 F         -28.6616   -4.0586   30.4448 F       1  UNL1       -0.1659
     15 F         -29.9791   -2.6315   29.5254 F       1  UNL1       -0.1659
     16 F         -29.2825   -2.3912   31.5951 F       1  UNL1       -0.1659
     17 O         -23.4470    2.9937   26.4659 O.3     1  UNL1       -0.4584
     18 C         -24.5049    2.6657   25.5688 C.3     1  UNL1        0.2851
     19 C         -25.5496    1.5583   26.8968 C.3     1  UNL1        0.1054
     20 N         -25.5541    2.2961   25.8739 N.3     1  UNL1       -0.2275
     21 C         -26.7124    2.4723   25.0938 C.3     1  UNL1        0.1024
     22 C         -27.8139    3.1905   25.7312 C.ar    1  UNL1       -0.0060
     23 C         -29.0679    3.2013   25.1800 C.ar    1  UNL1       -0.0029
     24 C         -30.1229    3.9207   25.7732 C.ar    1  UNL1       -0.0003
     25 C         -29.8697    4.6183   26.9893 C.ar    1  UNL1       -0.0000
     26 C         -28.6392    4.5406   27.5825 C.ar    1  UNL1       -0.0003
     27 C         -27.6175    3.8849   26.9923 C.ar    1  UNL1       -0.0029
@<TRIPOS>BOND
     1     3     4    1
     2     6    13    1
     3    13    14    1
     4    13    15    1
     5    13    16    1
     6    12    17    1
     7    17    18    1
     8    11    19    1
     9    18    20    1
    10    19    20    1
    11    20    21    1
    12    21    22    1
    13    22    23   ar
    14    23    24   ar
    15    24    25   ar
    16    25    26   ar
    17    26    27   ar
    18    27    22   ar
    19     1     2   ar
    20     2     3   ar
    21     3     8   ar
    22     8     7   ar
    23     7     6   ar
    24     6     1   ar
    25     4     5   ar
    26     5     9   ar
    27     9    10   ar
    28    10    12   ar
    29    12    11   ar
    30    11     4   ar
