@<TRIPOS>MOLECULE
No_3459-gen_results/8p0m/2024-11-26-14-13-15/
 9 9 0 0 0
SMALL
GASTEIGER

@<TRIPOS>ATOM
      1 C         -28.0162   -0.8135   28.8779 C.3     1  UNL1        0.0468
      2 C         -27.0636   -0.1189   28.6079 C.ar    1  UNL1       -0.0207
      3 C         -26.9716    0.7139   27.5060 C.ar    1  UNL1       -0.0042
      4 C         -25.8206    1.4909   27.1160 C.ar    1  UNL1       -0.0003
      5 C         -24.8580    1.3421   27.6008 C.ar    1  UNL1       -0.0000
      6 C         -24.6224    0.5295   28.8144 C.ar    1  UNL1       -0.0003
      7 C         -25.7344   -0.1811   29.1908 C.ar    1  UNL1       -0.0042
      8 C         -27.9596   -1.4412   30.2523 C.3     1  UNL1        0.1140
      9 N         -29.0203   -2.1885   30.6818 N.3     1  UNL1       -0.1310
@<TRIPOS>BOND
     1     1     8    1
     2     8     9    1
     3     1     2    1
     4     2     3   ar
     5     3     4   ar
     6     4     5   ar
     7     5     6   ar
     8     6     7   ar
     9     7     2   ar
