@<TRIPOS>MOLECULE
No_3460-gen_results/8p0m/2024-11-26-14-13-15/
 35 38 0 0 0
SMALL
GASTEIGER

@<TRIPOS>ATOM
      1 C         -28.0162   -0.8135   28.8779 C.ar    1  UNL1        0.0333
      2 C         -27.0636   -0.1189   28.6079 C.ar    1  UNL1       -0.0113
      3 C         -25.7923   -0.4302   29.0761 C.ar    1  UNL1       -0.0034
      4 C         -25.5756   -1.5654   29.9363 C.ar    1  UNL1        0.0028
      5 C         -26.7354   -2.3004   30.2173 C.ar    1  UNL1        0.0369
      6 C         -27.9184   -1.9537   29.7629 C.ar    1  UNL1        0.1383
      7 C         -27.1057    1.1023   27.7593 C.3     1  UNL1        0.0677
      8 C         -26.7157    2.2350   27.9945 C.ar    1  UNL1       -0.0143
      9 C         -26.0688    2.4770   29.3567 C.ar    1  UNL1       -0.0036
     10 C         -26.2621    3.4491   30.0956 C.ar    1  UNL1       -0.0003
     11 C         -26.6040    4.7187   29.3953 C.ar    1  UNL1       -0.0000
     12 C         -27.0474    4.6411   28.1009 C.ar    1  UNL1       -0.0003
     13 C         -27.2101    3.4198   27.4435 C.ar    1  UNL1       -0.0036
     14 C         -27.5530    0.8062   26.3680 C.ar    1  UNL1       -0.0030
     15 C         -28.8376    0.9676   26.0488 C.ar    1  UNL1        0.0668
     16 C         -29.2487    0.6216   24.8028 C.ar    1  UNL1        0.0162
     17 C         -26.6666    0.3451   25.4813 C.ar    1  UNL1       -0.0239
     18 C         -25.1879    0.1067   25.8441 C.3     1  UNL1        0.0308
     19 C         -28.3121    0.1292   23.8559 C.ar    1  UNL1        0.0010
     20 C         -27.0578    0.0460   24.2049 C.ar    1  UNL1       -0.0045
     21 O         -29.0106   -2.6626   30.1093 O.3     1  UNL1       -0.4736
     22 C         -28.8892   -3.9723   30.5527 C.3     1  UNL1        0.2267
     23 C         -29.8897   -4.7873   30.1516 C.3     1  UNL1        0.1386
     24 N         -31.0423   -4.4547   30.5183 N.pl3   1  UNL1       -0.3024
     25 C         -32.1865   -4.8657   30.0260 C.ar    1  UNL1        0.0480
     26 C         -32.6777   -4.5240   29.0685 C.ar    1  UNL1        0.0145
     27 C         -33.8652   -5.0503   28.3597 C.ar    1  UNL1        0.0013
     28 C         -34.5320   -6.0437   28.9979 C.ar    1  UNL1        0.0001
     29 C         -34.0589   -6.5110   30.1889 C.ar    1  UNL1        0.0013
     30 C         -32.8654   -5.9731   30.7546 C.ar    1  UNL1        0.0145
     31 C         -31.2459   -3.5257   31.6410 C.3     1  UNL1        0.1123
     32 N         -29.8595    1.4347   26.9180 N.pl3   1  UNL1       -0.2118
     33 C         -31.0327    1.0142   27.2567 C.2     1  UNL1        0.0811
     34 C         -31.5573    0.0120   26.6884 C.2     1  UNL1       -0.0080
     35 C         -32.4769   -0.5171   27.1422 C.3     1  UNL1        0.0321
@<TRIPOS>BOND
     1     2     7    1
     2     7    14    1
     3    17    18    1
     4     6    21    1
     5    21    22    1
     6    22    23    1
     7    23    24    1
     8    24    25    1
     9    24    31    1
    10    15    32    1
    11    32    33    1
    12    33    34    2
    13    34    35    1
    14     7     8    1
    15     1     2   ar
    16     2     3   ar
    17     3     4   ar
    18     4     5   ar
    19     5     6   ar
    20     6     1   ar
    21    25    26   ar
    22    26    27   ar
    23    27    28   ar
    24    28    29   ar
    25    29    30   ar
    26    30    25   ar
    27     8     9   ar
    28     9    10   ar
    29    10    11   ar
    30    11    12   ar
    31    12    13   ar
    32    13     8   ar
    33    14    15   ar
    34    15    16   ar
    35    16    19   ar
    36    19    20   ar
    37    20    17   ar
    38    17    14   ar
