@<TRIPOS>MOLECULE
No_3461-gen_results/8p0m/2024-11-26-14-13-15/
 35 37 0 0 0
SMALL
GASTEIGER

@<TRIPOS>ATOM
      1 C         -28.0162   -0.8135   28.8779 C.2     1  UNL1        0.3417
      2 C         -27.0636   -0.1190   28.6079 C.ar    1  UNL1        0.0756
      3 C         -27.0010    0.6913   27.4910 C.ar    1  UNL1        0.0064
      4 C         -25.8548    1.4825   27.0830 C.ar    1  UNL1        0.0041
      5 C         -24.6901    1.4526   27.8807 C.ar    1  UNL1        0.0714
      6 C         -24.7379    0.6010   29.0416 C.ar    1  UNL1        0.0041
      7 C         -25.8234   -0.1688   29.3887 C.ar    1  UNL1        0.0064
      8 O         -29.1483   -0.3188   28.7297 O.3     1  UNL1       -0.4353
      9 O         -27.9049   -1.9207   29.6045 O.2     1  UNL1       -0.2449
     10 C         -23.5194    2.2057   27.5787 C.3     1  UNL1        0.4186
     11 F         -23.6008    2.9532   26.7190 F       1  UNL1       -0.1659
     12 F         -22.4340    1.3276   27.2351 F       1  UNL1       -0.1659
     13 F         -23.0947    2.8629   28.7038 F       1  UNL1       -0.1659
     14 C         -30.3128   -0.7067   29.5208 C.3     1  UNL1        0.2929
     15 C         -31.4887   -0.8108   29.0349 C.2     1  UNL1        0.2709
     16 O         -31.7191   -0.1621   28.0420 O.2     1  UNL1       -0.2708
     17 N         -32.2411   -1.9786   29.2630 N.am    1  UNL1       -0.2641
     18 C         -33.4295   -2.2864   28.5329 C.3     1  UNL1        0.1207
     19 C         -31.9310   -2.8736   30.3894 C.3     1  UNL1        0.1800
     20 C         -31.2511   -3.9079   30.0608 C.2     1  UNL1        0.2497
     21 O         -31.0997   -4.3691   29.0607 O.2     1  UNL1       -0.2727
     22 N         -30.5738   -4.7034   31.1638 N.am    1  UNL1       -0.2555
     23 C         -29.7265   -5.8420   30.9663 C.3     1  UNL1        0.1201
     24 C         -30.7133   -4.1696   32.5185 C.ar    1  UNL1        0.0539
     25 C         -29.7544   -3.3267   32.9750 C.ar    1  UNL1        0.0149
     26 C         -29.8603   -2.8995   34.3471 C.ar    1  UNL1        0.0013
     27 C         -30.7218   -3.4419   35.0219 C.ar    1  UNL1        0.0001
     28 C         -31.6548   -4.3703   34.6241 C.ar    1  UNL1        0.0013
     29 C         -31.6171   -4.7864   33.2780 C.ar    1  UNL1        0.0149
     30 C         -34.5014   -2.4690   29.3872 C.ar    1  UNL1       -0.0023
     31 C         -34.7417   -1.8796   30.5258 C.ar    1  UNL1       -0.0026
     32 C         -35.8813   -2.1803   31.3756 C.ar    1  UNL1       -0.0003
     33 C         -36.7735   -3.1129   30.8547 C.ar    1  UNL1       -0.0000
     34 C         -36.5620   -3.7096   29.6346 C.ar    1  UNL1       -0.0003
     35 C         -35.4294   -3.4197   28.8951 C.ar    1  UNL1       -0.0026
@<TRIPOS>BOND
     1     1     2    1
     2     1     8    1
     3     1     9    2
     4     5    10    1
     5    10    11    1
     6    10    12    1
     7    10    13    1
     8     8    14    1
     9    14    15    1
    10    15    16    2
    11    15    17   am
    12    17    18    1
    13    17    19    1
    14    19    20    1
    15    20    21    2
    16    20    22   am
    17    22    23    1
    18    22    24    1
    19    18    30    1
    20     2     3   ar
    21     3     4   ar
    22     4     5   ar
    23     5     6   ar
    24     6     7   ar
    25     7     2   ar
    26    24    25   ar
    27    25    26   ar
    28    26    27   ar
    29    27    28   ar
    30    28    29   ar
    31    29    24   ar
    32    30    31   ar
    33    31    32   ar
    34    32    33   ar
    35    33    34   ar
    36    34    35   ar
    37    35    30   ar
