@<TRIPOS>MOLECULE
No_3462-gen_results/8p0m/2024-11-26-14-13-15/
 34 37 0 0 0
SMALL
GASTEIGER

@<TRIPOS>ATOM
      1 C         -28.0162   -0.8135   28.8779 C.ar    1  UNL1        0.0002
      2 C         -27.0636   -0.1189   28.6079 C.ar    1  UNL1        0.0000
      3 C         -27.0010    0.6913   27.4910 C.ar    1  UNL1        0.0002
      4 C         -28.1373    0.7363   26.6350 C.ar    1  UNL1        0.0066
      5 C         -29.2360    0.0765   27.0690 C.ar    1  UNL1        0.0798
      6 C         -29.2177   -0.6429   28.1747 C.ar    1  UNL1        0.0066
      7 C         -30.4152    0.1590   26.1819 C.2     1  UNL1        0.3878
      8 O         -31.0087    1.1675   26.1229 O.co2   1  UNL1       -0.2406
      9 O         -30.7756   -0.9479   25.5445 O.co2   1  UNL1       -0.2406
     10 C         -25.7065   -0.1976   29.4220 C.ar    1  UNL1        0.0001
     11 C         -25.5597   -0.7186   30.3285 C.ar    1  UNL1        0.0000
     12 C         -24.2657   -0.8045   31.1015 C.ar    1  UNL1        0.0001
     13 C         -23.1412   -0.2134   30.5031 C.ar    1  UNL1        0.0046
     14 C         -23.3156    0.4410   29.2762 C.ar    1  UNL1        0.0554
     15 C         -24.5969    0.4486   28.6219 C.ar    1  UNL1        0.0046
     16 C         -22.1182    1.0182   28.6532 C.2     1  UNL1        0.2690
     17 N         -22.2752    1.7506   27.5070 N.am    1  UNL1       -0.1754
     18 O         -20.9515    0.6895   28.9745 O.2     1  UNL1       -0.2680
     19 C         -23.4286    2.3581   27.0346 C.ar    1  UNL1        0.0739
     20 C         -23.5160    2.7722   25.6531 C.ar    1  UNL1        0.0166
     21 C         -24.3439    2.9109   27.9590 C.ar    1  UNL1        0.0230
     22 C         -25.2845    3.8924   27.4360 C.ar    1  UNL1        0.0769
     23 C         -25.3118    4.2425   26.1671 C.ar    1  UNL1        0.0065
     24 C         -24.4305    3.6920   25.2565 C.ar    1  UNL1        0.0015
     25 C         -26.3075    4.3844   28.4450 C.2     1  UNL1        0.3416
     26 O         -26.2444    4.2142   29.5386 O.2     1  UNL1       -0.2449
     27 O         -27.2600    5.0967   27.9063 O.3     1  UNL1       -0.4404
     28 C         -28.5621    4.9879   28.4399 C.3     1  UNL1        0.2354
     29 C         -28.9043    4.7116   29.4488 C.ar    1  UNL1        0.0213
     30 C         -29.7985    4.1600   29.9238 C.ar    1  UNL1       -0.0007
     31 C         -30.1824    3.8052   31.3115 C.ar    1  UNL1       -0.0002
     32 C         -29.2120    4.1113   32.2527 C.ar    1  UNL1       -0.0000
     33 C         -28.0339    4.6833   31.8789 C.ar    1  UNL1       -0.0002
     34 C         -27.8298    4.9747   30.6055 C.ar    1  UNL1       -0.0007
@<TRIPOS>BOND
     1     5     7    1
     2     7     8   ar
     3     7     9   ar
     4     2    10    1
     5    14    16    1
     6    16    17   am
     7    16    18    2
     8    17    19    1
     9    22    25    1
    10    25    26    2
    11    25    27    1
    12    27    28    1
    13    28    29    1
    14    29    30   ar
    15    30    31   ar
    16    31    32   ar
    17    32    33   ar
    18    33    34   ar
    19    34    29   ar
    20     1     2   ar
    21     2     3   ar
    22     3     4   ar
    23     4     5   ar
    24     5     6   ar
    25     6     1   ar
    26    19    20   ar
    27    20    24   ar
    28    24    23   ar
    29    23    22   ar
    30    22    21   ar
    31    21    19   ar
    32    10    11   ar
    33    11    12   ar
    34    12    13   ar
    35    13    14   ar
    36    14    15   ar
    37    15    10   ar
