@<TRIPOS>MOLECULE
No_3463-gen_results/8p0m/2024-11-26-14-13-15/
 23 25 0 0 0
SMALL
GASTEIGER

@<TRIPOS>ATOM
      1 C         -28.0162   -0.8135   28.8779 C.ar    1  UNL1        0.0375
      2 C         -27.0636   -0.1190   28.6079 C.ar    1  UNL1        0.0032
      3 C         -25.7647   -0.3897   29.0360 C.ar    1  UNL1        0.0010
      4 C         -25.5296   -1.5303   29.9014 C.ar    1  UNL1        0.0031
      5 C         -26.6888   -2.2893   30.1810 C.ar    1  UNL1        0.0375
      6 C         -27.8727   -1.9508   29.7373 C.ar    1  UNL1        0.1448
      7 C         -24.5491    0.4100   28.7341 C.ar    1  UNL1        0.0114
      8 C         -23.3309    0.0437   29.0569 C.ar    1  UNL1        0.0577
      9 C         -23.2108   -1.2231   29.7977 C.ar    1  UNL1        0.0114
     10 C         -24.2359   -1.9570   30.2201 C.ar    1  UNL1        0.0010
     11 CL        -21.9159    0.8926   28.6782 Cl      1  UNL1       -0.0822
     12 O         -28.9906   -2.6738   30.1103 O.3     1  UNL1       -0.4578
     13 C         -28.8696   -3.9664   30.5528 C.2     1  UNL1        0.1232
     14 C         -28.5396   -4.2730   31.4464 C.2     1  UNL1        0.0326
     15 C         -29.6039   -4.5499   32.2891 C.2     1  UNL1       -0.0018
     16 C         -30.4995   -5.6176   31.9364 C.2     1  UNL1       -0.0255
     17 C         -29.3791   -4.8615   29.4550 C.3     1  UNL1        0.0740
     18 C         -30.9617   -6.1923   30.8317 C.3     1  UNL1        0.0356
     19 C         -30.4346   -5.7453   29.6379 C.3     1  UNL1        0.0900
     20 C         -30.9097   -6.3845   28.3838 C.2     1  UNL1        0.2417
     21 O         -30.8959   -5.7867   27.3035 O.2     1  UNL1       -0.2733
     22 N         -31.3443   -7.6832   28.4093 N.am    1  UNL1       -0.2035
     23 C         -31.8167   -8.3773   27.2462 C.3     1  UNL1        0.1385
@<TRIPOS>BOND
     1     8    11    1
     2     6    12    1
     3    12    13    1
     4    13    14    2
     5    14    15    1
     6    15    16    2
     7    13    17    1
     8    16    18    1
     9    17    19    1
    10    18    19    1
    11    19    20    1
    12    20    21    2
    13    20    22   am
    14    22    23    1
    15     1     2   ar
    16     2     3   ar
    17     4     5   ar
    18     5     6   ar
    19     6     1   ar
    20     3     4   ar
    21     4    10   ar
    22    10     9   ar
    23     9     8   ar
    24     8     7   ar
    25     7     3   ar
