@<TRIPOS>MOLECULE
No_3464-gen_results/8p0m/2024-11-26-14-13-15/
 35 38 0 0 0
SMALL
GASTEIGER

@<TRIPOS>ATOM
      1 C         -28.0162   -0.8135   28.8779 C.ar    1  UNL1        0.0045
      2 C         -27.0636   -0.1189   28.6079 C.ar    1  UNL1        0.0001
      3 C         -25.7923   -0.4302   29.0761 C.ar    1  UNL1        0.0000
      4 C         -24.5456    0.3494   28.8225 C.ar    1  UNL1        0.0000
      5 C         -23.2409    0.0217   29.3323 C.ar    1  UNL1        0.0000
      6 C         -27.8820   -1.8995   29.8633 C.ar    1  UNL1        0.0536
      7 C         -26.6706   -2.3272   30.3212 C.ar    1  UNL1        0.0045
      8 C         -25.5433   -1.5852   29.9316 C.ar    1  UNL1        0.0001
      9 C         -22.1884    0.8224   28.9928 C.ar    1  UNL1        0.0000
     10 C         -22.1616    1.7773   28.0238 C.ar    1  UNL1        0.0000
     11 C         -24.5484    1.3977   27.8309 C.ar    1  UNL1        0.0000
     12 C         -23.3870    2.0761   27.4709 C.ar    1  UNL1        0.0000
     13 C         -29.0623   -2.7219   30.2963 C.2     1  UNL1        0.2495
     14 O         -28.9730   -3.9254   30.3049 O.2     1  UNL1       -0.2699
     15 N         -29.9712   -2.1026   31.0722 N.am    1  UNL1       -0.2679
     16 C         -31.1046   -2.8894   31.6201 C.3     1  UNL1        0.1205
     17 C         -30.0378   -0.6831   31.2932 C.3     1  UNL1        0.1208
     18 C         -30.7320    0.0114   30.5280 C.ar    1  UNL1       -0.0022
     19 C         -31.5601    0.7414   30.9263 C.ar    1  UNL1       -0.0026
     20 C         -32.4958    1.4852   30.0498 C.ar    1  UNL1       -0.0001
     21 C         -32.2759    1.3605   28.6808 C.ar    1  UNL1        0.0045
     22 C         -31.3168    0.5353   28.1916 C.ar    1  UNL1        0.0533
     23 C         -30.5453   -0.1771   29.0784 C.ar    1  UNL1        0.0019
     24 C         -31.1164    0.3963   26.7443 C.2     1  UNL1        0.2490
     25 N         -30.1226    0.9512   26.2151 N.am    1  UNL1       -0.2761
     26 C         -29.6066    1.9816   26.5371 C.3     1  UNL1        0.0937
     27 C         -28.3890    2.4981   25.8122 C.3     1  UNL1        0.0216
     28 C         -29.3905    0.2696   25.1534 C.3     1  UNL1        0.0937
     29 C         -28.2881    0.6768   24.4169 C.3     1  UNL1        0.0216
     30 C         -27.7792    1.8863   24.8569 C.3     1  UNL1        0.0035
     31 O         -31.9362   -0.3419   26.1630 O.2     1  UNL1       -0.2699
     32 C         -32.1114   -3.1867   30.7945 C.2     1  UNL1       -0.0047
     33 C         -32.8422   -3.9752   30.9178 C.2     1  UNL1       -0.0029
     34 C         -32.9273   -4.6744   32.1822 C.2     1  UNL1       -0.0003
     35 C         -31.9221   -4.4640   33.0828 C.2     1  UNL1       -0.0000
@<TRIPOS>BOND
     1     3     4    1
     2     6    13    1
     3    13    14    2
     4    13    15   am
     5    15    16    1
     6    15    17    1
     7    22    24    1
     8    24    25   am
     9    25    26    1
    10    25    28    1
    11    27    30    1
    12    29    30    1
    13    24    31    2
    14    16    32    1
    15    32    33    2
    16    33    34    1
    17    34    35    2
    18    17    18    1
    19    26    27    1
    20    29    28    1
    21    18    19   ar
    22    19    20   ar
    23    20    21   ar
    24    21    22   ar
    25    22    23   ar
    26    23    18   ar
    27     1     2   ar
    28     2     3   ar
    29     3     8   ar
    30     8     7   ar
    31     7     6   ar
    32     6     1   ar
    33     4     5   ar
    34     5     9   ar
    35     9    10   ar
    36    10    12   ar
    37    12    11   ar
    38    11     4   ar
