@<TRIPOS>MOLECULE
No_3465-gen_results/8p0m/2024-11-26-14-13-15/
 9 9 0 0 0
SMALL
GASTEIGER

@<TRIPOS>ATOM
      1 C         -28.0162   -0.8135   28.8779 C.ar    1  UNL1        0.0436
      2 C         -28.4690   -0.7850   29.8287 C.ar    1  UNL1        0.1392
      3 C         -27.1356    0.2359   28.5352 C.ar    1  UNL1        0.0376
      4 C         -26.8745    1.2825   29.3982 C.ar    1  UNL1        0.0069
      5 C         -28.3613    0.1987   30.9244 C.ar    1  UNL1        0.0369
      6 C         -27.5277    1.2234   30.6356 C.ar    1  UNL1        0.0036
      7 BR        -26.2178    0.2819   26.8747 Br      1  UNL1       -0.0489
      8 O         -29.3351   -1.8806   30.2510 O.3     1  UNL1       -0.4714
      9 C         -29.6562   -2.1401   31.5189 C.3     1  UNL1        0.2525
@<TRIPOS>BOND
     1     3     7    1
     2     2     8    1
     3     8     9    1
     4     1     2   ar
     5     2     5   ar
     6     5     6   ar
     7     6     4   ar
     8     4     3   ar
     9     3     1   ar
