@<TRIPOS>MOLECULE
No_3467-gen_results/8p0m/2024-11-26-14-13-15/
 10 10 0 0 0
SMALL
GASTEIGER

@<TRIPOS>ATOM
      1 C         -28.0162   -0.8135   28.8779 C.ar    1  UNL1       -0.0003
      2 C         -27.0636   -0.1190   28.6079 C.ar    1  UNL1       -0.0039
      3 C         -25.7923   -0.4302   29.0761 C.ar    1  UNL1       -0.0178
      4 C         -24.6321    0.3096   28.7290 C.3     1  UNL1        0.0520
      5 C         -27.8949   -1.8615   29.8946 C.ar    1  UNL1       -0.0000
      6 C         -26.6706   -2.2977   30.3374 C.ar    1  UNL1       -0.0003
      7 C         -25.5508   -1.5631   29.9406 C.ar    1  UNL1       -0.0039
      8 C         -23.3574    0.1001   29.2338 C.2     1  UNL1       -0.0260
      9 C         -22.2911    0.9163   28.8708 C.2     1  UNL1       -0.0300
     10 C         -22.4768    1.8522   27.7515 C.3     1  UNL1        0.0304
@<TRIPOS>BOND
     1     4     8    1
     2     8     9    2
     3     9    10    1
     4     4     3    1
     5     1     2   ar
     6     2     3   ar
     7     3     7   ar
     8     7     6   ar
     9     6     5   ar
    10     5     1   ar
