@<TRIPOS>MOLECULE
No_3468-gen_results/8p0m/2024-11-26-14-13-15/
 26 28 0 0 0
SMALL
GASTEIGER

@<TRIPOS>ATOM
      1 C         -28.0162   -0.8135   28.8779 C.ar    1  UNL1        0.0084
      2 C         -28.4690   -0.7850   29.8287 C.ar    1  UNL1        0.0553
      3 C         -27.1356    0.2359   28.5352 C.ar    1  UNL1        0.0716
      4 C         -26.8050    1.0509   29.2763 C.ar    1  UNL1        0.0039
      5 C         -28.2372    0.1503   30.9300 C.ar    1  UNL1        0.0046
      6 C         -27.3522    1.1239   30.6071 C.ar    1  UNL1        0.0001
      7 C         -26.4705    0.1962   27.1308 C.3     1  UNL1        0.4186
      8 F         -25.5412   -0.5658   27.0554 F       1  UNL1       -0.1659
      9 F         -25.9631    1.4520   26.7568 F       1  UNL1       -0.1659
     10 F         -27.4270    0.0124   26.1154 F       1  UNL1       -0.1659
     11 C         -29.4398   -1.9643   30.3613 C.2     1  UNL1        0.2690
     12 O         -29.1246   -3.1004   30.3652 O.2     1  UNL1       -0.2680
     13 N         -30.4417   -1.6167   31.1992 N.am    1  UNL1       -0.1754
     14 C         -31.3290   -2.6113   31.7307 C.ar    1  UNL1        0.0736
     15 C         -32.2654   -3.1791   30.8544 C.ar    1  UNL1        0.0166
     16 C         -32.6446   -4.2899   30.9135 C.ar    1  UNL1        0.0013
     17 C         -32.4117   -5.1319   32.1711 C.ar    1  UNL1        0.0001
     18 C         -31.5018   -4.5875   33.0944 C.ar    1  UNL1        0.0013
     19 C         -30.8295   -3.3319   32.8366 C.ar    1  UNL1        0.0154
     20 C         -29.8415   -2.8345   33.7407 C.ar    1  UNL1        0.0021
     21 C         -29.1160   -1.7768   33.5430 C.ar    1  UNL1        0.0114
     22 C         -28.2168   -1.2955   34.5175 C.ar    1  UNL1        0.0577
     23 C         -28.0667   -1.9411   35.7188 C.ar    1  UNL1        0.0114
     24 C         -28.8252   -3.1081   35.9728 C.ar    1  UNL1        0.0009
     25 C         -29.7280   -3.5363   35.0194 C.ar    1  UNL1        0.0001
     26 CL        -27.2427    0.1223   34.2756 Cl      1  UNL1       -0.0822
@<TRIPOS>BOND
     1     3     7    1
     2     7     8    1
     3     7     9    1
     4     7    10    1
     5     2    11    1
     6    11    12    2
     7    11    13   am
     8    13    14    1
     9    19    20    1
    10    22    26    1
    11    14    15   ar
    12    15    16   ar
    13    16    17   ar
    14    17    18   ar
    15    18    19   ar
    16    19    14   ar
    17     1     2   ar
    18     2     5   ar
    19     5     6   ar
    20     6     4   ar
    21     4     3   ar
    22     3     1   ar
    23    20    21   ar
    24    21    22   ar
    25    22    23   ar
    26    23    24   ar
    27    24    25   ar
    28    25    20   ar
