@<TRIPOS>MOLECULE
No_3469-gen_results/8p0m/2024-11-26-14-13-15/
 19 20 0 0 0
SMALL
GASTEIGER

@<TRIPOS>ATOM
      1 C         -28.0162   -0.8135   28.8779 C.ar    1  UNL1        0.0180
      2 C         -27.0636   -0.1190   28.6079 C.ar    1  UNL1        0.0806
      3 C         -25.7647   -0.3897   29.0360 C.ar    1  UNL1        0.0066
      4 C         -25.5296   -1.5302   29.9014 C.ar    1  UNL1        0.0011
      5 C         -26.6577   -2.2915   30.2035 C.ar    1  UNL1        0.0114
      6 C         -27.8548   -1.9555   29.7630 C.ar    1  UNL1        0.0579
      7 C         -24.5441    0.4126   28.7379 C.ar    1  UNL1        0.0066
      8 C         -24.0952    1.3785   29.5751 C.ar    1  UNL1        0.0798
      9 C         -22.9715    2.1447   29.2493 C.ar    1  UNL1        0.0066
     10 C         -22.2339    1.9126   28.0417 C.ar    1  UNL1        0.0002
     11 C         -23.7826    0.2867   27.5524 C.ar    1  UNL1        0.0002
     12 C         -22.6965    1.0118   27.2313 C.ar    1  UNL1        0.0000
     13 C         -24.7432    1.6126   30.9137 C.2     1  UNL1        0.3878
     14 O         -25.8647    1.8480   30.9108 O.co2   1  UNL1       -0.2406
     15 O         -23.9791    1.4918   31.9972 O.co2   1  UNL1       -0.2406
     16 CL        -29.2026   -2.9320   30.1808 Cl      1  UNL1       -0.0822
     17 C         -27.2195    1.0917   27.6850 C.2     1  UNL1        0.3878
     18 O         -27.4622    1.0013   26.5199 O.co2   1  UNL1       -0.2406
     19 O         -27.1006    2.3197   28.2430 O.co2   1  UNL1       -0.2406
@<TRIPOS>BOND
     1     3     7    1
     2     8    13    1
     3    13    14   ar
     4    13    15   ar
     5     6    16    1
     6     2    17    1
     7    17    18   ar
     8    17    19   ar
     9     7     8   ar
    10     8     9   ar
    11     9    10   ar
    12    10    12   ar
    13    12    11   ar
    14    11     7   ar
    15     1     2   ar
    16     2     3   ar
    17     3     4   ar
    18     4     5   ar
    19     5     6   ar
    20     6     1   ar
