@<TRIPOS>MOLECULE
No_347-gen_results/8p0m/2024-11-26-14-13-15/
 27 31 0 0 0
SMALL
GASTEIGER

@<TRIPOS>ATOM
      1 C         -28.0162   -0.8135   28.8779 C.ar    1  UNL1        0.0030
      2 C         -27.0636   -0.1190   28.6079 C.ar    1  UNL1        0.0356
      3 C         -26.9716    0.7139   27.5060 C.ar    1  UNL1       -0.0109
      4 C         -28.1053    0.7744   26.6421 C.ar    1  UNL1        0.0010
      5 C         -29.2041    0.1179   27.0477 C.ar    1  UNL1        0.0551
      6 C         -29.2127   -0.6088   28.1281 C.ar    1  UNL1        0.0047
      7 C         -25.7106    1.4518   27.1380 C.3     1  UNL1        0.0728
      8 C         -24.6052    0.9253   27.6902 C.ar    1  UNL1        0.0234
      9 C         -24.6227    0.0600   28.8225 C.ar    1  UNL1        0.0385
     10 C         -25.7269   -0.4734   29.2409 C.2     1  UNL1        0.1951
     11 C         -23.2725    1.6786   27.4284 C.ar    1  UNL1        0.1421
     12 C         -22.4355    2.0369   28.3281 C.ar    1  UNL1        0.0372
     13 C         -22.3088    0.9644   29.3715 C.ar    1  UNL1        0.0032
     14 C         -23.4175    0.0477   29.7226 C.ar    1  UNL1        0.0031
     15 O         -25.7229   -1.4048   30.1273 O.2     1  UNL1       -0.2866
     16 C         -30.4399    0.3046   26.2369 C.2     1  UNL1        0.2690
     17 N         -31.5260    0.1114   26.6243 N.am    1  UNL1       -0.1754
     18 O         -30.2533    0.3985   24.9364 O.2     1  UNL1       -0.2680
     19 C         -32.5651    0.1046   26.2387 C.ar    1  UNL1        0.0737
     20 C         -25.7889    2.3578   26.0264 C.2     1  UNL1        0.0230
     21 C         -33.7481   -0.1471   26.8259 C.ar    1  UNL1        0.0166
     22 C         -34.9398   -0.1684   26.3489 C.ar    1  UNL1        0.0013
     23 C         -35.0927    0.0484   24.9151 C.ar    1  UNL1        0.0001
     24 C         -33.9410    0.2618   24.1541 C.ar    1  UNL1        0.0013
     25 C         -32.7479    0.3006   24.7355 C.ar    1  UNL1        0.0166
     26 O         -23.1522    2.4237   26.2787 O.3     1  UNL1       -0.4510
     27 C         -24.4027    2.8006   25.6333 C.2     1  UNL1        0.1756
@<TRIPOS>BOND
     1     3     7    1
     2     2    10    1
     3     9    10    1
     4    10    15    2
     5     5    16    1
     6    16    17   am
     7    16    18    2
     8    17    19    1
     9     7    20    1
    10    11    26    1
    11    20    27    2
    12    26    27    1
    13     7     8    1
    14     1     2   ar
    15     2     3   ar
    16     3     4   ar
    17     4     5   ar
    18     5     6   ar
    19     6     1   ar
    20     8     9   ar
    21     9    14   ar
    22    14    13   ar
    23    13    12   ar
    24    12    11   ar
    25    11     8   ar
    26    19    21   ar
    27    21    22   ar
    28    22    23   ar
    29    23    24   ar
    30    24    25   ar
    31    25    19   ar
