@<TRIPOS>MOLECULE
No_3471-gen_results/8p0m/2024-11-26-14-13-15/
 24 26 0 0 0
SMALL
GASTEIGER

@<TRIPOS>ATOM
      1 C         -28.0162   -0.8135   28.8779 C.ar    1  UNL1        0.0494
      2 C         -28.4690   -0.7850   29.8287 C.ar    1  UNL1        0.0607
      3 C         -26.5042   -0.7777   28.8766 C.ar    1  UNL1        0.1522
      4 C         -25.8103   -0.8531   30.1028 C.ar    1  UNL1        0.0691
      5 C         -27.9906   -0.8916   31.2257 C.ar    1  UNL1        0.0121
      6 C         -26.6042   -0.8676   31.2652 C.ar    1  UNL1        0.0106
      7 BR        -23.9859   -0.7976   30.1716 Br      1  UNL1       -0.0458
      8 CL        -30.3292   -0.8398   29.8324 Cl      1  UNL1       -0.0821
      9 O         -25.7389   -0.7486   27.7443 O.3     1  UNL1       -0.4530
     10 C         -25.4742    0.4808   27.1654 C.ar    1  UNL1        0.1454
     11 C         -24.2672    0.9960   27.3478 C.ar    1  UNL1        0.0408
     12 C         -23.9683    2.0437   27.1998 C.ar    1  UNL1        0.0452
     13 C         -24.6710    2.9278   26.2265 C.ar    1  UNL1        0.1959
     14 C         -26.4023    1.0590   26.3567 C.ar    1  UNL1        0.0377
     15 C         -26.0028    2.3636   25.8940 C.ar    1  UNL1        0.0451
     16 O         -24.2839    4.1195   25.8623 O.3     1  UNL1       -0.2866
     17 C         -27.5796    0.5330   25.8736 C.2     1  UNL1        0.0031
     18 C         -28.1194    1.1004   24.6518 C.2     1  UNL1        0.0001
     19 C         -29.4033    1.5385   24.6734 C.ar    1  UNL1        0.0000
     20 C         -30.1699    1.5983   25.7035 C.ar    1  UNL1        0.0000
     21 C         -31.4359    2.0632   25.6481 C.ar    1  UNL1        0.0000
     22 C         -31.9326    2.4530   24.3883 C.ar    1  UNL1        0.0000
     23 C         -31.1901    2.4220   23.2396 C.ar    1  UNL1        0.0000
     24 C         -29.8974    1.9758   23.3815 C.ar    1  UNL1        0.0000
@<TRIPOS>BOND
     1     4     7    1
     2     2     8    1
     3     3     9    1
     4     9    10    1
     5    13    16    1
     6    14    17    1
     7    17    18    2
     8    18    19    1
     9    10    11   ar
    10    11    12   ar
    11    12    13   ar
    12    13    15   ar
    13    15    14   ar
    14    14    10   ar
    15     1     2   ar
    16     2     5   ar
    17     5     6   ar
    18     6     4   ar
    19     4     3   ar
    20     3     1   ar
    21    19    20   ar
    22    20    21   ar
    23    21    22   ar
    24    22    23   ar
    25    23    24   ar
    26    24    19   ar
