@<TRIPOS>MOLECULE
No_3472-gen_results/8p0m/2024-11-26-14-13-15/
 32 36 0 0 0
SMALL
GASTEIGER

@<TRIPOS>ATOM
      1 C         -28.0162   -0.8135   28.8779 C.3     1  UNL1        0.0648
      2 C         -28.4690   -0.7850   29.8287 C.3     1  UNL1        0.0804
      3 C         -26.5042   -0.7777   28.8766 C.3     1  UNL1        0.0156
      4 C         -25.8305   -1.6807   29.6849 C.3     1  UNL1        0.0086
      5 C         -28.1490   -1.8854   30.9031 C.2     1  UNL1        0.1520
      6 C         -26.6460   -1.9561   31.0330 C.3     1  UNL1        0.0646
      7 O         -28.8423   -2.6205   31.5877 O.2     1  UNL1       -0.2960
      8 C         -25.6851   -0.3320   27.7175 C.3     1  UNL1        0.0029
      9 C         -26.0673    0.4324   26.7661 C.3     1  UNL1        0.0150
     10 C         -27.3979    0.8645   26.6676 C.3     1  UNL1        0.0575
     11 C         -27.8247    1.3840   25.9196 C.3     1  UNL1        0.0165
     12 C         -29.2731    1.7272   25.8089 C.3     1  UNL1        0.0119
     13 N         -28.2400    0.5110   27.9524 N.3     1  UNL1       -0.2744
     14 C         -29.4600    1.0089   27.9907 C.3     1  UNL1        0.0812
     15 C         -30.0422    1.5840   26.8642 C.3     1  UNL1        0.0942
     16 C         -31.3962    2.0604   26.9108 C.2     1  UNL1        0.2426
     17 O         -32.0728    2.2557   26.0262 O.2     1  UNL1       -0.2733
     18 N         -32.1089    1.8106   28.1529 N.am    1  UNL1       -0.2005
     19 C         -33.4782    2.1474   28.3127 C.3     1  UNL1        0.1412
     20 C         -25.1321    0.6725   25.7610 C.3     1  UNL1        0.0057
     21 C         -23.9583    1.4009   26.1292 C.3     1  UNL1        0.0221
     22 C         -23.4312    1.4354   27.4108 C.2     1  UNL1       -0.0443
     23 C         -23.0643    2.5467   27.9852 C.2     1  UNL1       -0.0091
     24 C         -23.0860    0.1425   27.9942 C.3     1  UNL1        0.0220
     25 C         -24.0349   -0.7331   28.5464 C.3     1  UNL1        0.0041
     26 C         -24.4380   -1.5604   29.6722 C.3     1  UNL1        0.0008
     27 C         -34.0492    1.4423   29.2367 C.2     1  UNL1       -0.0029
     28 C         -33.3640    0.6624   29.9725 C.2     1  UNL1       -0.0028
     29 C         -33.9875   -0.1647   31.0543 C.2     1  UNL1       -0.0003
     30 C         -33.1329   -0.9122   31.9185 C.2     1  UNL1       -0.0000
     31 C         -31.7457   -0.9406   31.6712 C.2     1  UNL1       -0.0000
     32 C         -31.2176   -0.1405   30.7211 C.2     1  UNL1       -0.0000
@<TRIPOS>BOND
     1     1     2    1
     2     1     3    1
     3     3     4    1
     4     2     5    1
     5     4     6    1
     6     5     6    1
     7     5     7    2
     8     3     8    1
     9     9    10    1
    10    11    12    1
    11     1    13    1
    12    10    13    1
    13    13    14    1
    14    12    15    1
    15    14    15    1
    16    15    16    1
    17    16    17    2
    18    16    18   am
    19    18    19    1
    20     9    20    1
    21    20    21    1
    22    21    22    1
    23    22    23    2
    24    22    24    1
    25     8    25    1
    26    24    25    1
    27     4    26    1
    28    25    26    1
    29    19    27    1
    30    27    28    2
    31    28    29    1
    32    29    30    2
    33    30    31    1
    34    31    32    2
    35     8     9    1
    36    10    11    1
