@<TRIPOS>MOLECULE
No_3474-gen_results/8p0m/2024-11-26-14-13-15/
 25 27 0 0 0
SMALL
GASTEIGER

@<TRIPOS>ATOM
      1 C         -28.0162   -0.8135   28.8779 C.2     1  UNL1        0.2645
      2 C         -27.0636   -0.1190   28.6079 C.ar    1  UNL1        0.0525
      3 C         -25.7923   -0.4302   29.0761 C.ar    1  UNL1        0.0002
      4 C         -24.5456    0.3494   28.8225 C.ar    1  UNL1        0.0056
      5 C         -24.6586    1.4196   27.8878 C.ar    1  UNL1        0.0571
      6 C         -25.9471    1.6811   27.3792 C.ar    1  UNL1        0.0115
      7 C         -27.0439    0.9739   27.6871 C.ar    1  UNL1        0.0052
      8 N         -27.9736   -1.7264   29.9612 N.am    1  UNL1       -0.2016
      9 O         -29.1912   -0.5380   28.5093 O.2     1  UNL1       -0.2684
     10 C         -29.0743   -2.5471   30.4575 C.3     1  UNL1        0.1177
     11 CL        -23.2641    2.3033   27.5671 Cl      1  UNL1       -0.0823
     12 C         -28.8116   -3.9356   30.4293 C.3     1  UNL1        0.1367
     13 N         -29.8390   -4.7245   30.0468 N.am    1  UNL1       -0.2036
     14 C         -31.0187   -4.5328   30.5992 C.2     1  UNL1        0.2415
     15 C         -31.4183   -3.1417   30.6844 C.3     1  UNL1        0.0886
     16 C         -30.3452   -2.0895   30.6139 C.3     1  UNL1        0.0331
     17 O         -31.9399   -5.4345   30.5400 O.2     1  UNL1       -0.2733
     18 C         -23.2744   -0.0810   29.3890 C.2     1  UNL1        0.0004
     19 C         -22.3796    0.4710   29.6888 C.2     1  UNL1        0.0583
     20 C         -21.1087   -0.2163   29.1134 C.2     1  UNL1        0.2840
     21 C         -23.1991   -1.5616   29.5435 C.3     1  UNL1        0.1155
     22 N         -24.3379   -2.3082   29.4365 N.3     1  UNL1       -0.2085
     23 C         -25.5525   -1.8031   29.1940 C.3     1  UNL1        0.1155
     24 N         -20.1683    0.4915   28.5805 N.am    1  UNL1       -0.0837
     25 O         -20.9908   -1.3985   29.1305 O.2     1  UNL1       -0.2667
@<TRIPOS>BOND
     1     1     2    1
     2     1     8   am
     3     1     9    2
     4     8    10    1
     5     5    11    1
     6    10    12    1
     7    12    13    1
     8    13    14   am
     9    14    15    1
    10    10    16    1
    11    14    17    2
    12     4    18    1
    13    18    19    2
    14    19    20    1
    15    18    21    1
    16    21    22    1
    17     3    23    1
    18    22    23    1
    19    20    24   am
    20    20    25    2
    21    16    15    1
    22     2     3   ar
    23     3     4   ar
    24     4     5   ar
    25     5     6   ar
    26     6     7   ar
    27     7     2   ar
