@<TRIPOS>MOLECULE
No_3475-gen_results/8p0m/2024-11-26-14-13-15/
 16 17 0 0 0
SMALL
GASTEIGER

@<TRIPOS>ATOM
      1 O         -28.1229   -1.3353   28.4874 O.2     1  UNL1       -0.2680
      2 C         -27.4806   -0.4044   28.7094 C.2     1  UNL1        0.2690
      3 C         -26.3804   -0.0867   27.9394 C.ar    1  UNL1        0.0562
      4 N         -27.4232    0.1749   30.0549 N.am    1  UNL1       -0.1754
      5 C         -26.1558    0.1159   26.9677 C.ar    1  UNL1        0.0046
      6 C         -25.8030    0.9179   26.1145 C.ar    1  UNL1        0.0010
      7 C         -24.7358    1.9082   26.5542 C.ar    1  UNL1        0.0114
      8 C         -24.4114    1.7066   27.9228 C.ar    1  UNL1        0.0578
      9 C         -25.1987    0.8236   28.6649 C.ar    1  UNL1        0.0160
     10 C         -28.5056   -0.2921   30.9809 C.ar    1  UNL1        0.0737
     11 CL        -23.2567    2.6711   28.6662 Cl      1  UNL1       -0.0822
     12 C         -28.1050   -0.4154   32.1496 C.ar    1  UNL1        0.0166
     13 C         -28.9483   -0.8626   33.1919 C.ar    1  UNL1        0.0013
     14 C         -30.2913   -1.1559   32.8575 C.ar    1  UNL1        0.0001
     15 C         -30.6670   -1.0336   31.5195 C.ar    1  UNL1        0.0013
     16 C         -29.7785   -0.5765   30.5934 C.ar    1  UNL1        0.0166
@<TRIPOS>BOND
     1     1     2    2
     2     2     3    1
     3     2     4   am
     4     4    10    1
     5     8    11    1
     6     3     5   ar
     7     5     6   ar
     8     6     7   ar
     9     7     8   ar
    10     8     9   ar
    11     9     3   ar
    12    10    12   ar
    13    12    13   ar
    14    13    14   ar
    15    14    15   ar
    16    15    16   ar
    17    16    10   ar
