@<TRIPOS>MOLECULE
No_3476-gen_results/8p0m/2024-11-26-14-13-15/
 25 27 0 0 0
SMALL
GASTEIGER

@<TRIPOS>ATOM
      1 C         -28.0162   -0.8135   28.8779 C.ar    1  UNL1        0.0369
      2 C         -27.0636   -0.1189   28.6079 C.ar    1  UNL1        0.0031
      3 C         -25.7647   -0.3897   29.0360 C.ar    1  UNL1        0.0002
      4 C         -25.5296   -1.5302   29.9014 C.ar    1  UNL1        0.0031
      5 C         -26.6888   -2.2893   30.1810 C.ar    1  UNL1        0.0369
      6 C         -27.8727   -1.9508   29.7373 C.ar    1  UNL1        0.1386
      7 O         -28.9304   -2.7298   30.1154 O.3     1  UNL1       -0.4734
      8 C         -24.5394    0.4211   28.7421 C.ar    1  UNL1       -0.0003
      9 C         -23.3459    0.1143   29.1690 C.ar    1  UNL1       -0.0000
     10 C         -22.1936    0.8740   28.7553 C.ar    1  UNL1       -0.0003
     11 C         -22.3615    1.8342   27.6952 C.ar    1  UNL1       -0.0043
     12 C         -24.3953    1.2356   27.5168 C.ar    1  UNL1       -0.0043
     13 C         -23.4591    2.0021   27.1632 C.ar    1  UNL1       -0.0218
     14 C         -23.6340    2.9613   26.0377 C.3     1  UNL1        0.0310
     15 C         -29.3151   -2.7435   31.4459 C.3     1  UNL1        0.2328
     16 C         -30.6889   -2.6100   31.6219 C.3     1  UNL1        0.2059
     17 C         -31.4382   -2.2556   30.6241 C.2     1  UNL1        0.3827
     18 O         -32.5943   -2.4182   30.6281 O.co2   1  UNL1       -0.2440
     19 O         -30.9695   -1.6675   29.5889 O.co2   1  UNL1       -0.2440
     20 N         -31.2503   -3.8490   32.3232 N.3     1  UNL1       -0.2618
     21 C         -30.4371   -4.6013   33.0020 C.3     1  UNL1        0.0726
     22 C         -32.5625   -4.1906   32.3467 C.3     1  UNL1        0.0726
     23 C         -33.1256   -4.5316   33.1309 C.3     1  UNL1        0.0174
     24 C         -30.9880   -5.5409   33.9892 C.3     1  UNL1        0.0174
     25 C         -32.4064   -5.5373   34.0484 C.3     1  UNL1        0.0029
@<TRIPOS>BOND
     1     6     7    1
     2     3     8    1
     3    13    14    1
     4     7    15    1
     5    15    16    1
     6    16    17    1
     7    17    18   ar
     8    17    19   ar
     9    16    20    1
    10    20    21    1
    11    20    22    1
    12    23    25    1
    13    24    25    1
    14    21    24    1
    15    23    22    1
    16     1     2   ar
    17     2     3   ar
    18     3     4   ar
    19     4     5   ar
    20     5     6   ar
    21     6     1   ar
    22     8     9   ar
    23     9    10   ar
    24    10    11   ar
    25    11    13   ar
    26    13    12   ar
    27    12     8   ar
