@<TRIPOS>MOLECULE
No_3477-gen_results/8p0m/2024-11-26-14-13-15/
 15 16 0 0 0
SMALL
GASTEIGER

@<TRIPOS>ATOM
      1 C         -28.0162   -0.8135   28.8779 C.ar    1  UNL1        0.0512
      2 C         -27.0636   -0.1189   28.6079 C.ar    1  UNL1        0.1734
      3 C         -25.7647   -0.3897   29.0360 C.ar    1  UNL1        0.1744
      4 C         -25.5296   -1.5302   29.9014 C.ar    1  UNL1        0.0337
      5 C         -26.6888   -2.2893   30.1810 C.ar    1  UNL1        0.0139
      6 C         -27.8727   -1.9508   29.7373 C.ar    1  UNL1        0.0609
      7 F         -24.6993    0.3604   28.7753 F       1  UNL1       -0.2009
      8 CL        -29.2297   -2.9278   30.1916 Cl      1  UNL1       -0.0821
      9 O         -27.1621    1.0369   27.8163 O.3     1  UNL1       -0.4512
     10 C         -27.4664    0.9024   26.5152 C.ar    1  UNL1        0.1454
     11 C         -28.7232    0.8865   26.1728 C.ar    1  UNL1        0.0375
     12 C         -29.0874    0.4398   24.9060 C.ar    1  UNL1        0.0031
     13 C         -28.0603    0.1774   23.9767 C.ar    1  UNL1        0.0002
     14 C         -26.4896    0.4746   25.6075 C.ar    1  UNL1        0.0375
     15 C         -26.7448    0.1348   24.3864 C.ar    1  UNL1        0.0031
@<TRIPOS>BOND
     1     3     7    1
     2     6     8    1
     3     2     9    1
     4     9    10    1
     5     1     2   ar
     6     2     3   ar
     7     3     4   ar
     8     4     5   ar
     9     5     6   ar
    10     6     1   ar
    11    10    11   ar
    12    11    12   ar
    13    12    13   ar
    14    13    15   ar
    15    15    14   ar
    16    14    10   ar
