@<TRIPOS>MOLECULE
No_3478-gen_results/8p0m/2024-11-26-14-13-15/
 19 20 0 0 0
SMALL
GASTEIGER

@<TRIPOS>ATOM
      1 C         -28.0162   -0.8135   28.8779 C.2     1  UNL1        0.2690
      2 C         -27.0636   -0.1190   28.6079 C.ar    1  UNL1        0.0554
      3 C         -27.0010    0.6913   27.4910 C.ar    1  UNL1        0.0045
      4 C         -25.8548    1.4825   27.0830 C.ar    1  UNL1        0.0040
      5 C         -24.6901    1.4526   27.8807 C.ar    1  UNL1        0.0714
      6 C         -24.7379    0.6010   29.0416 C.ar    1  UNL1        0.0040
      7 C         -25.8234   -0.1688   29.3887 C.ar    1  UNL1        0.0045
      8 N         -29.2150   -0.1726   29.0132 N.am    1  UNL1       -0.1754
      9 C         -30.2463   -0.7736   29.6388 C.ar    1  UNL1        0.0737
     10 C         -23.5190    2.2034   27.5550 C.3     1  UNL1        0.4186
     11 F         -23.6198    2.9624   26.6621 F       1  UNL1       -0.1659
     12 F         -22.4520    1.3237   27.1888 F       1  UNL1       -0.1659
     13 F         -23.0451    2.8615   28.6432 F       1  UNL1       -0.1659
     14 C         -31.5454   -0.5189   29.2406 C.ar    1  UNL1        0.0166
     15 C         -32.5567   -0.6617   29.7790 C.ar    1  UNL1        0.0013
     16 C         -32.4980   -1.4020   31.0920 C.ar    1  UNL1        0.0001
     17 C         -31.2832   -1.7423   31.6057 C.ar    1  UNL1        0.0013
     18 C         -30.0892   -1.3223   30.9379 C.ar    1  UNL1        0.0166
     19 O         -27.8794   -1.8027   29.6477 O.2     1  UNL1       -0.2680
@<TRIPOS>BOND
     1     1     2    1
     2     1     8   am
     3     8     9    1
     4     5    10    1
     5    10    11    1
     6    10    12    1
     7    10    13    1
     8     1    19    2
     9     2     3   ar
    10     3     4   ar
    11     4     5   ar
    12     5     6   ar
    13     6     7   ar
    14     7     2   ar
    15     9    14   ar
    16    14    15   ar
    17    15    16   ar
    18    16    17   ar
    19    17    18   ar
    20    18     9   ar
