@<TRIPOS>MOLECULE
No_3479-gen_results/8p0m/2024-11-26-14-13-15/
 17 18 0 0 0
SMALL
GASTEIGER

@<TRIPOS>ATOM
      1 C         -28.0162   -0.8135   28.8779 C.ar    1  UNL1       -0.0003
      2 C         -27.0636   -0.1189   28.6079 C.ar    1  UNL1       -0.0000
      3 C         -26.8756    1.1325   28.9134 C.ar    1  UNL1       -0.0000
      4 C         -27.9014    1.8066   29.6436 C.ar    1  UNL1       -0.0000
      5 C         -29.0458   -0.2316   29.7181 C.ar    1  UNL1       -0.0026
      6 C         -28.9402    1.0517   30.0597 C.ar    1  UNL1       -0.0003
      7 C         -30.1632   -1.1170   30.1252 C.2     1  UNL1       -0.0048
      8 C         -29.8974   -2.2602   30.7483 C.2     1  UNL1       -0.0283
      9 C         -30.9159   -3.2528   31.0637 C.3     1  UNL1        0.0304
     10 C         -31.0980   -0.3769   31.1064 C.3     1  UNL1        0.1398
     11 N         -31.6320    0.7089   30.6358 N.pl3   1  UNL1       -0.2155
     12 C         -31.7384    1.7151   31.3977 C.ar    1  UNL1        0.1478
     13 C         -32.4409    2.1892   31.9517 C.ar    1  UNL1        0.0358
     14 C         -32.3973    3.4309   32.7838 C.ar    1  UNL1        0.0045
     15 C         -31.2203    4.1361   32.6842 C.ar    1  UNL1        0.0208
     16 N         -30.4780    2.6188   31.3955 N.ar    1  UNL1       -0.2277
     17 C         -30.3408    3.7140   32.0284 C.ar    1  UNL1        0.1004
@<TRIPOS>BOND
     1     5     7    1
     2     7     8    2
     3     8     9    1
     4     7    10    1
     5    10    11    1
     6    11    12    1
     7    12    13   ar
     8    13    14   ar
     9    14    15   ar
    10    15    17   ar
    11    17    16   ar
    12    16    12   ar
    13     1     2   ar
    14     2     3   ar
    15     3     4   ar
    16     4     6   ar
    17     6     5   ar
    18     5     1   ar
