@<TRIPOS>MOLECULE
No_348-gen_results/8p0m/2024-11-26-14-13-15/
 10 10 0 0 0
SMALL
GASTEIGER

@<TRIPOS>ATOM
      1 C         -28.0162   -0.8135   28.8779 C.ar    1  UNL1        0.0258
      2 C         -27.0636   -0.1189   28.6079 C.ar    1  UNL1        0.0924
      3 C         -25.7923   -0.4302   29.0761 C.ar    1  UNL1        0.1492
      4 C         -25.5756   -1.5654   29.9363 C.ar    1  UNL1        0.0386
      5 C         -26.7354   -2.3004   30.2173 C.ar    1  UNL1        0.0146
      6 C         -27.9184   -1.9537   29.7629 C.ar    1  UNL1        0.0587
      7 CL        -27.1463    1.2916   27.6407 Cl      1  UNL1       -0.0791
      8 CL        -29.2675   -2.8957   30.2160 Cl      1  UNL1       -0.0822
      9 O         -24.6332    0.3238   28.7811 O.3     1  UNL1       -0.4706
     10 C         -24.6014    1.3237   28.0288 C.3     1  UNL1        0.2525
@<TRIPOS>BOND
     1     2     7    1
     2     6     8    1
     3     3     9    1
     4     9    10    1
     5     1     2   ar
     6     2     3   ar
     7     3     4   ar
     8     4     5   ar
     9     5     6   ar
    10     6     1   ar
