@<TRIPOS>MOLECULE
No_3480-gen_results/8p0m/2024-11-26-14-13-15/
 35 38 0 0 0
SMALL
GASTEIGER

@<TRIPOS>ATOM
      1 O         -28.1229   -1.3353   28.4874 O.2     1  UNL1       -0.2742
      2 C         -27.0637   -0.8242   28.8687 C.2     1  UNL1        0.2378
      3 N         -25.9773   -1.1378   28.8137 N.am    1  UNL1       -0.2544
      4 C         -25.5373   -2.3638   28.4229 C.3     1  UNL1        0.1240
      5 C         -27.1628    0.7818   29.0832 C.3     1  UNL1        0.1760
      6 C         -26.2847    1.3220   29.5397 C.3     1  UNL1        0.0454
      7 C         -24.8809    0.8438   29.6037 C.ar    1  UNL1       -0.0077
      8 C         -24.6840   -0.4737   29.2899 C.ar    1  UNL1        0.0502
      9 C         -23.4425   -1.0591   29.3370 C.ar    1  UNL1        0.0146
     10 C         -22.2882   -0.2260   29.5833 C.ar    1  UNL1        0.0013
     11 C         -22.4698    1.0896   29.8696 C.ar    1  UNL1       -0.0002
     12 C         -23.7247    1.6099   29.9790 C.ar    1  UNL1       -0.0030
     13 C         -28.5650    1.3038   29.0227 C.3     1  UNL1        0.4059
     14 F         -28.5928    2.3082   28.8496 F       1  UNL1       -0.1695
     15 F         -29.1935    0.6634   27.9350 F       1  UNL1       -0.1695
     16 F         -29.3606    0.9593   30.0715 F       1  UNL1       -0.1695
     17 C         -25.2647   -3.3146   29.5479 C.2     1  UNL1       -0.0079
     18 C         -25.0572   -4.6665   29.0992 C.2     1  UNL1        0.0152
     19 C         -24.3154   -4.9047   28.0861 C.3     1  UNL1        0.2065
     20 C         -25.8740   -5.7240   29.6405 C.3     1  UNL1        0.1670
     21 O         -23.8759   -6.1949   27.9016 O.3     1  UNL1       -0.2155
     22 O         -26.7354   -5.2517   30.5673 O.3     1  UNL1       -0.3473
     23 C         -28.1309   -5.2913   30.2916 C.3     1  UNL1        0.1392
     24 C         -28.6407   -3.9689   29.7315 C.2     1  UNL1        0.0133
     25 C         -30.1225   -3.8533   29.9744 C.2     1  UNL1        0.0267
     26 N         -30.5543   -2.6967   30.3611 N.pl3   1  UNL1       -0.3107
     27 C         -30.1605   -2.0847   31.4346 C.3     1  UNL1        0.0905
     28 C         -31.8909   -2.3125   29.9608 C.3     1  UNL1        0.0905
     29 C         -32.3427   -0.9968   30.2845 C.3     1  UNL1        0.0215
     30 C         -30.6449   -0.8402   31.9882 C.3     1  UNL1        0.0215
     31 C         -31.8303   -0.3920   31.4638 C.3     1  UNL1        0.0035
     32 C         -30.4724   -5.0771   30.8295 C.3     1  UNL1        0.0602
     33 C         -29.1876   -5.7846   31.0700 C.3     1  UNL1        0.0442
     34 C         -31.6797   -5.4166   31.2632 C.2     1  UNL1       -0.0207
     35 C         -31.8183   -6.5366   31.7499 C.2     1  UNL1       -0.0045
@<TRIPOS>BOND
     1     1     2    2
     2     2     3   am
     3     3     4    1
     4     2     5    1
     5     5     6    1
     6     3     8    1
     7     5    13    1
     8    13    14    1
     9    13    15    1
    10    13    16    1
    11     4    17    1
    12    17    18    2
    13    18    19    1
    14    18    20    1
    15    19    21    1
    16    20    22    1
    17    22    23    1
    18    23    24    1
    19    24    25    2
    20    25    26    1
    21    26    27    1
    22    26    28    1
    23    29    31    1
    24    30    31    1
    25    25    32    1
    26    23    33    1
    27    32    33    1
    28    32    34    1
    29    34    35    2
    30     6     7    1
    31    27    30    1
    32    29    28    1
    33     7     8   ar
    34     8     9   ar
    35     9    10   ar
    36    10    11   ar
    37    11    12   ar
    38    12     7   ar
