@<TRIPOS>MOLECULE
No_3481-gen_results/8p0m/2024-11-26-14-13-15/
 14 15 0 0 0
SMALL
GASTEIGER

@<TRIPOS>ATOM
      1 C         -28.0162   -0.8135   28.8779 C.ar    1  UNL1        0.0296
      2 C         -28.4690   -0.7850   29.8287 C.ar    1  UNL1        0.0023
      3 C         -27.0871    0.2903   28.6377 C.ar    1  UNL1        0.1401
      4 C         -26.8317    1.2487   29.5869 C.ar    1  UNL1        0.0296
      5 C         -28.3914    0.0801   31.0065 C.ar    1  UNL1        0.0001
      6 C         -27.4940    1.1521   30.7841 C.ar    1  UNL1        0.0023
      7 F         -26.4106    0.3574   27.4837 F       1  UNL1       -0.2042
      8 C         -29.1048   -0.0510   32.2721 C.ar    1  UNL1        0.0001
      9 C         -29.7630   -0.8792   32.5784 C.ar    1  UNL1        0.0009
     10 C         -30.3713   -1.1833   33.3582 C.ar    1  UNL1        0.0114
     11 C         -30.3655   -0.2047   34.5580 C.ar    1  UNL1        0.0577
     12 C         -29.5933    0.8559   34.3941 C.ar    1  UNL1        0.0114
     13 C         -28.8926    0.9984   33.2536 C.ar    1  UNL1        0.0009
     14 CL        -31.3117   -0.4898   35.9901 Cl      1  UNL1       -0.0822
@<TRIPOS>BOND
     1     3     7    1
     2     5     8    1
     3    11    14    1
     4     8     9   ar
     5     9    10   ar
     6    10    11   ar
     7    11    12   ar
     8    12    13   ar
     9    13     8   ar
    10     1     2   ar
    11     2     5   ar
    12     5     6   ar
    13     6     4   ar
    14     4     3   ar
    15     3     1   ar
