@<TRIPOS>MOLECULE
No_3482-gen_results/8p0m/2024-11-26-14-13-15/
 14 14 0 0 0
SMALL
GASTEIGER

@<TRIPOS>ATOM
      1 C         -28.0162   -0.8135   28.8779 C.ar    1  UNL1        0.0375
      2 C         -28.4690   -0.7850   29.8287 C.ar    1  UNL1        0.1393
      3 C         -27.0871    0.2903   28.6377 C.ar    1  UNL1        0.0114
      4 C         -26.0238    0.3644   29.2526 C.ar    1  UNL1        0.0428
      5 C         -27.5370   -0.6187   31.0883 C.ar    1  UNL1        0.0375
      6 C         -26.3844    0.1834   30.8012 C.ar    1  UNL1        0.0114
      7 O         -29.5100   -1.6195   30.2653 O.3     1  UNL1       -0.4656
      8 C         -30.7241   -1.2384   29.8510 C.3     1  UNL1        0.2911
      9 C         -31.5691   -2.3374   29.6640 C.2     1  UNL1        0.2859
     10 O         -32.1555   -2.4189   28.5623 O.2     1  UNL1       -0.2693
     11 N         -31.7348   -3.3727   30.5340 N.am    1  UNL1       -0.2004
     12 C         -32.5235   -4.5272   30.3035 C.3     1  UNL1        0.1386
     13 C         -24.7310    0.1503   29.1267 C.1     1  UNL1       -0.0512
     14 C         -23.7331    0.5324   29.2240 C.1     1  UNL1       -0.0092
@<TRIPOS>BOND
     1     2     7    1
     2     7     8    1
     3     8     9    1
     4     9    10    2
     5     9    11   am
     6    11    12    1
     7     4    13    1
     8    13    14    3
     9     1     2   ar
    10     2     5   ar
    11     5     6   ar
    12     6     4   ar
    13     4     3   ar
    14     3     1   ar
