@<TRIPOS>MOLECULE
No_3483-gen_results/8p0m/2024-11-26-14-13-15/
 20 21 0 0 0
SMALL
GASTEIGER

@<TRIPOS>ATOM
      1 C         -28.0162   -0.8135   28.8779 C.2     1  UNL1        0.0116
      2 C         -28.4690   -0.7850   29.8287 C.2     1  UNL1        0.2709
      3 C         -28.1960    0.3478   28.0550 C.3     1  UNL1        0.0266
      4 C         -27.4421    0.5100   26.7946 C.3     1  UNL1        0.0045
      5 C         -26.1689   -0.0794   26.6787 C.3     1  UNL1        0.0007
      6 C         -25.7312   -0.9607   27.6875 C.3     1  UNL1        0.0045
      7 C         -26.5043   -1.2222   28.7582 C.3     1  UNL1        0.0267
      8 F         -29.6345   -0.4589   29.9464 F       1  UNL1       -0.1727
      9 F         -28.1858   -1.7348   30.8265 F       1  UNL1       -0.1727
     10 C         -27.7694    1.4580   25.7309 C.3     1  UNL1        0.0082
     11 C         -27.4447    2.7288   26.0090 C.3     1  UNL1        0.0003
     12 C         -29.2444    1.4465   25.4147 C.3     1  UNL1        0.0952
     13 C         -27.0912    0.9523   24.4229 C.3     1  UNL1        0.0003
     14 C         -29.9039    2.4847   25.3956 C.3     1  UNL1        0.0085
     15 C         -28.0818    3.9724   25.8663 C.3     1  UNL1        0.0000
     16 C         -29.4111    3.8425   25.5509 C.3     1  UNL1        0.0003
     17 C         -29.9113    0.1519   25.2761 C.3     1  UNL1        0.3975
     18 F         -30.6376   -0.1348   26.2379 F       1  UNL1       -0.1701
     19 F         -28.9580   -0.8520   25.2402 F       1  UNL1       -0.1701
     20 F         -30.6326    0.2087   24.1498 F       1  UNL1       -0.1701
@<TRIPOS>BOND
     1     1     2    2
     2     1     3    1
     3     3     4    1
     4     4     5    1
     5     5     6    1
     6     1     7    1
     7     6     7    1
     8     2     8    1
     9     2     9    1
    10     4    10    1
    11    10    11    1
    12    10    12    1
    13    10    13    1
    14    14    16    1
    15    15    16    1
    16    12    17    1
    17    17    18    1
    18    17    19    1
    19    17    20    1
    20    11    15    1
    21    14    12    1
