@<TRIPOS>MOLECULE
No_3484-gen_results/8p0m/2024-11-26-14-13-15/
 35 37 0 0 0
SMALL
GASTEIGER

@<TRIPOS>ATOM
      1 C         -28.0162   -0.8135   28.8779 C.3     1  UNL1        0.1117
      2 C         -27.0636   -0.1190   28.6079 C.ar    1  UNL1       -0.0087
      3 C         -27.0010    0.6913   27.4910 C.ar    1  UNL1        0.0503
      4 C         -25.8548    1.4825   27.0830 C.ar    1  UNL1        0.0091
      5 C         -24.9008    1.3894   27.5922 C.ar    1  UNL1        0.0595
      6 C         -24.6783    0.5764   28.8299 C.ar    1  UNL1        0.0045
      7 C         -25.7704   -0.2051   29.2800 C.ar    1  UNL1       -0.0035
      8 C         -28.6429   -0.4461   30.2385 C.2     1  UNL1        0.2301
      9 O         -28.5883    0.3976   30.8156 O.2     1  UNL1       -0.2745
     10 N         -29.0739   -1.7063   30.8824 N.am    1  UNL1       -0.2793
     11 C         -23.5769    2.1924   27.2913 C.2     1  UNL1        0.2968
     12 N         -23.4926    2.6464   26.0289 N.2     1  UNL1       -0.1025
     13 O         -22.5248    2.2176   27.9736 O.2     1  UNL1       -0.2636
     14 C         -29.7048   -1.6267   32.2454 C.3     1  UNL1        0.0934
     15 C         -29.0050   -3.0061   30.3823 C.3     1  UNL1        0.0934
     16 C         -29.6966   -3.9193   30.7685 C.3     1  UNL1        0.0216
     17 C         -30.0145   -4.1120   32.0953 C.3     1  UNL1        0.0035
     18 C         -30.4269   -2.7872   32.7340 C.3     1  UNL1        0.0216
     19 C         -28.2454    0.7767   26.6438 C.2     1  UNL1        0.2488
     20 O         -29.2439    1.1943   27.0141 O.2     1  UNL1       -0.2699
     21 N         -28.0605    0.6673   25.3162 N.am    1  UNL1       -0.2743
     22 C         -26.9410    0.3129   24.6445 C.3     1  UNL1        0.1152
     23 C         -29.2315    0.6531   24.4524 C.3     1  UNL1        0.0939
     24 C         -29.9072   -0.4821   24.2230 C.3     1  UNL1        0.0243
     25 C         -30.8606   -0.8332   25.0849 C.3     1  UNL1        0.0352
     26 C         -31.5578   -2.1315   24.9130 C.3     1  UNL1        0.0917
     27 N         -32.4396   -2.4608   25.8346 N.3     1  UNL1       -0.2008
     28 C         -32.6033   -1.7216   26.9212 C.3     1  UNL1        0.1640
     29 N         -32.0168   -0.5979   27.1380 N.3     1  UNL1       -0.2540
     30 C         -31.1711   -0.1727   26.2767 C.3     1  UNL1        0.0751
     31 C         -32.3108    0.1461   28.4158 C.3     1  UNL1        0.0999
     32 C         -32.5717    1.4805   28.3758 C.2     1  UNL1       -0.0088
     33 C         -33.4826    1.9876   27.6729 C.2     1  UNL1       -0.0032
     34 C         -33.6596    3.0971   27.5244 C.2     1  UNL1       -0.0003
     35 C         -32.8682    4.1495   28.1982 C.2     1  UNL1       -0.0000
@<TRIPOS>BOND
     1     1     2    1
     2     1     8    1
     3     8     9    2
     4     8    10   am
     5     5    11    1
     6    11    12    2
     7    11    13    1
     8    10    14    1
     9    10    15    1
    10    16    17    1
    11     3    19    1
    12    19    20    2
    13    19    21   am
    14    21    22    1
    15    21    23    1
    16    23    24    1
    17    25    26    1
    18    26    27    1
    19    28    29    1
    20    25    30    1
    21    29    30    1
    22    29    31    1
    23    31    32    1
    24    32    33    2
    25    33    34    1
    26    34    35    2
    27    24    25    1
    28    14    18    1
    29    18    17    1
    30    16    15    1
    31    28    27    1
    32     2     3   ar
    33     3     4   ar
    34     4     5   ar
    35     5     6   ar
    36     6     7   ar
    37     7     2   ar
