@<TRIPOS>MOLECULE
No_3485-gen_results/8p0m/2024-11-26-14-13-15/
 35 38 0 0 0
SMALL
GASTEIGER

@<TRIPOS>ATOM
      1 C         -28.0162   -0.8135   28.8779 C.ar    1  UNL1        0.0045
      2 C         -27.0636   -0.1190   28.6079 C.ar    1  UNL1        0.0001
      3 C         -25.7647   -0.3897   29.0360 C.ar    1  UNL1        0.0001
      4 C         -24.5516    0.4058   28.7646 C.ar    1  UNL1        0.0029
      5 C         -23.2300    0.1178   29.2575 C.ar    1  UNL1        0.0001
      6 C         -23.0942   -1.1309   29.8730 C.ar    1  UNL1        0.0000
      7 C         -27.7981   -1.9341   29.8560 C.ar    1  UNL1        0.0536
      8 C         -26.5420   -2.3269   30.2580 C.ar    1  UNL1        0.0045
      9 C         -25.4514   -1.5516   29.9079 C.ar    1  UNL1        0.0001
     10 C         -24.1562   -1.9097   30.2809 C.ar    1  UNL1        0.0000
     11 C         -24.6450    1.6582   27.9464 C.ar    1  UNL1        0.0340
     12 C         -24.8958    2.7559   28.5615 C.ar    1  UNL1        0.1392
     13 C         -25.1728    3.9344   27.8440 C.ar    1  UNL1        0.0369
     14 C         -24.4838    1.5571   26.5889 C.ar    1  UNL1        0.0030
     15 C         -24.6321    2.6940   25.7850 C.ar    1  UNL1        0.0002
     16 C         -24.8902    3.9231   26.4317 C.ar    1  UNL1        0.0031
     17 O         -25.0758    2.9107   29.9068 O.3     1  UNL1       -0.4656
     18 C         -25.9144    3.7559   30.5334 C.3     1  UNL1        0.2911
     19 C         -26.7001    3.1529   31.5348 C.2     1  UNL1        0.2862
     20 O         -27.8126    3.2334   31.4897 O.2     1  UNL1       -0.2693
     21 N         -26.0243    2.4631   32.5386 N.am    1  UNL1       -0.1978
     22 C         -26.6712    1.6584   33.5122 C.3     1  UNL1        0.1371
     23 C         -26.2591    0.2928   33.3606 C.2     1  UNL1       -0.0270
     24 C         -25.1208   -0.0010   33.1973 C.2     1  UNL1       -0.0326
     25 C         -24.6081   -1.3604   33.3063 C.3     1  UNL1        0.0301
     26 C         -29.0242   -2.7238   30.2717 C.2     1  UNL1        0.2490
     27 N         -30.1501   -2.1246   30.5203 N.am    1  UNL1       -0.2761
     28 C         -30.2365   -1.0039   30.9141 C.3     1  UNL1        0.0937
     29 C         -31.6079   -0.2869   30.8481 C.3     1  UNL1        0.0216
     30 O         -28.8224   -3.9533   30.4522 O.2     1  UNL1       -0.2699
     31 C         -31.3236   -2.9116   30.2961 C.3     1  UNL1        0.0937
     32 C         -32.5253   -2.2291   29.9980 C.3     1  UNL1        0.0216
     33 C         -32.6844   -0.9654   30.5383 C.3     1  UNL1        0.0035
     34 C         -27.3289   -0.6798   33.4754 C.3     1  UNL1        0.0234
     35 C         -28.4195   -0.5303   34.3262 C.3     1  UNL1        0.0047
@<TRIPOS>BOND
     1     4    11    1
     2    12    17    1
     3    17    18    1
     4    18    19    1
     5    19    20    2
     6    19    21   am
     7    21    22    1
     8    22    23    1
     9    23    24    2
    10    24    25    1
    11     7    26    1
    12    26    27   am
    13    27    28    1
    14    26    30    2
    15    27    31    1
    16    29    33    1
    17    32    33    1
    18    23    34    1
    19    34    35    1
    20    28    29    1
    21    32    31    1
    22     1     2   ar
    23     2     3   ar
    24     9     8   ar
    25     8     7   ar
    26     7     1   ar
    27    11    12   ar
    28    12    13   ar
    29    13    16   ar
    30    16    15   ar
    31    15    14   ar
    32    14    11   ar
    33     3     4   ar
    34     4     5   ar
    35     5     6   ar
    36     6    10   ar
    37    10     9   ar
    38     9     3   ar
