@<TRIPOS>MOLECULE
No_3487-gen_results/8p0m/2024-11-26-14-13-15/
 15 16 0 0 0
SMALL
GASTEIGER

@<TRIPOS>ATOM
      1 C         -28.0162   -0.8135   28.8779 C.ar    1  UNL1       -0.0071
      2 C         -28.4690   -0.7850   29.8287 C.ar    1  UNL1       -0.0031
      3 C         -26.5042   -0.7777   28.8766 C.3     1  UNL1        0.1064
      4 CL        -25.6377   -1.9791   29.5560 Cl      1  UNL1       -0.1098
      5 C         -29.8415   -0.3731   29.9503 C.ar    1  UNL1       -0.0003
      6 C         -30.4912   -0.1410   28.7156 C.ar    1  UNL1       -0.0000
      7 C         -29.7330   -0.0541   27.5903 C.ar    1  UNL1       -0.0003
      8 C         -28.4142   -0.3066   27.6408 C.ar    1  UNL1       -0.0031
      9 C         -25.5898    0.1267   28.1659 C.3     1  UNL1        0.0470
     10 C         -24.2771    0.1844   28.4270 C.ar    1  UNL1       -0.0206
     11 C         -23.4655    1.2466   27.8426 C.ar    1  UNL1       -0.0042
     12 C         -22.1228    1.5165   28.2313 C.ar    1  UNL1       -0.0003
     13 C         -21.4899    0.5410   28.9661 C.ar    1  UNL1       -0.0000
     14 C         -22.2039   -0.6038   29.4608 C.ar    1  UNL1       -0.0003
     15 C         -23.5658   -0.6970   29.2106 C.ar    1  UNL1       -0.0042
@<TRIPOS>BOND
     1     1     3    1
     2     3     4    1
     3     3     9    1
     4     9    10    1
     5     1     2   ar
     6     2     5   ar
     7     5     6   ar
     8     6     7   ar
     9     7     8   ar
    10     8     1   ar
    11    10    11   ar
    12    11    12   ar
    13    12    13   ar
    14    13    14   ar
    15    14    15   ar
    16    15    10   ar
