@<TRIPOS>MOLECULE
No_3488-gen_results/8p0m/2024-11-26-14-13-15/
 8 7 0 0 0
SMALL
GASTEIGER

@<TRIPOS>ATOM
      1 C         -28.0162   -0.8135   28.8779 C.1     1  UNL1       -0.0509
      2 C         -28.4690   -0.7850   29.8287 C.1     1  UNL1       -0.0092
      3 C         -27.2166   -0.0832   27.9639 C.2     1  UNL1        0.0456
      4 C         -27.0905    1.2695   28.4177 C.2     1  UNL1       -0.0176
      5 C         -27.6655    1.5758   29.6941 C.3     1  UNL1        0.0227
      6 C         -27.5287    2.9035   30.2543 C.3     1  UNL1        0.0047
      7 C         -28.3093    0.5613   30.4268 C.3     1  UNL1        0.0044
      8 C         -28.9217    0.8242   31.7585 C.3     1  UNL1        0.0003
@<TRIPOS>BOND
     1     1     2    3
     2     1     3    1
     3     3     4    2
     4     4     5    1
     5     5     6    1
     6     5     7    1
     7     7     8    1
