@<TRIPOS>MOLECULE
No_3489-gen_results/8p0m/2024-11-26-14-13-15/
 28 30 0 0 0
SMALL
GASTEIGER

@<TRIPOS>ATOM
      1 C         -28.0162   -0.8135   28.8779 C.ar    1  UNL1       -0.0040
      2 C         -28.4690   -0.7850   29.8287 C.ar    1  UNL1       -0.0003
      3 C         -28.1816    0.4277   28.1134 C.ar    1  UNL1       -0.0190
      4 C         -28.9841    1.4155   28.5154 C.ar    1  UNL1       -0.0040
      5 C         -29.3802    0.1384   30.4612 C.ar    1  UNL1       -0.0000
      6 C         -29.9932   -0.0234   31.7370 C.ar    1  UNL1        0.0000
      7 C         -29.5370    1.2619   29.7119 C.ar    1  UNL1       -0.0003
      8 C         -27.4269    0.4618   26.7350 C.3     1  UNL1        0.0377
      9 C         -25.9834    0.2870   26.7795 C.ar    1  UNL1       -0.0190
     10 C         -25.2194    1.0373   25.9252 C.ar    1  UNL1       -0.0037
     11 C         -23.8258    1.1007   26.0403 C.ar    1  UNL1        0.0077
     12 C         -23.2048    0.6837   27.2628 C.ar    1  UNL1        0.0975
     13 C         -21.8713    0.9411   27.6461 C.2     1  UNL1        0.4766
     14 C         -24.0601    0.1461   28.2962 C.ar    1  UNL1        0.0077
     15 C         -25.4060    0.5023   28.2144 C.ar    1  UNL1       -0.0037
     16 N         -21.2617    2.0980   27.3700 N.pl3   1  UNL1        0.2047
     17 N         -21.3239    0.1997   28.6201 N.pl3   1  UNL1        0.2047
     18 C         -27.9810   -0.5177   25.7204 C.3     1  UNL1        0.0081
     19 C         -27.7276    1.9035   26.1431 C.3     1  UNL1        0.0088
     20 C         -27.7109   -0.1963   24.4889 C.3     1  UNL1        0.0007
     21 C         -30.1307   -1.0715   32.2932 C.ar    1  UNL1        0.0000
     22 C         -30.8426   -1.2125   33.5349 C.ar    1  UNL1        0.0000
     23 C         -31.3603   -0.0911   34.1552 C.ar    1  UNL1        0.0015
     24 C         -31.1998    1.1026   33.5351 C.ar    1  UNL1        0.0187
     25 C         -30.5470    1.2081   32.3362 C.ar    1  UNL1        0.0015
     26 C         -31.7511    2.3504   34.1528 C.2     1  UNL1        0.0932
     27 N         -32.0050    3.3031   33.5969 N.2     1  UNL1       -0.2668
     28 C         -32.4675    4.4773   34.1929 C.3     1  UNL1        0.1517
@<TRIPOS>BOND
     1     5     6    1
     2     3     8    1
     3     8     9    1
     4    12    13    1
     5    13    16    1
     6    13    17    2
     7     8    18    1
     8     8    19    1
     9    18    20    1
    10    24    26    1
    11    26    27    2
    12    27    28    1
    13     9    10   ar
    14    10    11   ar
    15    11    12   ar
    16    12    14   ar
    17    14    15   ar
    18    15     9   ar
    19     6    21   ar
    20    21    22   ar
    21    22    23   ar
    22    23    24   ar
    23    24    25   ar
    24    25     6   ar
    25     1     2   ar
    26     2     5   ar
    27     5     7   ar
    28     7     4   ar
    29     4     3   ar
    30     3     1   ar
