@<TRIPOS>MOLECULE
No_349-gen_results/8p0m/2024-11-26-14-13-15/
 15 17 0 0 0
SMALL
GASTEIGER

@<TRIPOS>ATOM
      1 C         -28.0162   -0.8135   28.8779 C.ar    1  UNL1        0.0179
      2 C         -28.4690   -0.7850   29.8287 C.ar    1  UNL1        0.0845
      3 C         -26.5041   -0.7777   28.8766 C.ar    1  UNL1        0.0015
      4 C         -25.8103   -0.8531   30.1028 C.ar    1  UNL1        0.0001
      5 C         -27.9906   -0.8916   31.2257 C.ar    1  UNL1        0.0192
      6 C         -26.6042   -0.8676   31.2652 C.ar    1  UNL1        0.0015
      7 N         -29.9765   -0.8288   29.8497 N.ar    1  UNL1       -0.2079
      8 C         -30.5795   -0.1232   28.9820 C.ar    1  UNL1        0.2791
      9 C         -30.0138    0.7594   28.2913 C.ar    1  UNL1        0.0579
     10 C         -30.3739    1.5433   27.7623 C.ar    1  UNL1        0.0048
     11 C         -29.6360    2.5795   26.9680 C.ar    1  UNL1        0.0002
     12 C         -28.2531    2.3549   26.7928 C.ar    1  UNL1        0.0000
     13 C         -27.7524    1.2452   27.3465 C.ar    1  UNL1        0.0002
     14 C         -28.5379    0.4457   28.0848 C.ar    1  UNL1        0.0061
     15 O         -31.7915   -0.5288   28.8688 O.2     1  UNL1       -0.2652
@<TRIPOS>BOND
     1     2     7   ar
     2     7     8   ar
     3     8     9   ar
     4     1    14   ar
     5     8    15    2
     6     9    10   ar
     7    10    11   ar
     8    11    12   ar
     9    12    13   ar
    10    13    14   ar
    11    14     9   ar
    12     1     2   ar
    13     2     5   ar
    14     5     6   ar
    15     6     4   ar
    16     4     3   ar
    17     3     1   ar
