@<TRIPOS>MOLECULE
No_3490-gen_results/8p0m/2024-11-26-14-13-15/
 20 21 0 0 0
SMALL
GASTEIGER

@<TRIPOS>ATOM
      1 O         -28.1229   -1.3353   28.4874 O.2     1  UNL1       -0.2696
      2 C         -27.4806   -0.4044   28.7094 C.2     1  UNL1        0.2528
      3 C         -26.3804   -0.0867   27.9394 C.ar    1  UNL1        0.0539
      4 N         -27.6665    0.4468   29.8988 N.am    1  UNL1       -0.2533
      5 C         -26.4086    0.8567   26.8802 C.ar    1  UNL1        0.0045
      6 C         -25.0824   -0.6970   28.1699 C.ar    1  UNL1        0.0045
      7 C         -25.2842    1.0488   26.0470 C.ar    1  UNL1        0.0001
      8 C         -23.9159   -0.3440   27.4444 C.ar    1  UNL1        0.0001
      9 C         -24.0618    0.5289   26.3707 C.ar    1  UNL1        0.0000
     10 C         -28.7724    0.0990   30.7925 C.3     1  UNL1        0.1203
     11 C         -26.8467    1.5200   30.2210 C.ar    1  UNL1        0.0572
     12 C         -26.1382    1.4748   31.0766 C.ar    1  UNL1        0.0151
     13 C         -25.0009    1.7956   31.3446 C.ar    1  UNL1        0.0046
     14 C         -24.1133    2.3365   30.2691 C.ar    1  UNL1        0.0421
     15 C         -24.8700    2.7371   29.1289 C.ar    1  UNL1        0.1968
     16 C         -26.2095    2.3560   29.0399 C.ar    1  UNL1        0.0523
     17 O         -24.2239    3.4100   28.2049 O.3     1  UNL1       -0.2865
     18 C         -27.0532    3.7967   29.2640 C.2     1  UNL1       -0.0001
     19 C         -26.8943    4.5177   30.1164 C.2     1  UNL1       -0.0256
     20 C         -27.6153    5.7610   30.2290 C.3     1  UNL1        0.0307
@<TRIPOS>BOND
     1     1     2    2
     2     2     3    1
     3     2     4   am
     4     4    10    1
     5     4    11    1
     6    15    17    1
     7    16    18    1
     8    18    19    2
     9    19    20    1
    10    11    12   ar
    11    12    13   ar
    12    13    14   ar
    13    14    15   ar
    14    15    16   ar
    15    16    11   ar
    16     3     5   ar
    17     5     7   ar
    18     7     9   ar
    19     9     8   ar
    20     8     6   ar
    21     6     3   ar
