@<TRIPOS>MOLECULE
No_3491-gen_results/8p0m/2024-11-26-14-13-15/
 11 12 0 0 0
SMALL
GASTEIGER

@<TRIPOS>ATOM
      1 O         -28.1229   -1.3353   28.4874 O.3     1  UNL1       -0.2866
      2 C         -27.0637   -0.8242   28.8687 C.ar    1  UNL1        0.1957
      3 C         -26.0496   -0.9362   28.7578 C.ar    1  UNL1        0.0420
      4 C         -24.8633   -0.1667   29.1259 C.ar    1  UNL1        0.0032
      5 C         -25.1916    0.9807   29.8736 C.ar    1  UNL1        0.0002
      6 C         -26.5062    1.2129   30.1128 C.ar    1  UNL1        0.0033
      7 C         -27.4860    0.4548   29.7297 C.ar    1  UNL1        0.0420
      8 C         -23.4596   -0.3952   28.9148 C.ar    1  UNL1        0.0001
      9 C         -22.5473    0.6463   28.7226 C.ar    1  UNL1        0.0000
     10 C         -23.0390    1.9080   29.2727 C.ar    1  UNL1        0.0000
     11 C         -24.1902    2.0415   29.9525 C.ar    1  UNL1        0.0000
@<TRIPOS>BOND
     1     1     2    1
     2     2     3   ar
     3     3     4   ar
     4     5     6   ar
     5     6     7   ar
     6     7     2   ar
     7     4     5   ar
     8     5    11   ar
     9    11    10   ar
    10    10     9   ar
    11     9     8   ar
    12     8     4   ar
