@<TRIPOS>MOLECULE
No_3492-gen_results/8p0m/2024-11-26-14-13-15/
 9 9 0 0 0
SMALL
GASTEIGER

@<TRIPOS>ATOM
      1 C         -28.0162   -0.8135   28.8779 C.ar    1  UNL1        0.0015
      2 C         -27.0636   -0.1189   28.6079 C.ar    1  UNL1        0.0187
      3 C         -25.7923   -0.4302   29.0761 C.ar    1  UNL1        0.0015
      4 C         -25.5756   -1.5654   29.9363 C.ar    1  UNL1        0.0000
      5 C         -26.7354   -2.3004   30.2173 C.ar    1  UNL1        0.0000
      6 C         -27.9184   -1.9537   29.7629 C.ar    1  UNL1        0.0000
      7 C         -26.8968    1.1016   27.7052 C.2     1  UNL1        0.0932
      8 N         -25.9523    1.5257   27.2007 N.2     1  UNL1       -0.2668
      9 C         -24.6356    1.2158   27.7929 C.3     1  UNL1        0.1517
@<TRIPOS>BOND
     1     2     7    1
     2     7     8    2
     3     8     9    1
     4     1     2   ar
     5     2     3   ar
     6     3     4   ar
     7     4     5   ar
     8     5     6   ar
     9     6     1   ar
