@<TRIPOS>MOLECULE
No_3493-gen_results/8p0m/2024-11-26-14-13-15/
 10 10 0 0 0
SMALL
GASTEIGER

@<TRIPOS>ATOM
      1 C         -28.0162   -0.8135   28.8779 C.ar    1  UNL1        0.0027
      2 C         -28.4690   -0.7850   29.8287 C.ar    1  UNL1        0.0288
      3 C         -26.5042   -0.7777   28.8766 C.ar    1  UNL1        0.0001
      4 C         -25.8103   -0.8531   30.1028 C.ar    1  UNL1        0.0000
      5 C         -27.9906   -0.8916   31.2257 C.ar    1  UNL1        0.0027
      6 C         -26.6042   -0.8676   31.2652 C.ar    1  UNL1        0.0001
      7 P         -30.3684   -0.8305   29.8661 P.3     1  UNL1        0.1395
      8 O         -30.8394    0.1304   30.8202 O.3     1  UNL1       -0.3542
      9 O         -30.6571   -0.2118   28.4837 O.2     1  UNL1       -0.4557
     10 O         -30.8547   -2.1876   30.0297 O.3     1  UNL1       -0.3542
@<TRIPOS>BOND
     1     2     7    1
     2     7     8    1
     3     7     9    2
     4     7    10    1
     5     1     2   ar
     6     2     5   ar
     7     5     6   ar
     8     6     4   ar
     9     4     3   ar
    10     3     1   ar
