@<TRIPOS>MOLECULE
No_3494-gen_results/8p0m/2024-11-26-14-13-15/
 8 7 0 0 0
SMALL
GASTEIGER

@<TRIPOS>ATOM
      1 F         -28.0727   -1.2542   28.5316 F       1  UNL1       -0.1670
      2 C         -27.3591   -0.3792   28.7224 C.3     1  UNL1        0.4292
      3 F         -26.3180   -0.6608   29.1159 F       1  UNL1       -0.1670
      4 C         -27.2545    0.4794   27.4896 C.3     1  UNL1        0.2681
      5 F         -28.0809    0.5777   29.4788 F       1  UNL1       -0.1670
      6 C         -27.4089    1.7598   27.4875 C.2     1  UNL1        0.0149
      7 O         -26.6147   -0.1868   26.4138 O.3     1  UNL1       -0.2091
      8 C         -28.2632    2.4184   28.2161 C.2     1  UNL1       -0.0020
@<TRIPOS>BOND
     1     1     2    1
     2     2     3    1
     3     2     4    1
     4     2     5    1
     5     4     6    1
     6     4     7    1
     7     6     8    2
