@<TRIPOS>MOLECULE
No_3496-gen_results/8p0m/2024-11-26-14-13-15/
 13 14 0 0 0
SMALL
GASTEIGER

@<TRIPOS>ATOM
      1 C         -28.0162   -0.8135   28.8779 C.ar    1  UNL1        0.0988
      2 C         -27.0636   -0.1189   28.6079 C.ar    1  UNL1        0.0192
      3 C         -25.7923   -0.4302   29.0761 C.ar    1  UNL1        0.0033
      4 C         -24.5456    0.3494   28.8225 C.ar    1  UNL1        0.0081
      5 C         -24.6586    1.4196   27.8878 C.ar    1  UNL1        0.0975
      6 C         -25.9471    1.6811   27.3792 C.ar    1  UNL1        0.0080
      7 C         -27.0439    0.9739   27.6871 C.ar    1  UNL1        0.0018
      8 N         -27.9517   -1.7518   29.9375 N.ar    1  UNL1       -0.2423
      9 C         -26.7159   -2.1983   30.3723 C.ar    1  UNL1        0.0989
     10 C         -25.5700   -1.4970   30.0389 C.ar    1  UNL1        0.0207
     11 C         -23.4588    2.1920   27.5546 C.2     1  UNL1        0.4766
     12 N         -22.4154    2.0892   28.3233 N.pl3   1  UNL1        0.2047
     13 N         -23.4962    2.9623   26.4484 N.pl3   1  UNL1        0.2047
@<TRIPOS>BOND
     1     5    11    1
     2    11    12    2
     3    11    13    1
     4     3     4   ar
     5     4     5   ar
     6     5     6   ar
     7     6     7   ar
     8     7     2   ar
     9     1     2   ar
    10     2     3   ar
    11     3    10   ar
    12    10     9   ar
    13     9     8   ar
    14     8     1   ar
