@<TRIPOS>MOLECULE
No_3497-gen_results/8p0m/2024-11-26-14-13-15/
 12 12 0 0 0
SMALL
GASTEIGER

@<TRIPOS>ATOM
      1 C         -28.0162   -0.8135   28.8779 C.ar    1  UNL1        0.0054
      2 C         -27.0636   -0.1190   28.6079 C.ar    1  UNL1        0.0554
      3 C         -26.9716    0.7139   27.5060 C.ar    1  UNL1        0.0054
      4 C         -28.1053    0.7744   26.6421 C.ar    1  UNL1        0.0115
      5 C         -29.2008    0.1044   27.0527 C.ar    1  UNL1        0.0577
      6 C         -29.2096   -0.6029   28.1853 C.ar    1  UNL1        0.0115
      7 CL        -30.5720    0.2423   26.0548 Cl      1  UNL1       -0.0822
      8 C         -25.7026   -0.2359   29.4139 C.2     1  UNL1        0.2690
      9 N         -25.4859   -0.5809   30.4038 N.am    1  UNL1       -0.1741
     10 O         -24.6796    0.4889   28.8937 O.2     1  UNL1       -0.2680
     11 C         -24.2682   -0.6566   31.1931 C.2     1  UNL1        0.0890
     12 C         -23.2794   -0.1142   31.0125 C.2     1  UNL1        0.0193
@<TRIPOS>BOND
     1     5     7    1
     2     2     8    1
     3     8     9   am
     4     8    10    2
     5     9    11    1
     6    11    12    2
     7     1     2   ar
     8     2     3   ar
     9     3     4   ar
    10     4     5   ar
    11     5     6   ar
    12     6     1   ar
