@<TRIPOS>MOLECULE
No_3498-gen_results/8p0m/2024-11-26-14-13-15/
 10 10 0 0 0
SMALL
GASTEIGER

@<TRIPOS>ATOM
      1 C         -28.0162   -0.8135   28.8779 C.ar    1  UNL1        0.0039
      2 C         -28.4690   -0.7850   29.8287 C.ar    1  UNL1       -0.0001
      3 C         -28.1960    0.3478   28.0550 C.ar    1  UNL1        0.0714
      4 C         -29.0191    1.3501   28.3782 C.ar    1  UNL1        0.0039
      5 C         -29.6249    1.2683   29.6012 C.ar    1  UNL1       -0.0001
      6 C         -29.3791    0.1470   30.3923 C.ar    1  UNL1       -0.0000
      7 C         -27.4550    0.3821   26.7102 C.3     1  UNL1        0.4186
      8 F         -28.0764    0.0567   25.6663 F       1  UNL1       -0.1659
      9 F         -26.8921    1.6700   26.4758 F       1  UNL1       -0.1659
     10 F         -26.2628   -0.3262   26.7131 F       1  UNL1       -0.1659
@<TRIPOS>BOND
     1     3     7    1
     2     7     8    1
     3     7     9    1
     4     7    10    1
     5     1     2   ar
     6     2     6   ar
     7     6     5   ar
     8     5     4   ar
     9     4     3   ar
    10     3     1   ar
