@<TRIPOS>MOLECULE
No_3499-gen_results/8p0m/2024-11-26-14-13-15/
 12 12 0 0 0
SMALL
GASTEIGER

@<TRIPOS>ATOM
      1 C         -28.0162   -0.8135   28.8779 C.ar    1  UNL1        0.0378
      2 C         -27.0636   -0.1189   28.6079 C.ar    1  UNL1        0.0145
      3 C         -25.7923   -0.4302   29.0761 C.ar    1  UNL1        0.0579
      4 C         -25.5756   -1.5654   29.9363 C.ar    1  UNL1        0.0145
      5 C         -26.7354   -2.3004   30.2173 C.ar    1  UNL1        0.0378
      6 C         -27.9184   -1.9537   29.7629 C.ar    1  UNL1        0.1394
      7 O         -29.0001   -2.7012   30.1151 O.3     1  UNL1       -0.4637
      8 CL        -24.3499    0.4889   28.7497 Cl      1  UNL1       -0.0822
      9 C         -29.3705   -2.8230   31.4465 C.3     1  UNL1        0.3186
     10 C         -30.7365   -2.7004   31.6213 C.2     1  UNL1        0.4084
     11 O         -31.1411   -2.8379   32.6876 O.co2   1  UNL1       -0.2415
     12 O         -31.3090   -2.0354   30.7493 O.co2   1  UNL1       -0.2415
@<TRIPOS>BOND
     1     6     7    1
     2     3     8    1
     3     7     9    1
     4     9    10    1
     5    10    11   ar
     6    10    12   ar
     7     1     2   ar
     8     2     3   ar
     9     3     4   ar
    10     4     5   ar
    11     5     6   ar
    12     6     1   ar
