@<TRIPOS>MOLECULE
No_35-gen_results/8p0m/2024-11-26-14-13-15/
 22 23 0 0 0
SMALL
GASTEIGER

@<TRIPOS>ATOM
      1 C         -28.0162   -0.8135   28.8779 C.3     1  UNL1        0.1201
      2 C         -27.0636   -0.1189   28.6079 C.ar    1  UNL1       -0.0023
      3 C         -26.9287    1.1713   29.0083 C.ar    1  UNL1       -0.0027
      4 C         -25.7702    2.0341   28.6884 C.ar    1  UNL1        0.0036
      5 C         -24.7141    1.4431   27.9188 C.ar    1  UNL1        0.0714
      6 C         -24.8590    0.0783   27.5836 C.ar    1  UNL1        0.0036
      7 C         -25.9647   -0.6606   27.9164 C.ar    1  UNL1       -0.0027
      8 N         -28.6995   -0.6441   30.0766 N.am    1  UNL1       -0.2752
      9 C         -29.8035   -1.3645   30.5061 C.2     1  UNL1        0.2295
     10 C         -30.3770   -1.0468   31.7411 C.3     1  UNL1        0.0984
     11 O         -30.5835   -1.9343   29.7378 O.2     1  UNL1       -0.2745
     12 C         -23.5391    2.1781   27.5627 C.3     1  UNL1        0.4186
     13 F         -22.6759    1.6597   27.1689 F       1  UNL1       -0.1659
     14 F         -24.0260    3.1386   26.5721 F       1  UNL1       -0.1659
     15 F         -23.1481    2.9889   28.6052 F       1  UNL1       -0.1659
     16 C         -30.0030   -0.1538   32.5807 C.3     1  UNL1        0.0152
     17 C         -28.6470    0.3697   32.2908 C.3     1  UNL1        0.0223
     18 C         -28.0156    0.1628   31.0534 C.3     1  UNL1        0.0938
     19 C         -31.6742   -1.7588   32.0504 C.2     1  UNL1       -0.0220
     20 C         -31.8529   -2.7876   31.8960 C.2     1  UNL1       -0.0302
     21 C         -30.7886   -3.6975   31.5884 C.3     1  UNL1        0.0257
     22 C         -30.6268   -4.0080   30.1807 C.3     1  UNL1        0.0050
@<TRIPOS>BOND
     1     1     2    1
     2     1     8    1
     3     8     9   am
     4     9    10    1
     5     9    11    2
     6     5    12    1
     7    12    13    1
     8    12    14    1
     9    12    15    1
    10    10    16    1
    11     8    18    1
    12    17    18    1
    13    10    19    1
    14    19    20    2
    15    20    21    1
    16    21    22    1
    17    16    17    1
    18     2     3   ar
    19     3     4   ar
    20     4     5   ar
    21     5     6   ar
    22     6     7   ar
    23     7     2   ar
