@<TRIPOS>MOLECULE
No_350-gen_results/8p0m/2024-11-26-14-13-15/
 15 16 0 0 0
SMALL
GASTEIGER

@<TRIPOS>ATOM
      1 C         -28.0162   -0.8135   28.8779 C.ar    1  UNL1       -0.0068
      2 C         -28.4690   -0.7850   29.8287 C.ar    1  UNL1       -0.0035
      3 C         -27.1356    0.2359   28.5352 C.ar    1  UNL1       -0.0181
      4 C         -26.8745    1.2825   29.3982 C.ar    1  UNL1       -0.0040
      5 C         -29.3953   -1.9237   30.2863 C.3     1  UNL1        0.1356
      6 C         -27.5236    1.2089   30.6379 C.ar    1  UNL1       -0.0006
      7 C         -28.3224    0.1273   30.9590 C.ar    1  UNL1       -0.0028
      8 N         -29.8224   -1.9639   31.5311 N.3     1  UNL1       -0.1262
      9 C         -26.4030    0.3225   27.2071 C.3     1  UNL1        0.0526
     10 C         -25.1757    0.6170   27.0930 C.ar    1  UNL1       -0.0178
     11 C         -24.3200    0.7172   28.2314 C.ar    1  UNL1       -0.0039
     12 C         -23.0289    1.3029   27.8757 C.ar    1  UNL1       -0.0003
     13 C         -22.7501    1.9478   26.7158 C.ar    1  UNL1       -0.0000
     14 C         -23.6902    1.9392   25.7125 C.ar    1  UNL1       -0.0003
     15 C         -24.8806    1.3096   25.8949 C.ar    1  UNL1       -0.0039
@<TRIPOS>BOND
     1     2     5    1
     2     5     8    1
     3     3     9    1
     4     9    10    1
     5    10    11   ar
     6    11    12   ar
     7    12    13   ar
     8    13    14   ar
     9    14    15   ar
    10    15    10   ar
    11     1     2   ar
    12     2     7   ar
    13     7     6   ar
    14     6     4   ar
    15     4     3   ar
    16     3     1   ar
