@<TRIPOS>MOLECULE
No_3501-gen_results/8p0m/2024-11-26-14-13-15/
 16 17 0 0 0
SMALL
GASTEIGER

@<TRIPOS>ATOM
      1 C         -28.0162   -0.8135   28.8779 C.ar    1  UNL1       -0.0000
      2 C         -28.4690   -0.7850   29.8287 C.ar    1  UNL1       -0.0000
      3 C         -27.0871    0.2903   28.6377 C.ar    1  UNL1       -0.0003
      4 C         -26.8317    1.2487   29.5869 C.ar    1  UNL1       -0.0000
      5 C         -28.3914    0.0801   31.0065 C.ar    1  UNL1       -0.0000
      6 C         -27.4940    1.1521   30.7841 C.ar    1  UNL1       -0.0000
      7 C         -26.3172    0.3994   27.3653 C.ar    1  UNL1       -0.0024
      8 C         -24.9405    0.2550   27.5028 C.ar    1  UNL1       -0.0000
      9 C         -26.9129    0.5860   26.1397 C.ar    1  UNL1       -0.0003
     10 C         -26.1769    0.4192   24.9937 C.ar    1  UNL1       -0.0000
     11 C         -24.2544    0.1042   28.8040 C.3     1  UNL1        0.1664
     12 C         -24.7371    0.3389   25.0978 C.ar    1  UNL1       -0.0003
     13 C         -24.1800    0.3507   26.2962 C.ar    1  UNL1       -0.0027
     14 CL        -23.7684   -1.0257   29.5366 Cl      1  UNL1       -0.1017
     15 C         -23.7342    1.4651   29.2645 C.2     1  UNL1        0.2278
     16 O         -23.2221    2.3149   28.5836 O.2     1  UNL1       -0.2866
@<TRIPOS>BOND
     1     3     7    1
     2     8    11    1
     3    11    14    1
     4    11    15    1
     5    15    16    2
     6     1     2   ar
     7     2     5   ar
     8     5     6   ar
     9     6     4   ar
    10     4     3   ar
    11     3     1   ar
    12     7     8   ar
    13     8    13   ar
    14    13    12   ar
    15    12    10   ar
    16    10     9   ar
    17     9     7   ar
