@<TRIPOS>MOLECULE
No_3502-gen_results/8p0m/2024-11-26-14-13-15/
 29 31 0 0 0
SMALL
GASTEIGER

@<TRIPOS>ATOM
      1 C         -28.0162   -0.8135   28.8779 C.ar    1  UNL1        0.0032
      2 C         -27.0636   -0.1189   28.6079 C.ar    1  UNL1        0.0221
      3 C         -26.9716    0.7139   27.5060 C.ar    1  UNL1        0.0553
      4 C         -25.8205    1.4910   27.1160 C.ar    1  UNL1        0.0085
      5 C         -24.6562    1.4242   27.9180 C.ar    1  UNL1        0.0731
      6 C         -24.7114    0.5419   29.0507 C.ar    1  UNL1        0.0230
      7 C         -25.8042   -0.2058   29.3881 C.ar    1  UNL1        0.0813
      8 C         -28.0309   -1.5903   30.1490 C.ar    1  UNL1        0.0182
      9 C         -29.1708   -2.3553   30.5109 C.ar    1  UNL1        0.0082
     10 C         -28.9850   -3.5907   31.0058 C.ar    1  UNL1        0.0347
     11 C         -27.7787   -4.3005   30.7578 C.ar    1  UNL1        0.0082
     12 C         -26.6685   -3.5724   30.2875 C.ar    1  UNL1        0.0196
     13 C         -26.8111   -2.3858   30.3102 C.ar    1  UNL1        0.0813
     14 N         -25.5560   -1.6348   30.1760 N.ar    1  UNL1       -0.2454
     15 C         -23.4905    2.2427   27.7148 C.3     1  UNL1        0.4186
     16 F         -23.6892    3.3864   27.3136 F       1  UNL1       -0.1659
     17 F         -22.7524    2.4443   28.8524 F       1  UNL1       -0.1659
     18 F         -22.6120    1.5817   26.8150 F       1  UNL1       -0.1659
     19 C         -28.1218    0.9361   26.6172 C.2     1  UNL1        0.2528
     20 O         -28.2392    0.2734   25.6439 O.2     1  UNL1       -0.2696
     21 N         -29.1435    1.6970   27.0654 N.am    1  UNL1       -0.2522
     22 C         -30.3501    1.8758   26.2698 C.3     1  UNL1        0.1204
     23 BR        -30.5044   -4.6248   31.5279 Br      1  UNL1       -0.0490
     24 C         -29.1079    2.5458   28.3092 C.2     1  UNL1        0.0678
     25 C         -28.8442    3.8016   28.1576 C.2     1  UNL1        0.0162
     26 C         -29.0310    4.6477   27.5975 C.2     1  UNL1        0.0013
     27 C         -28.5267    6.0469   27.6603 C.2     1  UNL1        0.0000
     28 C         -27.5966    6.3031   28.6236 C.2     1  UNL1        0.0000
     29 C         -27.1604    5.2813   29.4887 C.2     1  UNL1        0.0000
@<TRIPOS>BOND
     1     5    15    1
     2    15    16    1
     3    15    17    1
     4    15    18    1
     5     3    19    1
     6    19    20    2
     7    19    21   am
     8    21    22    1
     9    10    23    1
    10    21    24    1
    11    24    25    2
    12    25    26    1
    13    26    27    2
    14    27    28    1
    15    28    29    2
    16     2     3   ar
    17     3     4   ar
    18     4     5   ar
    19     5     6   ar
    20     6     7   ar
    21     8     9   ar
    22     9    10   ar
    23    10    11   ar
    24    11    12   ar
    25    12    13   ar
    26     1     2   ar
    27     2     7   ar
    28     7    14   ar
    29    14    13   ar
    30    13     8   ar
    31     8     1   ar
