@<TRIPOS>MOLECULE
No_3503-gen_results/8p0m/2024-11-26-14-13-15/
 24 26 0 0 0
SMALL
GASTEIGER

@<TRIPOS>ATOM
      1 C         -28.0162   -0.8135   28.8779 C.ar    1  UNL1        0.0421
      2 C         -28.4690   -0.7850   29.8287 C.ar    1  UNL1        0.0566
      3 C         -26.5042   -0.7777   28.8766 C.ar    1  UNL1        0.1473
      4 C         -25.8103   -0.8531   30.1028 C.ar    1  UNL1        0.0376
      5 C         -27.9906   -0.8916   31.2257 C.ar    1  UNL1        0.0047
      6 C         -26.6042   -0.8676   31.2652 C.ar    1  UNL1        0.0033
      7 C         -30.0739   -0.8360   29.8615 C.2     1  UNL1        0.2491
      8 O         -30.5608   -0.4417   28.9417 O.2     1  UNL1       -0.2699
      9 N         -30.7042   -1.7423   30.7732 N.am    1  UNL1       -0.2755
     10 C         -32.1088   -1.8935   30.6670 C.3     1  UNL1        0.0937
     11 C         -32.5304   -2.9805   31.0746 C.3     1  UNL1        0.0221
     12 C         -31.7529   -3.8536   31.7971 C.3     1  UNL1        0.0147
     13 C         -30.3538   -3.7430   31.9013 C.3     1  UNL1        0.1232
     14 C         -29.8379   -2.7196   31.2966 C.3     1  UNL1        0.1049
     15 C         -29.5923   -4.8372   32.5744 C.2     1  UNL1        0.3660
     16 O         -29.3913   -4.9433   33.6657 O.co2   1  UNL1       -0.2456
     17 O         -28.9366   -5.6150   31.6314 O.co2   1  UNL1       -0.2456
     18 O         -25.7381   -0.7070   27.7502 O.3     1  UNL1       -0.4361
     19 C         -24.5077   -0.1734   27.8836 C.ar    1  UNL1        0.2297
     20 C         -24.0994    0.9991   27.1253 C.ar    1  UNL1        0.0581
     21 C         -22.8046    1.4366   27.2804 C.ar    1  UNL1        0.0064
     22 C         -21.8851    0.8278   28.1281 C.ar    1  UNL1        0.0209
     23 N         -23.4968   -0.7167   28.6523 N.ar    1  UNL1       -0.2098
     24 C         -22.2773   -0.2727   28.7886 C.ar    1  UNL1        0.1021
@<TRIPOS>BOND
     1     2     7    1
     2     7     8    2
     3     7     9   am
     4     9    10    1
     5    10    11    1
     6    12    13    1
     7     9    14    1
     8    13    14    1
     9    13    15    1
    10    15    16   ar
    11    15    17   ar
    12     3    18    1
    13    18    19    1
    14    11    12    1
    15     1     2   ar
    16     2     5   ar
    17     5     6   ar
    18     6     4   ar
    19     4     3   ar
    20     3     1   ar
    21    19    20   ar
    22    20    21   ar
    23    21    22   ar
    24    22    24   ar
    25    24    23   ar
    26    23    19   ar
