@<TRIPOS>MOLECULE
No_3504-gen_results/8p0m/2024-11-26-14-13-15/
 13 13 0 0 0
SMALL
GASTEIGER

@<TRIPOS>ATOM
      1 C         -28.0162   -0.8135   28.8779 C.ar    1  UNL1       -0.0039
      2 C         -28.4690   -0.7850   29.8287 C.ar    1  UNL1       -0.0003
      3 C         -26.5042   -0.7777   28.8766 C.ar    1  UNL1       -0.0178
      4 C         -25.6540   -0.6597   27.7191 C.3     1  UNL1        0.0523
      5 C         -27.9180   -0.9374   31.1824 C.ar    1  UNL1       -0.0000
      6 C         -26.5424   -0.9399   31.2606 C.ar    1  UNL1       -0.0003
      7 C         -25.7907   -0.9042   30.1750 C.ar    1  UNL1       -0.0039
      8 C         -25.8971    0.3174   26.7571 C.2     1  UNL1       -0.0214
      9 C         -26.7732    0.4611   26.2492 C.2     1  UNL1       -0.0042
     10 C         -27.2001    1.2755   25.4900 C.2     1  UNL1       -0.0003
     11 C         -28.5287    1.4503   24.9107 C.2     1  UNL1       -0.0000
     12 C         -29.2700    0.3921   25.2238 C.2     1  UNL1       -0.0000
     13 C         -28.9893   -0.6171   25.8515 C.2     1  UNL1       -0.0000
@<TRIPOS>BOND
     1     3     4    1
     2     4     8    1
     3     8     9    2
     4     9    10    1
     5    10    11    2
     6    11    12    1
     7    12    13    2
     8     1     2   ar
     9     2     5   ar
    10     5     6   ar
    11     6     7   ar
    12     7     3   ar
    13     3     1   ar
