@<TRIPOS>MOLECULE
No_3505-gen_results/8p0m/2024-11-26-14-13-15/
 21 24 0 0 0
SMALL
GASTEIGER

@<TRIPOS>ATOM
      1 O         -28.1229   -1.3353   28.4874 O.3     1  UNL1       -0.4367
      2 C         -27.0637   -0.8242   28.8687 C.ar    1  UNL1        0.2258
      3 C         -27.0246    0.1877   29.7358 C.ar    1  UNL1        0.0356
      4 C         -25.8391    0.8513   29.9958 C.ar    1  UNL1       -0.0128
      5 N         -25.7786   -0.9958   28.1896 N.ar    1  UNL1       -0.2099
      6 C         -24.6123   -0.4253   28.4392 C.ar    1  UNL1        0.1083
      7 C         -24.5862    0.5561   29.3701 C.ar    1  UNL1        0.0949
      8 C         -23.3251    1.2198   29.6320 C.2     1  UNL1        0.3889
      9 O         -23.3170    2.1515   30.3443 O.co2   1  UNL1       -0.2405
     10 O         -22.2075    0.7241   29.2082 O.co2   1  UNL1       -0.2405
     11 C         -28.9514   -1.4839   29.5453 C.ar    1  UNL1        0.1438
     12 C         -29.5746   -2.5155   29.5101 C.ar    1  UNL1        0.0372
     13 C         -30.5545   -2.8628   30.6795 C.ar    1  UNL1        0.0031
     14 C         -30.7739   -1.8785   31.6196 C.ar    1  UNL1       -0.0001
     15 C         -30.0568   -0.7305   31.5497 C.ar    1  UNL1       -0.0006
     16 C         -29.1613   -0.5033   30.5081 C.ar    1  UNL1        0.0204
     17 C         -28.1310    0.3463   30.6705 C.3     1  UNL1        0.0733
     18 C         -28.1177    1.4289   31.6837 C.2     1  UNL1       -0.0220
     19 C         -27.3500    2.4395   31.7312 C.2     1  UNL1       -0.0297
     20 C         -26.0401    2.5767   31.1966 C.3     1  UNL1        0.0304
     21 C         -25.7122    1.8451   30.9115 C.3     1  UNL1        0.0311
@<TRIPOS>BOND
     1     1     2    1
     2     7     8    1
     3     8     9   ar
     4     8    10   ar
     5     1    11    1
     6     3    17    1
     7    16    17    1
     8    17    18    1
     9    18    19    2
    10    19    20    1
    11     4    21    1
    12    20    21    1
    13    11    12   ar
    14    12    13   ar
    15    13    14   ar
    16    14    15   ar
    17    15    16   ar
    18    16    11   ar
    19     2     3   ar
    20     3     4   ar
    21     4     7   ar
    22     7     6   ar
    23     6     5   ar
    24     5     2   ar
