@<TRIPOS>MOLECULE
No_3506-gen_results/8p0m/2024-11-26-14-13-15/
 31 33 0 0 0
SMALL
GASTEIGER

@<TRIPOS>ATOM
      1 C         -28.0162   -0.8135   28.8779 C.ar    1  UNL1       -0.0010
      2 C         -27.0636   -0.1189   28.6079 C.ar    1  UNL1       -0.0214
      3 C         -26.9716    0.7139   27.5060 C.ar    1  UNL1       -0.0010
      4 C         -28.1053    0.7744   26.6421 C.ar    1  UNL1        0.0417
      5 C         -29.2008    0.1044   27.0527 C.ar    1  UNL1        0.1957
      6 C         -29.2096   -0.6029   28.1853 C.ar    1  UNL1        0.0417
      7 O         -30.3044    0.2267   26.2604 O.3     1  UNL1       -0.2866
      8 C         -25.7141   -0.2197   29.4065 C.3     1  UNL1        0.0372
      9 C         -25.2431    0.9659   30.1090 C.3     1  UNL1        0.1296
     10 C         -25.4781    1.1889   31.0809 C.ar    1  UNL1       -0.0115
     11 C         -26.3057    0.3976   31.9962 C.ar    1  UNL1       -0.0037
     12 C         -27.1940    0.6696   32.5782 C.ar    1  UNL1       -0.0003
     13 C         -27.7722    1.9840   32.3745 C.ar    1  UNL1       -0.0000
     14 C         -26.9162    3.0300   31.9984 C.ar    1  UNL1       -0.0003
     15 C         -25.8431    2.6321   31.1186 C.ar    1  UNL1       -0.0037
     16 C         -24.1318    1.6116   29.2825 C.2     1  UNL1        0.3687
     17 O         -22.9914    1.3656   29.4675 O.co2   1  UNL1       -0.2453
     18 O         -24.4679    2.5867   28.3604 O.co2   1  UNL1       -0.2453
     19 C         -25.6875   -1.5500   30.1084 C.3     1  UNL1        0.0056
     20 C         -24.6775   -2.3584   29.5541 C.3     1  UNL1        0.0044
     21 C         -24.9121   -3.7244   29.1788 C.3     1  UNL1        0.0221
     22 C         -26.2201   -4.1648   29.3527 C.2     1  UNL1       -0.0249
     23 C         -26.5719   -4.5395   30.6315 C.2     1  UNL1        0.0145
     24 C         -28.1350   -4.5504   30.6853 C.ar    1  UNL1        0.0810
     25 N         -28.8092   -3.9017   31.4737 N.ar    1  UNL1       -0.2438
     26 C         -30.2124   -3.9910   31.5172 C.ar    1  UNL1        0.0988
     27 C         -30.7209   -4.7585   30.5231 C.ar    1  UNL1        0.0207
     28 C         -30.0553   -5.4329   29.5865 C.ar    1  UNL1        0.0031
     29 C         -28.7064   -5.2511   29.6524 C.ar    1  UNL1        0.0191
     30 C         -23.2844   -1.8301   29.3785 C.3     1  UNL1        0.0003
     31 C         -23.9128   -4.5081   28.5404 C.3     1  UNL1        0.0047
@<TRIPOS>BOND
     1     5     7    1
     2     2     8    1
     3     8     9    1
     4     9    16    1
     5    16    17   ar
     6    16    18   ar
     7     8    19    1
     8    19    20    1
     9    20    21    1
    10    21    22    1
    11    22    23    2
    12    23    24    1
    13    20    30    1
    14    21    31    1
    15     9    10    1
    16     1     2   ar
    17     2     3   ar
    18     3     4   ar
    19     4     5   ar
    20     5     6   ar
    21     6     1   ar
    22    24    25   ar
    23    25    26   ar
    24    26    27   ar
    25    27    28   ar
    26    28    29   ar
    27    29    24   ar
    28    10    11   ar
    29    11    12   ar
    30    12    13   ar
    31    13    14   ar
    32    14    15   ar
    33    15    10   ar
