@<TRIPOS>MOLECULE
No_3507-gen_results/8p0m/2024-11-26-14-13-15/
 23 25 0 0 0
SMALL
GASTEIGER

@<TRIPOS>ATOM
      1 C         -28.0162   -0.8135   28.8779 C.ar    1  UNL1        0.0296
      2 C         -28.4690   -0.7850   29.8287 C.ar    1  UNL1        0.0023
      3 C         -28.1960    0.3478   28.0550 C.ar    1  UNL1        0.1401
      4 C         -29.0191    1.3501   28.3782 C.ar    1  UNL1        0.0296
      5 C         -29.4107    0.1803   30.3782 C.ar    1  UNL1        0.0001
      6 C         -29.6059    1.2495   29.6193 C.ar    1  UNL1        0.0023
      7 F         -27.5401    0.3372   26.8421 F       1  UNL1       -0.2042
      8 C         -30.0196   -0.0247   31.7541 C.ar    1  UNL1        0.0000
      9 C         -30.1626   -1.0366   32.3138 C.ar    1  UNL1        0.0000
     10 C         -30.8966   -1.1491   33.5527 C.ar    1  UNL1       -0.0000
     11 C         -31.3832    0.0058   34.1454 C.ar    1  UNL1       -0.0000
     12 C         -30.5808    1.2200   32.3751 C.ar    1  UNL1       -0.0000
     13 C         -31.2010    1.1735   33.4988 C.ar    1  UNL1       -0.0000
     14 C         -31.7378    2.4311   34.1069 C.ar    1  UNL1       -0.0003
     15 C         -31.9227    2.6472   35.2466 C.ar    1  UNL1       -0.0000
     16 C         -32.5092    3.8950   35.7767 C.ar    1  UNL1       -0.0003
     17 C         -32.8430    4.8558   34.8250 C.ar    1  UNL1       -0.0027
     18 C         -32.6142    4.6398   33.5153 C.ar    1  UNL1       -0.0000
     19 C         -32.0180    3.4219   33.0336 C.ar    1  UNL1       -0.0027
     20 C         -32.9116    5.6424   32.4724 C.3     1  UNL1        0.1664
     21 CL        -32.9857    7.1563   32.6647 Cl      1  UNL1       -0.1017
     22 C         -33.1946    5.1097   31.1380 C.2     1  UNL1        0.2278
     23 O         -33.0884    5.7245   30.2240 O.2     1  UNL1       -0.2866
@<TRIPOS>BOND
     1     3     7    1
     2     5     8    1
     3    13    14    1
     4    18    20    1
     5    20    21    1
     6    20    22    1
     7    22    23    2
     8    14    15   ar
     9    15    16   ar
    10    16    17   ar
    11    17    18   ar
    12    18    19   ar
    13    19    14   ar
    14     1     2   ar
    15     2     5   ar
    16     5     6   ar
    17     6     4   ar
    18     4     3   ar
    19     3     1   ar
    20     8     9   ar
    21     9    10   ar
    22    10    11   ar
    23    11    13   ar
    24    13    12   ar
    25    12     8   ar
