@<TRIPOS>MOLECULE
No_3508-gen_results/8p0m/2024-11-26-14-13-15/
 14 15 0 0 0
SMALL
GASTEIGER

@<TRIPOS>ATOM
      1 C         -28.0162   -0.8135   28.8779 C.3     1  UNL1        0.3410
      2 C         -27.0636   -0.1189   28.6079 C.ar    1  UNL1        0.0436
      3 C         -27.0010    0.6913   27.4910 C.ar    1  UNL1        0.0012
      4 C         -25.8548    1.4825   27.0830 C.ar    1  UNL1        0.0027
      5 C         -24.6901    1.4526   27.8807 C.ar    1  UNL1        0.0348
      6 C         -24.7379    0.6010   29.0416 C.ar    1  UNL1        0.0042
      7 C         -25.8234   -0.1688   29.3887 C.ar    1  UNL1        0.0013
      8 F         -28.9516   -0.6391   28.1654 F       1  UNL1       -0.1933
      9 F         -28.4288   -0.5995   30.2335 F       1  UNL1       -0.1933
     10 C         -23.5121    2.2012   27.5820 C.ar    1  UNL1        0.1696
     11 N         -23.5074    3.1689   26.8157 N.pl3   1  UNL1       -0.1072
     12 N         -22.2752    1.7615   28.0235 N.ar    1  UNL1       -0.2259
     13 C         -22.0692    0.7105   28.8298 C.ar    1  UNL1        0.1004
     14 C         -23.2506    0.0651   29.4304 C.ar    1  UNL1        0.0208
@<TRIPOS>BOND
     1     1     2    1
     2     1     8    1
     3     1     9    1
     4    11    10    1
     5     2     3   ar
     6     3     4   ar
     7     4     5   ar
     8     6     7   ar
     9     7     2   ar
    10     5     6   ar
    11     6    14   ar
    12    14    13   ar
    13    13    12   ar
    14    12    10   ar
    15    10     5   ar
