@<TRIPOS>MOLECULE
No_3509-gen_results/8p0m/2024-11-26-14-13-15/
 35 38 0 0 0
SMALL
GASTEIGER

@<TRIPOS>ATOM
      1 C         -28.0162   -0.8135   28.8779 C.ar    1  UNL1        0.0043
      2 C         -28.4690   -0.7850   29.8287 C.ar    1  UNL1        0.0554
      3 C         -26.5042   -0.7777   28.8766 C.ar    1  UNL1       -0.0041
      4 C         -25.8103   -0.8531   30.1028 C.ar    1  UNL1       -0.0218
      5 C         -27.9906   -0.8916   31.2257 C.ar    1  UNL1        0.0043
      6 C         -26.6042   -0.8676   31.2652 C.ar    1  UNL1       -0.0041
      7 C         -30.0739   -0.8360   29.8615 C.2     1  UNL1        0.2690
      8 O         -30.5608   -0.4417   28.9417 O.2     1  UNL1       -0.2680
      9 N         -30.7428   -1.0431   31.0560 N.am    1  UNL1       -0.1754
     10 C         -31.7775   -1.2990   31.2174 C.ar    1  UNL1        0.0737
     11 C         -32.7420   -1.4178   30.7269 C.ar    1  UNL1        0.0168
     12 C         -34.1082   -1.7805   31.1302 C.ar    1  UNL1        0.0059
     13 C         -34.2037   -2.0233   32.5085 C.ar    1  UNL1        0.0555
     14 C         -33.1246   -1.9433   33.3171 C.ar    1  UNL1        0.0059
     15 C         -31.8817   -1.5942   32.8581 C.ar    1  UNL1        0.0168
     16 C         -35.5531   -2.3778   33.0002 C.2     1  UNL1        0.2690
     17 O         -35.7931   -2.2467   34.1606 O.2     1  UNL1       -0.2680
     18 N         -36.4867   -2.5582   32.0933 N.am    1  UNL1       -0.1754
     19 C         -37.8287   -2.8993   32.4534 C.ar    1  UNL1        0.0737
     20 C         -38.6517   -3.0699   31.5498 C.ar    1  UNL1        0.0168
     21 C         -40.0117   -3.3520   31.8449 C.ar    1  UNL1        0.0059
     22 C         -40.4082   -3.4676   33.2250 C.ar    1  UNL1        0.0555
     23 C         -39.4127   -3.2652   34.1684 C.ar    1  UNL1        0.0059
     24 C         -38.1401   -2.9607   33.8524 C.ar    1  UNL1        0.0168
     25 C         -41.7830   -3.7857   33.5195 C.2     1  UNL1        0.2690
     26 O         -42.6688   -4.0663   32.9005 O.2     1  UNL1       -0.2680
     27 N         -42.0123   -3.7155   34.9660 N.am    1  UNL1       -0.1754
     28 C         -43.0520   -3.9060   35.5199 C.ar    1  UNL1        0.0737
     29 C         -44.1298   -3.8979   35.4226 C.ar    1  UNL1        0.0175
     30 C         -45.2399   -4.1552   36.2877 C.ar    1  UNL1        0.0127
     31 C         -44.8767   -4.4452   37.6164 C.ar    1  UNL1        0.0578
     32 C         -43.5692   -4.5115   37.9611 C.ar    1  UNL1        0.0127
     33 C         -42.5612   -4.2118   37.0807 C.ar    1  UNL1        0.0175
     34 CL        -46.1354   -4.7655   38.7272 Cl      1  UNL1       -0.0822
     35 C         -24.3705   -0.8004   30.1475 C.3     1  UNL1        0.0310
@<TRIPOS>BOND
     1     2     7    1
     2     7     8    2
     3     7     9   am
     4     9    10    1
     5    13    16    1
     6    16    17    2
     7    16    18   am
     8    18    19    1
     9    22    25    1
    10    25    26    2
    11    25    27   am
    12    27    28    1
    13    31    34    1
    14     4    35    1
    15    28    29   ar
    16    29    30   ar
    17    30    31   ar
    18    31    32   ar
    19    32    33   ar
    20    33    28   ar
    21    19    20   ar
    22    20    21   ar
    23    21    22   ar
    24    22    23   ar
    25    23    24   ar
    26    24    19   ar
    27     1     2   ar
    28     2     5   ar
    29     5     6   ar
    30     6     4   ar
    31     4     3   ar
    32     3     1   ar
    33    10    11   ar
    34    11    12   ar
    35    12    13   ar
    36    13    14   ar
    37    14    15   ar
    38    15    10   ar
