@<TRIPOS>MOLECULE
No_351-gen_results/8p0m/2024-11-26-14-13-15/
 7 7 0 0 0
SMALL
GASTEIGER

@<TRIPOS>ATOM
      1 C         -28.0162   -0.8135   28.8779 C.ar    1  UNL1        0.0114
      2 C         -27.0636   -0.1189   28.6079 C.ar    1  UNL1        0.0577
      3 C         -26.9287    1.1713   29.0083 C.ar    1  UNL1        0.0114
      4 C         -27.9560    1.7411   29.7840 C.ar    1  UNL1        0.0009
      5 C         -29.0569   -0.3271   29.7466 C.ar    1  UNL1        0.0009
      6 C         -28.9828    0.9722   30.1516 C.ar    1  UNL1        0.0001
      7 CL        -25.7352   -0.7297   27.6631 Cl      1  UNL1       -0.0822
@<TRIPOS>BOND
     1     2     7    1
     2     1     2   ar
     3     2     3   ar
     4     3     4   ar
     5     4     6   ar
     6     6     5   ar
     7     5     1   ar
