@<TRIPOS>MOLECULE
No_3510-gen_results/8p0m/2024-11-26-14-13-15/
 25 26 0 0 0
SMALL
GASTEIGER

@<TRIPOS>ATOM
      1 C         -28.0162   -0.8135   28.8779 C.2     1  UNL1        0.2731
      2 C         -27.0636   -0.1189   28.6079 C.2     1  UNL1        0.0383
      3 C         -25.7647   -0.3897   29.0360 C.3     1  UNL1        0.0299
      4 C         -24.5516    0.4058   28.7646 C.3     1  UNL1        0.0191
      5 C         -24.6957    1.4480   27.7988 C.3     1  UNL1        0.1068
      6 C         -25.9755    1.7250   27.3077 C.3     1  UNL1        0.0452
      7 C         -27.0718    1.0134   27.6535 C.3     1  UNL1        0.1392
      8 F         -27.8782   -2.0157   29.2475 F       1  UNL1       -0.1726
      9 F         -28.7519   -0.1981   29.9326 F       1  UNL1       -0.1726
     10 C         -23.4898    2.2236   27.5224 C.2     1  UNL1        0.3644
     11 O         -23.5960    3.1710   26.7266 O.co2   1  UNL1       -0.2457
     12 O         -22.3002    1.8603   27.8893 O.co2   1  UNL1       -0.2457
     13 O         -28.2427    1.2804   27.0973 O.3     1  UNL1       -0.3410
     14 C         -28.4511    1.2596   25.7831 C.3     1  UNL1        0.2567
     15 C         -29.3751    0.4278   25.3239 C.2     1  UNL1        0.3945
     16 O         -30.3624    0.7615   25.2286 O.co2   1  UNL1       -0.2428
     17 O         -28.8179   -0.5728   24.5483 O.co2   1  UNL1       -0.2428
     18 C         -23.5273    0.2943   29.6768 C.3     1  UNL1        0.0232
     19 C         -22.4025   -0.5647   29.2444 C.3     1  UNL1        0.0047
     20 C         -23.9582   -0.2163   31.0835 C.ar    1  UNL1       -0.0225
     21 C         -24.5127    0.7024   31.9550 C.ar    1  UNL1       -0.0043
     22 C         -25.2222    0.3114   33.1045 C.ar    1  UNL1       -0.0003
     23 C         -25.0366   -1.0550   33.3963 C.ar    1  UNL1       -0.0000
     24 C         -23.3390   -1.3276   31.5974 C.ar    1  UNL1       -0.0043
     25 C         -24.0398   -1.7732   32.8189 C.ar    1  UNL1       -0.0003
@<TRIPOS>BOND
     1     1     2    2
     2     2     3    1
     3     3     4    1
     4     4     5    1
     5     5     6    1
     6     2     7    1
     7     6     7    1
     8     1     8    1
     9     1     9    1
    10     5    10    1
    11    10    11   ar
    12    10    12   ar
    13     7    13    1
    14    13    14    1
    15    14    15    1
    16    15    16   ar
    17    15    17   ar
    18     4    18    1
    19    18    19    1
    20    18    20    1
    21    20    21   ar
    22    21    22   ar
    23    22    23   ar
    24    23    25   ar
    25    25    24   ar
    26    24    20   ar
