@<TRIPOS>MOLECULE
No_3511-gen_results/8p0m/2024-11-26-14-13-15/
 12 13 0 0 0
SMALL
GASTEIGER

@<TRIPOS>ATOM
      1 C         -28.0162   -0.8135   28.8779 C.ar    1  UNL1        0.0000
      2 C         -27.0636   -0.1189   28.6079 C.ar    1  UNL1        0.0000
      3 C         -26.9716    0.7139   27.5060 C.ar    1  UNL1        0.0000
      4 C         -25.8206    1.4910   27.1160 C.ar    1  UNL1        0.0000
      5 C         -25.7505    2.3193   26.0233 C.ar    1  UNL1        0.0000
      6 C         -26.8263    2.2181   25.1373 C.ar    1  UNL1        0.0000
      7 C         -27.9220    1.4707   25.3693 C.ar    1  UNL1        0.0000
      8 C         -27.9201    0.7049   26.5395 C.ar    1  UNL1        0.0000
      9 C         -28.0890   -1.5958   30.1484 C.ar    1  UNL1        0.0000
     10 C         -26.9017   -1.8159   30.8513 C.ar    1  UNL1        0.0000
     11 C         -25.7007   -1.2385   30.4683 C.ar    1  UNL1        0.0000
     12 C         -25.7557   -0.3692   29.3650 C.ar    1  UNL1        0.0000
@<TRIPOS>BOND
     1     2     3    1
     2     1     2   ar
     3     2    12   ar
     4    12    11   ar
     5    11    10   ar
     6    10     9   ar
     7     9     1   ar
     8     3     4   ar
     9     4     5   ar
    10     5     6   ar
    11     6     7   ar
    12     7     8   ar
    13     8     3   ar
