@<TRIPOS>MOLECULE
No_3512-gen_results/8p0m/2024-11-26-14-13-15/
 13 13 0 0 0
SMALL
GASTEIGER

@<TRIPOS>ATOM
      1 C         -28.0162   -0.8135   28.8779 C.ar    1  UNL1       -0.0043
      2 C         -28.4690   -0.7850   29.8287 C.ar    1  UNL1       -0.0003
      3 C         -27.1356    0.2359   28.5352 C.ar    1  UNL1       -0.0222
      4 C         -26.8745    1.2825   29.3982 C.ar    1  UNL1       -0.0043
      5 C         -27.5070    1.2380   30.6295 C.ar    1  UNL1       -0.0003
      6 C         -28.3293    0.1745   30.9350 C.ar    1  UNL1       -0.0000
      7 C         -26.4077    0.3070   27.2259 C.3     1  UNL1        0.0267
      8 C         -25.0105    0.3902   27.3228 C.3     1  UNL1        0.0050
      9 C         -27.0459    0.3288   26.0049 C.3     1  UNL1        0.0304
     10 C         -28.4007    0.3616   25.8738 C.2     1  UNL1       -0.0258
     11 C         -29.2070    0.7225   26.9188 C.2     1  UNL1       -0.0046
     12 C         -30.4480    1.1269   26.5969 C.2     1  UNL1       -0.0003
     13 C         -30.9261    1.0270   25.3056 C.2     1  UNL1       -0.0000
@<TRIPOS>BOND
     1     3     7    1
     2     7     8    1
     3     7     9    1
     4     9    10    1
     5    10    11    2
     6    11    12    1
     7    12    13    2
     8     1     2   ar
     9     2     6   ar
    10     6     5   ar
    11     5     4   ar
    12     4     3   ar
    13     3     1   ar
