@<TRIPOS>MOLECULE
No_3513-gen_results/8p0m/2024-11-26-14-13-15/
 12 13 0 0 0
SMALL
GASTEIGER

@<TRIPOS>ATOM
      1 C         -28.0162   -0.8135   28.8779 C.ar    1  UNL1        0.0000
      2 C         -27.0636   -0.1189   28.6079 C.ar    1  UNL1        0.0000
      3 C         -26.8756    1.1325   28.9134 C.ar    1  UNL1        0.0000
      4 C         -25.6883    1.9515   28.5672 C.ar    1  UNL1        0.0000
      5 C         -25.5093    3.3042   28.8859 C.ar    1  UNL1        0.0000
      6 C         -29.0972   -0.2347   29.6994 C.ar    1  UNL1        0.0000
      7 C         -29.0303    1.0730   30.0324 C.ar    1  UNL1        0.0000
      8 C         -27.8550    1.8594   29.6796 C.ar    1  UNL1        0.0000
      9 C         -24.6654    1.3370   27.7414 C.ar    1  UNL1        0.0000
     10 C         -23.5581    2.0464   27.2906 C.ar    1  UNL1        0.0000
     11 C         -24.4444    4.0845   28.2737 C.ar    1  UNL1        0.0000
     12 C         -23.4368    3.4071   27.5577 C.ar    1  UNL1        0.0000
@<TRIPOS>BOND
     1     3     4    1
     2     1     2   ar
     3     2     3   ar
     4     3     8   ar
     5     8     7   ar
     6     7     6   ar
     7     6     1   ar
     8     4     5   ar
     9     5    11   ar
    10    11    12   ar
    11    12    10   ar
    12    10     9   ar
    13     9     4   ar
