@<TRIPOS>MOLECULE
No_3514-gen_results/8p0m/2024-11-26-14-13-15/
 17 19 0 0 0
SMALL
GASTEIGER

@<TRIPOS>ATOM
      1 C         -28.0162   -0.8135   28.8779 C.ar    1  UNL1       -0.0000
      2 C         -27.0636   -0.1189   28.6079 C.ar    1  UNL1       -0.0000
      3 C         -27.0010    0.6913   27.4910 C.ar    1  UNL1       -0.0003
      4 C         -25.7770    1.0214   26.9135 C.ar    1  UNL1       -0.0000
      5 C         -24.5088    0.7364   27.5686 C.ar    1  UNL1       -0.0000
      6 C         -24.5930   -0.0361   28.7390 C.ar    1  UNL1       -0.0000
      7 C         -25.8114   -0.4771   29.1584 C.ar    1  UNL1       -0.0000
      8 C         -28.1069   -1.4831   30.2046 C.ar    1  UNL1       -0.0000
      9 C         -26.9076   -1.8560   30.8505 C.ar    1  UNL1        0.0000
     10 C         -25.7217   -1.3535   30.3451 C.ar    1  UNL1       -0.0000
     11 C         -23.2428   -0.3061   29.3626 C.2     1  UNL1        0.0000
     12 C         -22.9931   -0.9075   30.1598 C.2     1  UNL1        0.0000
     13 C         -23.7116   -1.6774   31.2006 C.2     1  UNL1        0.0000
     14 C         -24.6197   -1.7135   31.1967 C.2     1  UNL1        0.0000
     15 C         -28.2099    1.0392   26.7183 C.2     1  UNL1       -0.0046
     16 C         -29.0953    1.6467   27.3392 C.2     1  UNL1       -0.0258
     17 C         -30.3410    2.0337   26.6490 C.3     1  UNL1        0.0307
@<TRIPOS>BOND
     1     6    11    1
     2    11    12    2
     3    12    13    1
     4    10    14    1
     5    13    14    2
     6     3    15    1
     7    15    16    2
     8    16    17    1
     9     2     3   ar
    10     3     4   ar
    11     4     5   ar
    12     5     6   ar
    13     6     7   ar
    14     1     2   ar
    15     2     7   ar
    16     7    10   ar
    17    10     9   ar
    18     9     8   ar
    19     8     1   ar
