@<TRIPOS>MOLECULE
No_3516-gen_results/8p0m/2024-11-26-14-13-15/
 22 24 0 0 0
SMALL
GASTEIGER

@<TRIPOS>ATOM
      1 C         -28.0162   -0.8135   28.8779 C.ar    1  UNL1       -0.0026
      2 C         -28.4690   -0.7850   29.8287 C.ar    1  UNL1       -0.0003
      3 C         -27.0871    0.2903   28.6377 C.ar    1  UNL1       -0.0023
      4 C         -26.2516    0.4114   27.4223 C.3     1  UNL1        0.1189
      5 C         -28.3913    0.1041   30.9805 C.ar    1  UNL1       -0.0000
      6 C         -27.5332    1.1666   30.7866 C.ar    1  UNL1       -0.0003
      7 C         -26.8281    1.2557   29.6454 C.ar    1  UNL1       -0.0026
      8 N         -25.1895    0.4695   27.3612 N.pl3   1  UNL1       -0.2348
      9 C         -27.0305    0.4896   26.1416 C.3     1  UNL1        0.0524
     10 C         -24.2141    0.1848   28.3667 C.ar    1  UNL1        0.0647
     11 C         -22.9587    0.8907   28.4399 C.ar    1  UNL1        0.0122
     12 C         -24.3342   -0.8873   29.2807 C.ar    1  UNL1        0.0364
     13 C         -22.6196    2.0460   27.6500 C.3     1  UNL1        0.0340
     14 C         -21.9230    0.3241   29.2801 C.ar    1  UNL1        0.0959
     15 N         -22.1546   -0.7047   30.1149 N.ar    1  UNL1       -0.2426
     16 C         -23.3399   -1.2929   30.1158 C.ar    1  UNL1        0.1002
     17 C         -28.2611    1.0135   25.9992 C.ar    1  UNL1       -0.0201
     18 C         -28.8326    0.9892   24.7357 C.ar    1  UNL1       -0.0042
     19 C         -30.1722    1.4286   24.5902 C.ar    1  UNL1       -0.0003
     20 C         -30.8712    1.9924   25.6735 C.ar    1  UNL1       -0.0000
     21 C         -30.2739    2.0732   26.9262 C.ar    1  UNL1       -0.0003
     22 C         -29.0575    1.5940   27.1397 C.ar    1  UNL1       -0.0042
@<TRIPOS>BOND
     1     3     4    1
     2     4     8    1
     3     4     9    1
     4     8    10    1
     5    11    13    1
     6     9    17    1
     7    17    18   ar
     8    18    19   ar
     9    19    20   ar
    10    20    21   ar
    11    21    22   ar
    12    22    17   ar
    13    10    11   ar
    14    11    14   ar
    15    14    15   ar
    16    15    16   ar
    17    16    12   ar
    18    12    10   ar
    19     1     2   ar
    20     2     5   ar
    21     5     6   ar
    22     6     7   ar
    23     7     3   ar
    24     3     1   ar
