@<TRIPOS>MOLECULE
No_3517-gen_results/8p0m/2024-11-26-14-13-15/
 31 32 0 0 0
SMALL
GASTEIGER

@<TRIPOS>ATOM
      1 C         -28.0162   -0.8135   28.8779 C.ar    1  UNL1        0.0054
      2 C         -27.0636   -0.1189   28.6079 C.ar    1  UNL1        0.0533
      3 C         -26.9716    0.7139   27.5060 C.ar    1  UNL1        0.0011
      4 C         -28.1053    0.7744   26.6421 C.ar    1  UNL1       -0.0100
      5 C         -29.2008    0.1044   27.0527 C.ar    1  UNL1        0.0537
      6 C         -29.2096   -0.6029   28.1853 C.ar    1  UNL1        0.0112
      7 CL        -30.5651    0.2430   26.0493 Cl      1  UNL1       -0.0826
      8 C         -25.7033   -0.2337   29.4132 C.2     1  UNL1        0.2490
      9 O         -25.6092   -0.9835   30.2237 O.2     1  UNL1       -0.2699
     10 N         -24.6560    0.6447   29.0727 N.am    1  UNL1       -0.2761
     11 C         -23.3936    0.4866   29.7652 C.3     1  UNL1        0.0937
     12 C         -22.2715    0.7370   28.8755 C.3     1  UNL1        0.0216
     13 C         -22.4091    1.6901   27.8604 C.3     1  UNL1        0.0034
     14 C         -23.7101    1.9880   27.3377 C.3     1  UNL1        0.0184
     15 C         -24.6949    1.7309   28.2253 C.3     1  UNL1        0.0936
     16 C         -23.7510    3.3378   26.7018 C.3     1  UNL1        0.0017
     17 C         -28.0732    1.6639   25.4586 C.3     1  UNL1        0.0465
     18 C         -27.9372    1.0119   24.2521 C.3     1  UNL1        0.1140
     19 C         -23.8653    0.9654   26.1677 C.3     1  UNL1        0.0017
     20 C         -27.9806    3.0444   25.5872 C.3     1  UNL1        0.0319
     21 N         -27.9362   -0.2900   24.2441 N.3     1  UNL1       -0.1310
     22 C         -27.3142    3.7068   26.5718 C.2     1  UNL1       -0.0258
     23 C         -27.4460    5.0798   26.8109 C.2     1  UNL1       -0.0046
     24 C         -26.5997    5.7823   27.6393 C.2     1  UNL1       -0.0003
     25 C         -26.8376    6.2451   28.7224 C.2     1  UNL1       -0.0000
     26 C         -25.8196    6.8810   29.6330 C.2     1  UNL1       -0.0000
     27 C         -25.8610    6.7609   30.9839 C.2     1  UNL1       -0.0000
     28 C         -24.7647    7.1490   31.8007 C.2     1  UNL1        0.0000
     29 C         -24.4748    6.5015   32.9960 C.2     1  UNL1        0.0000
     30 C         -25.3821    5.4916   33.4543 C.2     1  UNL1        0.0000
     31 C         -26.4043    5.1009   32.6497 C.2     1  UNL1        0.0000
@<TRIPOS>BOND
     1     5     7    1
     2     2     8    1
     3     8     9    2
     4     8    10   am
     5    10    11    1
     6    11    12    1
     7    12    13    1
     8    13    14    1
     9    10    15    1
    10    14    15    1
    11    14    16    1
    12     4    17    1
    13    17    18    1
    14    14    19    1
    15    17    20    1
    16    18    21    1
    17    20    22    1
    18    22    23    2
    19    23    24    1
    20    24    25    2
    21    25    26    1
    22    26    27    2
    23    27    28    1
    24    28    29    2
    25    29    30    1
    26    30    31    2
    27     1     2   ar
    28     2     3   ar
    29     3     4   ar
    30     4     5   ar
    31     5     6   ar
    32     6     1   ar
