@<TRIPOS>MOLECULE
No_352-gen_results/8p0m/2024-11-26-14-13-15/
 15 15 0 0 0
SMALL
GASTEIGER

@<TRIPOS>ATOM
      1 C         -28.0162   -0.8135   28.8779 C.ar    1  UNL1        0.0372
      2 C         -27.0636   -0.1190   28.6079 C.ar    1  UNL1        0.0285
      3 C         -25.7923   -0.4302   29.0761 C.ar    1  UNL1       -0.0002
      4 C         -25.5756   -1.5654   29.9363 C.ar    1  UNL1        0.0029
      5 C         -26.7354   -2.3004   30.2173 C.ar    1  UNL1        0.0376
      6 C         -27.9184   -1.9537   29.7629 C.ar    1  UNL1        0.1488
      7 C         -27.1057    1.1023   27.7593 C.3     1  UNL1        0.2620
      8 CL        -26.6596    2.2312   27.9242 Cl      1  UNL1       -0.0719
      9 F         -27.7884    0.7181   26.5678 F       1  UNL1       -0.2143
     10 O         -28.9684   -2.7225   30.1402 O.3     1  UNL1       -0.4165
     11 C         -30.1383   -2.2004   30.5041 C.2     1  UNL1        0.4267
     12 C         -31.2072   -2.8735   30.0143 C.2     1  UNL1        0.4625
     13 O         -32.1612   -2.8604   30.4767 O.co2   1  UNL1       -0.2332
     14 O         -30.9789   -3.8737   29.1947 O.co2   1  UNL1       -0.2332
     15 O         -30.2050   -1.1116   31.0782 O.2     1  UNL1       -0.2370
@<TRIPOS>BOND
     1     2     7    1
     2     7     8    1
     3     7     9    1
     4     6    10    1
     5    10    11    1
     6    11    12    1
     7    12    13   ar
     8    12    14   ar
     9    11    15    2
    10     1     2   ar
    11     2     3   ar
    12     3     4   ar
    13     4     5   ar
    14     5     6   ar
    15     6     1   ar
