@<TRIPOS>MOLECULE
No_3520-gen_results/8p0m/2024-11-26-14-13-15/
 20 22 0 0 0
SMALL
GASTEIGER

@<TRIPOS>ATOM
      1 C         -28.0162   -0.8135   28.8779 C.ar    1  UNL1        0.0012
      2 C         -27.0636   -0.1189   28.6079 C.ar    1  UNL1       -0.0039
      3 C         -25.7923   -0.4302   29.0761 C.ar    1  UNL1       -0.0187
      4 C         -25.5681   -1.2411   29.7572 C.ar    1  UNL1       -0.0039
      5 C         -26.6114   -2.1840   30.2439 C.ar    1  UNL1        0.0012
      6 C         -27.8191   -1.9189   29.8034 C.ar    1  UNL1        0.0176
      7 C         -28.9046   -2.8162   30.2637 C.ar    1  UNL1        0.0813
      8 N         -28.6869   -4.1083   30.3623 N.ar    1  UNL1       -0.2438
      9 C         -29.7365   -4.9260   30.7305 C.ar    1  UNL1        0.0988
     10 C         -30.9695   -4.4271   30.6769 C.ar    1  UNL1        0.0207
     11 C         -30.1755   -2.4981   30.1659 C.ar    1  UNL1        0.0191
     12 C         -31.2262   -3.1670   30.4660 C.ar    1  UNL1        0.0031
     13 C         -24.6061    0.5347   28.5592 C.3     1  UNL1        0.0409
     14 C         -24.6296    1.3168   27.5084 C.2     1  UNL1       -0.0361
     15 C         -25.3477    1.5668   26.6728 C.2     1  UNL1       -0.0082
     16 C         -25.0126    2.4305   25.5581 C.2     1  UNL1       -0.0049
     17 C         -23.8941    3.1760   25.8299 C.2     1  UNL1       -0.0218
     18 C         -23.4016    2.2947   27.3353 C.3     1  UNL1        0.0483
     19 C         -23.2596   -0.1356   28.9647 C.3     1  UNL1        0.0084
     20 C         -22.7473    0.4670   30.1591 C.3     1  UNL1        0.0007
@<TRIPOS>BOND
     1     6     7    1
     2     3    13    1
     3    13    14    1
     4    14    15    2
     5    15    16    1
     6    16    17    2
     7    14    18    1
     8    17    18    1
     9    13    19    1
    10    19    20    1
    11     7     8   ar
    12     8     9   ar
    13     9    10   ar
    14    10    12   ar
    15    12    11   ar
    16    11     7   ar
    17     1     2   ar
    18     2     3   ar
    19     3     4   ar
    20     4     5   ar
    21     5     6   ar
    22     6     1   ar
