@<TRIPOS>MOLECULE
No_3521-gen_results/8p0m/2024-11-26-14-13-15/
 9 9 0 0 0
SMALL
GASTEIGER

@<TRIPOS>ATOM
      1 C         -28.0162   -0.8135   28.8779 C.ar    1  UNL1        0.0056
      2 C         -28.4690   -0.7850   29.8287 C.ar    1  UNL1        0.0678
      3 C         -26.5455   -0.8762   28.8500 C.ar    1  UNL1        0.0002
      4 C         -25.8974   -0.8267   29.8894 C.ar    1  UNL1        0.0000
      5 C         -27.9129   -0.8385   31.1942 C.ar    1  UNL1        0.0056
      6 C         -26.5519   -0.8324   31.1775 C.ar    1  UNL1        0.0002
      7 C         -30.0723   -0.7940   29.9383 C.2     1  UNL1        0.3334
      8 O         -30.7088   -0.3443   29.2152 O.2     1  UNL1       -0.2541
      9 F         -30.6355   -1.4900   30.9815 F       1  UNL1       -0.1586
@<TRIPOS>BOND
     1     2     7    1
     2     7     8    2
     3     7     9    1
     4     1     2   ar
     5     2     5   ar
     6     5     6   ar
     7     6     4   ar
     8     4     3   ar
     9     3     1   ar
