@<TRIPOS>MOLECULE
No_3523-gen_results/8p0m/2024-11-26-14-13-15/
 17 19 0 0 0
SMALL
GASTEIGER

@<TRIPOS>ATOM
      1 C         -28.0162   -0.8135   28.8779 C.ar    1  UNL1       -0.0000
      2 C         -27.0636   -0.1189   28.6079 C.ar    1  UNL1       -0.0003
      3 C         -25.7647   -0.3897   29.0360 C.ar    1  UNL1       -0.0036
      4 C         -25.5296   -1.5302   29.9014 C.ar    1  UNL1       -0.0003
      5 C         -26.6577   -2.2915   30.2035 C.ar    1  UNL1       -0.0000
      6 C         -27.8548   -1.9555   29.7630 C.ar    1  UNL1       -0.0000
      7 C         -24.5441    0.4126   28.7379 C.ar    1  UNL1       -0.0178
      8 C         -23.3232    0.0476   29.0499 C.ar    1  UNL1       -0.0039
      9 C         -23.1650   -1.2300   29.7040 C.ar    1  UNL1       -0.0003
     10 C         -24.2096   -1.9668   30.1985 C.ar    1  UNL1       -0.0000
     11 C         -24.4920    1.4659   27.7228 C.3     1  UNL1        0.0526
     12 C         -25.2358    2.3836   27.6491 C.ar    1  UNL1       -0.0178
     13 C         -25.9425    2.8424   28.7898 C.ar    1  UNL1       -0.0039
     14 C         -26.7170    4.0562   28.8337 C.ar    1  UNL1       -0.0003
     15 C         -26.7368    4.7744   27.6709 C.ar    1  UNL1       -0.0000
     16 C         -25.2843    3.4302   26.5890 C.ar    1  UNL1       -0.0039
     17 C         -26.0219    4.5516   26.5985 C.ar    1  UNL1       -0.0003
@<TRIPOS>BOND
     1     7    11    1
     2    11    12    1
     3    12    13   ar
     4    13    14   ar
     5    14    15   ar
     6    15    17   ar
     7    17    16   ar
     8    16    12   ar
     9     1     2   ar
    10     2     3   ar
    11     4     5   ar
    12     5     6   ar
    13     6     1   ar
    14     3     4   ar
    15     4    10   ar
    16    10     9   ar
    17     9     8   ar
    18     8     7   ar
    19     7     3   ar
