@<TRIPOS>MOLECULE
No_3524-gen_results/8p0m/2024-11-26-14-13-15/
 20 20 0 0 0
SMALL
GASTEIGER

@<TRIPOS>ATOM
      1 C         -28.0162   -0.8135   28.8779 C.ar    1  UNL1        0.0205
      2 C         -28.4690   -0.7850   29.8287 C.ar    1  UNL1        0.0749
      3 C         -27.0871    0.2903   28.6377 C.ar    1  UNL1        0.0727
      4 C         -26.8317    1.2487   29.5869 C.ar    1  UNL1        0.0039
      5 C         -28.3914    0.0801   31.0065 C.ar    1  UNL1        0.0166
      6 C         -27.4940    1.1521   30.7841 C.ar    1  UNL1        0.0013
      7 C         -26.3109    0.3917   27.3640 C.3     1  UNL1        0.4186
      8 F         -26.8602    0.4028   26.3801 F       1  UNL1       -0.1659
      9 F         -25.3019   -0.5689   27.4053 F       1  UNL1       -0.1659
     10 F         -25.5002    1.5642   27.2854 F       1  UNL1       -0.1659
     11 N         -29.3904   -1.9546   30.1929 N.am    1  UNL1       -0.1622
     12 C         -28.9402   -3.2785   30.4396 C.2     1  UNL1        0.3275
     13 N         -29.8373   -4.2566   30.6084 N.am    1  UNL1       -0.2605
     14 O         -27.7207   -3.4865   30.7591 O.2     1  UNL1       -0.2504
     15 C         -29.4978   -5.6399   30.8519 C.3     1  UNL1        0.1165
     16 C         -31.2385   -4.0031   30.3658 C.3     1  UNL1        0.0997
     17 C         -31.8159   -5.0651   29.8182 C.3     1  UNL1        0.0472
     18 C         -32.0945   -5.0580   28.8344 C.2     1  UNL1       -0.0289
     19 C         -31.4810   -5.2554   27.9000 C.2     1  UNL1       -0.0303
     20 C         -31.7883   -5.3371   26.4423 C.3     1  UNL1        0.0303
@<TRIPOS>BOND
     1     3     7    1
     2     7     8    1
     3     7     9    1
     4     7    10    1
     5     2    11    1
     6    11    12   am
     7    12    13   am
     8    12    14    2
     9    13    15    1
    10    13    16    1
    11    16    17    1
    12    17    18    1
    13    18    19    2
    14    19    20    1
    15     1     2   ar
    16     2     5   ar
    17     5     6   ar
    18     6     4   ar
    19     4     3   ar
    20     3     1   ar
