@<TRIPOS>MOLECULE
No_3526-gen_results/8p0m/2024-11-26-14-13-15/
 35 36 0 0 0
SMALL
GASTEIGER

@<TRIPOS>ATOM
      1 C         -28.0162   -0.8135   28.8779 C.ar    1  UNL1        0.0794
      2 C         -27.0636   -0.1189   28.6079 C.ar    1  UNL1        0.0023
      3 C         -26.9716    0.7139   27.5060 C.ar    1  UNL1       -0.0220
      4 C         -28.1053    0.7744   26.6421 C.ar    1  UNL1       -0.0004
      5 C         -29.2008    0.1044   27.0527 C.ar    1  UNL1        0.0713
      6 C         -28.0219   -1.5899   30.0879 C.2     1  UNL1        0.3877
      7 C         -29.1640   -0.6394   28.1484 C.ar    1  UNL1        0.0104
      8 O         -27.1149   -2.3776   30.3500 O.co2   1  UNL1       -0.2406
      9 O         -29.0865   -1.6143   30.8723 O.co2   1  UNL1       -0.2406
     10 C         -30.2825    0.2805   25.9955 C.3     1  UNL1        0.4186
     11 F         -31.1702   -0.4759   26.2005 F       1  UNL1       -0.1659
     12 F         -30.7052    1.5303   26.0916 F       1  UNL1       -0.1659
     13 F         -29.8668    0.0705   24.7631 F       1  UNL1       -0.1659
     14 C         -25.7033    1.4418   27.1336 C.3     1  UNL1        0.0267
     15 C         -24.5631    0.9391   27.4885 C.3     1  UNL1        0.0307
     16 C         -23.6818    1.5651   28.3487 C.2     1  UNL1       -0.0219
     17 C         -22.7276    2.2620   27.5949 C.2     1  UNL1       -0.0046
     18 C         -23.3069    1.0460   29.6341 C.ar    1  UNL1       -0.0039
     19 C         -25.7449    2.6420   26.3572 C.3     1  UNL1        0.0050
     20 C         -23.6201   -0.1906   30.1042 C.ar    1  UNL1        0.0002
     21 C         -24.1729   -0.3280   31.3706 C.ar    1  UNL1        0.0114
     22 C         -24.4918    0.7474   32.1528 C.ar    1  UNL1        0.0577
     23 C         -24.1669    2.0834   31.6125 C.ar    1  UNL1        0.0114
     24 C         -22.7799    1.8352   30.5261 C.ar    1  UNL1        0.0006
     25 CL        -25.3047    0.6816   33.6203 Cl      1  UNL1       -0.0822
     26 C         -23.6071   -1.3571   29.2036 C.2     1  UNL1       -0.0045
     27 C         -24.0561   -2.6276   29.6471 C.2     1  UNL1       -0.0258
     28 C         -24.0360   -3.6995   28.7352 C.3     1  UNL1        0.0307
     29 C         -24.7807   -4.8810   29.1342 C.3     1  UNL1        0.0309
     30 C         -26.1601   -4.8831   29.0221 C.2     1  UNL1       -0.0191
     31 C         -26.8534   -5.0098   30.4220 C.2     1  UNL1        0.0773
     32 C         -28.2458   -4.8360   30.2563 C.2     1  UNL1        0.3412
     33 O         -28.8914   -4.5077   29.2536 O.2     1  UNL1       -0.2449
     34 O         -28.9680   -4.7884   31.4121 O.3     1  UNL1       -0.4413
     35 C         -30.3143   -5.1415   31.4767 C.3     1  UNL1        0.2560
@<TRIPOS>BOND
     1     1     6    1
     2     6     8   ar
     3     6     9   ar
     4     5    10    1
     5    10    11    1
     6    10    12    1
     7    10    13    1
     8     3    14    1
     9    14    15    1
    10    15    16    1
    11    16    17    2
    12    16    18    1
    13    14    19    1
    14    22    25    1
    15    20    26    1
    16    26    27    2
    17    27    28    1
    18    28    29    1
    19    29    30    1
    20    30    31    2
    21    31    32    1
    22    32    33    2
    23    32    34    1
    24    34    35    1
    25     1     2   ar
    26     2     3   ar
    27     3     4   ar
    28     4     5   ar
    29     5     7   ar
    30     7     1   ar
    31    18    20   ar
    32    20    21   ar
    33    21    22   ar
    34    22    23   ar
    35    23    24   ar
    36    24    18   ar
