@<TRIPOS>MOLECULE
No_3527-gen_results/8p0m/2024-11-26-14-13-15/
 13 14 0 0 0
SMALL
GASTEIGER

@<TRIPOS>ATOM
      1 C         -28.0162   -0.8135   28.8779 C.ar    1  UNL1        0.0114
      2 C         -28.4690   -0.7850   29.8287 C.ar    1  UNL1        0.0577
      3 C         -26.5042   -0.7777   28.8766 C.ar    1  UNL1        0.0009
      4 C         -25.6540   -0.6597   27.7191 C.ar    1  UNL1        0.0007
      5 C         -27.9180   -0.9374   31.1824 C.ar    1  UNL1        0.0114
      6 C         -26.5423   -0.9399   31.2606 C.ar    1  UNL1        0.0009
      7 C         -25.7832   -0.8935   30.1201 C.ar    1  UNL1        0.0007
      8 C         -24.3179   -0.2373   27.8436 C.ar    1  UNL1        0.0103
      9 C         -23.6632   -0.4277   29.0855 C.ar    1  UNL1        0.0684
     10 C         -24.3624   -0.6461   30.1936 C.ar    1  UNL1        0.0103
     11 C         -22.1965   -0.1594   29.1256 C.1     1  UNL1        0.1004
     12 N         -21.2459    0.3685   28.7359 N.1     1  UNL1       -0.1908
     13 CL        -30.2851   -0.8924   29.8470 Cl      1  UNL1       -0.0822
@<TRIPOS>BOND
     1     9    11    1
     2    11    12    3
     3     2    13    1
     4     1     2   ar
     5     2     5   ar
     6     5     6   ar
     7     6     7   ar
     8     3     1   ar
     9     3     4   ar
    10     4     8   ar
    11     8     9   ar
    12     9    10   ar
    13    10     7   ar
    14     7     3   ar
