@<TRIPOS>MOLECULE
No_3528-gen_results/8p0m/2024-11-26-14-13-15/
 30 32 0 0 0
SMALL
GASTEIGER

@<TRIPOS>ATOM
      1 O         -28.1229   -1.3353   28.4874 O.2     1  UNL1       -0.2730
      2 C         -27.4806   -0.4044   28.7094 C.2     1  UNL1        0.2460
      3 N         -26.4599   -0.1104   28.0051 N.am    1  UNL1       -0.1794
      4 C         -25.4297    0.8788   28.3572 C.ar    1  UNL1        0.0729
      5 C         -24.3600    1.0559   27.5650 C.ar    1  UNL1        0.0583
      6 C         -27.4856    0.2267   30.1112 C.3     1  UNL1        0.0909
      7 C         -23.1428    1.5624   28.0715 C.ar    1  UNL1        0.1970
      8 C         -23.1267    1.7757   29.5232 C.ar    1  UNL1        0.0418
      9 C         -24.1784    1.5103   30.3488 C.ar    1  UNL1        0.0006
     10 C         -25.3032    0.8940   29.7729 C.ar    1  UNL1       -0.0024
     11 C         -26.4024    0.6834   30.6863 C.3     1  UNL1        0.0542
     12 O         -22.1040    2.0254   27.4008 O.3     1  UNL1       -0.2865
     13 C         -28.7606   -0.0128   30.8339 C.3     1  UNL1        0.0355
     14 C         -29.6659    0.7964   30.6570 C.2     1  UNL1       -0.0289
     15 C         -29.4962    2.0478   30.4669 C.2     1  UNL1       -0.0133
     16 C         -30.5885    3.0544   30.2586 C.3     1  UNL1        0.1205
     17 CL        -31.5146    3.2722   29.9438 Cl      1  UNL1       -0.1086
     18 C         -26.3454    1.0602   32.0663 C.2     1  UNL1       -0.0257
     19 C         -26.0776    0.7970   33.0343 C.2     1  UNL1       -0.0472
     20 C         -25.7371   -0.6629   33.4105 C.3     1  UNL1        0.0260
     21 C         -26.7539    2.6773   32.1100 C.ar    1  UNL1       -0.0040
     22 C         -26.0806    3.6588   31.7814 C.ar    1  UNL1        0.0063
     23 C         -26.5396    4.9901   31.9376 C.ar    1  UNL1        0.0798
     24 C         -27.8380    5.2422   32.2840 C.ar    1  UNL1        0.0066
     25 C         -28.0648    3.0273   32.6914 C.ar    1  UNL1       -0.0003
     26 C         -28.5144    4.2542   32.8420 C.ar    1  UNL1        0.0002
     27 C         -26.1802    1.5348   34.3941 C.3     1  UNL1        0.0260
     28 C         -25.6654    6.1596   31.3398 C.2     1  UNL1        0.3878
     29 O         -25.3949    6.0785   30.1955 O.co2   1  UNL1       -0.2406
     30 O         -25.5841    7.2209   32.0558 O.co2   1  UNL1       -0.2406
@<TRIPOS>BOND
     1     1     2    2
     2     2     3   am
     3     3     4    1
     4     2     6    1
     5     6    11    1
     6    10    11    1
     7     7    12    1
     8     6    13    1
     9    13    14    1
    10    14    15    2
    11    15    16    1
    12    16    17    1
    13    11    18    1
    14    18    19    2
    15    19    20    1
    16    18    21    1
    17    19    27    1
    18    23    28    1
    19    28    29   ar
    20    28    30   ar
    21     4     5   ar
    22     5     7   ar
    23     7     8   ar
    24     8     9   ar
    25     9    10   ar
    26    10     4   ar
    27    21    22   ar
    28    22    23   ar
    29    23    24   ar
    30    24    26   ar
    31    26    25   ar
    32    25    21   ar
