@<TRIPOS>MOLECULE
No_353-gen_results/8p0m/2024-11-26-14-13-15/
 7 7 0 0 0
SMALL
GASTEIGER

@<TRIPOS>ATOM
      1 C         -28.0162   -0.8135   28.8779 C.ar    1  UNL1        0.0023
      2 C         -27.0636   -0.1189   28.6079 C.ar    1  UNL1        0.0296
      3 C         -25.7647   -0.3897   29.0360 C.ar    1  UNL1        0.1401
      4 C         -25.5296   -1.5302   29.9014 C.ar    1  UNL1        0.0296
      5 C         -26.6888   -2.2893   30.1810 C.ar    1  UNL1        0.0023
      6 C         -27.8727   -1.9508   29.7373 C.ar    1  UNL1        0.0001
      7 F         -24.6993    0.3604   28.7753 F       1  UNL1       -0.2042
@<TRIPOS>BOND
     1     3     7    1
     2     1     2   ar
     3     2     3   ar
     4     3     4   ar
     5     4     5   ar
     6     5     6   ar
     7     6     1   ar
