@<TRIPOS>MOLECULE
No_3530-gen_results/8p0m/2024-11-26-14-13-15/
 21 23 0 0 0
SMALL
GASTEIGER

@<TRIPOS>ATOM
      1 C         -28.0162   -0.8135   28.8779 C.3     1  UNL1        0.0420
      2 C         -27.0636   -0.1189   28.6079 C.ar    1  UNL1       -0.0213
      3 C         -25.7923   -0.4302   29.0761 C.ar    1  UNL1       -0.0041
      4 C         -24.5456    0.3494   28.8225 C.ar    1  UNL1        0.0027
      5 C         -24.6586    1.4196   27.8878 C.ar    1  UNL1        0.0192
      6 C         -25.9471    1.6811   27.3792 C.ar    1  UNL1        0.0012
      7 C         -27.0439    0.9739   27.6871 C.ar    1  UNL1       -0.0042
      8 C         -29.2286   -0.0607   29.3105 C.3     1  UNL1        0.1299
      9 C         -29.1858    0.3708   30.4367 C.ar    1  UNL1       -0.0115
     10 C         -30.4182    1.0412   31.0494 C.ar    1  UNL1       -0.0037
     11 C         -30.4158    1.6203   32.3142 C.ar    1  UNL1       -0.0003
     12 C         -29.2361    1.5425   33.0717 C.ar    1  UNL1       -0.0000
     13 C         -28.0703    0.9257   32.5664 C.ar    1  UNL1       -0.0003
     14 C         -28.0458    0.3894   31.2937 C.ar    1  UNL1       -0.0037
     15 C         -23.4432    2.1313   27.5752 C.ar    1  UNL1        0.0988
     16 N         -22.2310    1.7165   28.0696 N.ar    1  UNL1       -0.2423
     17 C         -22.1674    0.6658   28.9775 C.ar    1  UNL1        0.0989
     18 C         -23.2896   -0.0728   29.3675 C.ar    1  UNL1        0.0207
     19 C         -30.3206   -0.0927   28.3911 C.2     1  UNL1        0.3687
     20 O         -31.2058   -0.8722   28.4403 O.co2   1  UNL1       -0.2453
     21 O         -30.5619    1.0892   27.7944 O.co2   1  UNL1       -0.2453
@<TRIPOS>BOND
     1     1     2    1
     2     1     8    1
     3     8    19    1
     4    19    20   ar
     5    19    21   ar
     6     8     9    1
     7     2     3   ar
     8     3     4   ar
     9     5     6   ar
    10     6     7   ar
    11     7     2   ar
    12     9    10   ar
    13    10    11   ar
    14    11    12   ar
    15    12    13   ar
    16    13    14   ar
    17    14     9   ar
    18     4     5   ar
    19     5    15   ar
    20    15    16   ar
    21    16    17   ar
    22    17    18   ar
    23    18     4   ar
