@<TRIPOS>MOLECULE
No_3531-gen_results/8p0m/2024-11-26-14-13-15/
 24 27 0 0 0
SMALL
GASTEIGER

@<TRIPOS>ATOM
      1 CL        -28.1493   -0.8198   28.9079 Cl      1  UNL1       -0.0822
      2 C         -26.9116   -0.0797   28.9452 C.ar    1  UNL1        0.0579
      3 C         -25.9665   -0.2123   29.6235 C.ar    1  UNL1        0.0137
      4 C         -24.7040    0.5534   29.6218 C.ar    1  UNL1        0.0305
      5 C         -24.6011    1.5437   28.6212 C.ar    1  UNL1        0.1402
      6 C         -25.6671    1.7162   27.8026 C.ar    1  UNL1        0.0306
      7 C         -26.7607    0.9618   27.8837 C.ar    1  UNL1        0.0162
      8 F         -23.5246    2.2838   28.6050 F       1  UNL1       -0.2042
      9 C         -27.8460    1.1988   26.8864 C.ar    1  UNL1        0.0434
     10 C         -27.5746    1.0224   25.6092 C.ar    1  UNL1        0.1413
     11 C         -28.6348    1.0309   24.6268 C.ar    1  UNL1        0.0299
     12 C         -29.9256    1.2786   25.0120 C.ar    1  UNL1        0.0081
     13 C         -30.1733    1.4965   26.3733 C.ar    1  UNL1        0.0686
     14 C         -29.1622    1.3866   27.3317 C.ar    1  UNL1        0.0736
     15 F         -26.3541    0.7287   25.1249 F       1  UNL1       -0.2041
     16 C         -31.5483    1.8094   26.8034 C.2     1  UNL1        0.2514
     17 O         -32.5206    1.7609   26.2339 O.2     1  UNL1       -0.2698
     18 N         -31.6459    2.2088   28.2031 N.am    1  UNL1       -0.2602
     19 C         -32.9074    2.5332   28.8066 C.3     1  UNL1        0.0953
     20 C         -33.0921    2.7393   29.7803 C.3     1  UNL1        0.0217
     21 C         -31.9094    2.8141   30.7477 C.3     1  UNL1        0.0053
     22 C         -30.6341    2.5185   30.2523 C.3     1  UNL1        0.0424
     23 C         -30.5363    2.1987   28.9837 C.3     1  UNL1        0.1693
     24 N         -29.3475    1.8485   28.4795 N.pl3   1  UNL1       -0.2189
@<TRIPOS>BOND
     1     1     2    1
     2     5     8    1
     3     7     9    1
     4    10    15    1
     5    13    16    1
     6    16    17    2
     7    16    18   am
     8    18    19    1
     9    20    21    1
    10    18    23    1
    11    22    23    1
    12    14    24    1
    13    24    23    1
    14    19    20    1
    15    21    22    1
    16     2     3   ar
    17     3     4   ar
    18     4     5   ar
    19     5     6   ar
    20     6     7   ar
    21     7     2   ar
    22     9    10   ar
    23    10    11   ar
    24    11    12   ar
    25    12    13   ar
    26    13    14   ar
    27    14     9   ar
