@<TRIPOS>MOLECULE
No_3532-gen_results/8p0m/2024-11-26-14-13-15/
 21 22 0 0 0
SMALL
GASTEIGER

@<TRIPOS>ATOM
      1 C         -28.0162   -0.8135   28.8779 C.ar    1  UNL1       -0.0000
      2 C         -27.0636   -0.1189   28.6079 C.ar    1  UNL1       -0.0003
      3 C         -25.7647   -0.3897   29.0360 C.ar    1  UNL1       -0.0040
      4 C         -24.5516    0.4058   28.7646 C.ar    1  UNL1       -0.0224
      5 C         -23.2300    0.1178   29.2575 C.ar    1  UNL1       -0.0043
      6 C         -23.0942   -1.1309   29.8730 C.ar    1  UNL1       -0.0003
      7 C         -27.7981   -1.9341   29.8560 C.ar    1  UNL1       -0.0000
      8 C         -26.5420   -2.3269   30.2580 C.ar    1  UNL1       -0.0000
      9 C         -25.4514   -1.5516   29.9079 C.ar    1  UNL1       -0.0003
     10 C         -24.1562   -1.9097   30.2809 C.ar    1  UNL1       -0.0000
     11 C         -24.6450    1.6582   27.9464 C.3     1  UNL1        0.0249
     12 C         -25.0764    1.5784   26.6992 C.3     1  UNL1        0.0400
     13 C         -25.3850    2.7037   28.7449 C.3     1  UNL1        0.0044
     14 C         -25.6691    3.9306   28.0970 C.3     1  UNL1        0.0003
     15 C         -26.0497    3.7900   26.7260 C.3     1  UNL1        0.0000
     16 C         -25.2553    2.8754   25.9397 C.3     1  UNL1        0.1851
     17 C         -23.7947    3.4611   26.0280 C.3     1  UNL1        0.2147
     18 C         -26.2619    5.1307   26.0480 C.3     1  UNL1        0.0000
     19 C         -27.5452    3.1663   26.6972 C.3     1  UNL1        0.0000
     20 O         -25.7518    2.6291   24.7216 O.3     1  UNL1       -0.2203
     21 O         -24.3139    3.1432   25.5691 O.3     1  UNL1       -0.2176
@<TRIPOS>BOND
     1     4    11    1
     2    11    12    1
     3    11    13    1
     4    13    14    1
     5    14    15    1
     6    12    16    1
     7    16    17    1
     8    15    18    1
     9    15    19    1
    10    16    20    1
    11    17    21    1
    12     1     2   ar
    13     2     3   ar
    14     9     8   ar
    15     8     7   ar
    16     7     1   ar
    17     3     4   ar
    18     4     5   ar
    19     5     6   ar
    20     6    10   ar
    21    10     9   ar
    22     9     3   ar
