@<TRIPOS>MOLECULE
No_3533-gen_results/8p0m/2024-11-26-14-13-15/
 15 16 0 0 0
SMALL
GASTEIGER

@<TRIPOS>ATOM
      1 C         -28.0162   -0.8135   28.8779 C.ar    1  UNL1        0.0046
      2 C         -28.4690   -0.7850   29.8287 C.ar    1  UNL1        0.0001
      3 C         -27.0871    0.2903   28.6377 C.ar    1  UNL1        0.0554
      4 C         -26.8317    1.2487   29.5869 C.ar    1  UNL1        0.0046
      5 C         -28.3914    0.0801   31.0065 C.ar    1  UNL1        0.0000
      6 C         -27.4940    1.1521   30.7841 C.ar    1  UNL1        0.0001
      7 C         -26.3172    0.3994   27.3653 C.2     1  UNL1        0.2690
      8 N         -25.0720    0.1570   27.4305 N.am    1  UNL1       -0.1754
      9 O         -26.8935    0.6376   26.2796 O.2     1  UNL1       -0.2680
     10 C         -24.2685   -0.0655   28.6293 C.ar    1  UNL1        0.0737
     11 C         -23.9463   -1.2533   29.0440 C.ar    1  UNL1        0.0166
     12 C         -23.0627   -1.3770   30.1392 C.ar    1  UNL1        0.0013
     13 C         -22.6190   -0.2282   30.8019 C.ar    1  UNL1        0.0001
     14 C         -23.7143    1.1253   29.2733 C.ar    1  UNL1        0.0166
     15 C         -22.9347    0.9872   30.3855 C.ar    1  UNL1        0.0013
@<TRIPOS>BOND
     1     3     7    1
     2     7     8   am
     3     7     9    2
     4     8    10    1
     5    10    11   ar
     6    11    12   ar
     7    12    13   ar
     8    13    15   ar
     9    15    14   ar
    10    14    10   ar
    11     1     2   ar
    12     2     5   ar
    13     5     6   ar
    14     6     4   ar
    15     4     3   ar
    16     3     1   ar
