@<TRIPOS>MOLECULE
No_3534-gen_results/8p0m/2024-11-26-14-13-15/
 11 11 0 0 0
SMALL
GASTEIGER

@<TRIPOS>ATOM
      1 C         -28.0162   -0.8135   28.8779 C.ar    1  UNL1        0.0047
      2 C         -27.0636   -0.1189   28.6079 C.ar    1  UNL1        0.0113
      3 C         -25.7647   -0.3897   29.0360 C.ar    1  UNL1        0.0577
      4 C         -25.5296   -1.5302   29.9014 C.ar    1  UNL1        0.0113
      5 C         -26.6888   -2.2893   30.1810 C.ar    1  UNL1        0.0047
      6 C         -27.8727   -1.9508   29.7373 C.ar    1  UNL1        0.0715
      7 CL        -24.3819    0.5593   28.6789 Cl      1  UNL1       -0.0822
      8 C         -29.0263   -2.8156   30.1581 C.3     1  UNL1        0.4186
      9 F         -29.2659   -2.7366   31.4779 F       1  UNL1       -0.1659
     10 F         -30.1172   -2.4124   29.5280 F       1  UNL1       -0.1659
     11 F         -28.7862   -4.1038   29.8918 F       1  UNL1       -0.1659
@<TRIPOS>BOND
     1     3     7    1
     2     6     8    1
     3     8     9    1
     4     8    10    1
     5     8    11    1
     6     1     2   ar
     7     2     3   ar
     8     3     4   ar
     9     4     5   ar
    10     5     6   ar
    11     6     1   ar
