@<TRIPOS>MOLECULE
No_3535-gen_results/8p0m/2024-11-26-14-13-15/
 13 13 0 0 0
SMALL
GASTEIGER

@<TRIPOS>ATOM
      1 C         -28.0162   -0.8135   28.8779 C.ar    1  UNL1       -0.0039
      2 C         -28.4690   -0.7850   29.8287 C.ar    1  UNL1       -0.0003
      3 C         -28.1960    0.3478   28.0550 C.ar    1  UNL1       -0.0178
      4 C         -29.0191    1.3501   28.3782 C.ar    1  UNL1       -0.0039
      5 C         -29.4107    0.1803   30.3782 C.ar    1  UNL1       -0.0000
      6 C         -29.6059    1.2495   29.6193 C.ar    1  UNL1       -0.0003
      7 C         -27.4597    0.3802   26.7091 C.3     1  UNL1        0.0520
      8 C         -26.0094    0.3317   26.7236 C.2     1  UNL1       -0.0256
      9 C         -25.3055    0.0239   27.8527 C.2     1  UNL1       -0.0257
     10 C         -23.8827    0.0654   27.8432 C.3     1  UNL1        0.0513
     11 C         -23.1476   -0.3454   29.0139 C.2     1  UNL1       -0.0260
     12 C         -23.7650   -1.1761   29.9476 C.2     1  UNL1       -0.0300
     13 C         -25.1285   -1.3233   29.9089 C.3     1  UNL1        0.0304
@<TRIPOS>BOND
     1     3     7    1
     2     7     8    1
     3     8     9    2
     4     9    10    1
     5    10    11    1
     6    11    12    2
     7    12    13    1
     8     1     2   ar
     9     2     5   ar
    10     5     6   ar
    11     6     4   ar
    12     4     3   ar
    13     3     1   ar
