@<TRIPOS>MOLECULE
No_3536-gen_results/8p0m/2024-11-26-14-13-15/
 13 13 0 0 0
SMALL
GASTEIGER

@<TRIPOS>ATOM
      1 C         -28.0162   -0.8135   28.8779 C.ar    1  UNL1        0.0104
      2 C         -28.4690   -0.7850   29.8287 C.ar    1  UNL1        0.0797
      3 C         -26.5042   -0.7777   28.8766 C.ar    1  UNL1        0.0716
      4 C         -25.6540   -0.6597   27.7191 C.3     1  UNL1        0.4186
      5 C         -27.9180   -0.9374   31.1824 C.ar    1  UNL1        0.0066
      6 C         -26.5423   -0.9399   31.2606 C.ar    1  UNL1        0.0002
      7 C         -25.7832   -0.8935   30.1201 C.ar    1  UNL1        0.0039
      8 F         -25.4163    0.5023   27.4711 F       1  UNL1       -0.1659
      9 F         -24.4331   -1.3297   27.9336 F       1  UNL1       -0.1659
     10 F         -26.2209   -1.1618   26.6042 F       1  UNL1       -0.1659
     11 C         -30.0519   -0.8059   29.8911 C.2     1  UNL1        0.3877
     12 O         -30.6647   -0.2288   30.7856 O.co2   1  UNL1       -0.2406
     13 O         -30.6267   -1.3395   28.9031 O.co2   1  UNL1       -0.2406
@<TRIPOS>BOND
     1     3     4    1
     2     4     8    1
     3     4     9    1
     4     4    10    1
     5     2    11    1
     6    11    12   ar
     7    11    13   ar
     8     1     2   ar
     9     2     5   ar
    10     5     6   ar
    11     6     7   ar
    12     7     3   ar
    13     3     1   ar
