@<TRIPOS>MOLECULE
No_3537-gen_results/8p0m/2024-11-26-14-13-15/
 35 38 0 0 0
SMALL
GASTEIGER

@<TRIPOS>ATOM
      1 C         -28.0162   -0.8135   28.8779 C.ar    1  UNL1        0.0047
      2 C         -27.0636   -0.1190   28.6079 C.ar    1  UNL1        0.0064
      3 C         -25.7923   -0.4302   29.0761 C.ar    1  UNL1        0.0004
      4 C         -24.5456    0.3494   28.8225 C.ar    1  UNL1        0.0046
      5 C         -24.6586    1.4196   27.8878 C.ar    1  UNL1        0.0569
      6 C         -25.9471    1.6811   27.3792 C.ar    1  UNL1        0.0111
      7 C         -27.0439    0.9739   27.6871 C.ar    1  UNL1        0.0762
      8 C         -28.0241   -1.6475   30.1263 C.ar    1  UNL1        0.0539
      9 C         -26.7278   -2.0846   30.5807 C.ar    1  UNL1        0.0045
     10 C         -25.5915   -1.4064   30.1489 C.ar    1  UNL1        0.0002
     11 C         -23.4497    2.1789   27.5290 C.2     1  UNL1        0.2842
     12 O         -23.5928    3.1847   26.8636 O.2     1  UNL1       -0.2667
     13 N         -22.2086    1.7829   27.9165 N.am    1  UNL1       -0.0837
     14 C         -29.1653   -2.4656   30.5389 C.2     1  UNL1        0.2528
     15 O         -29.1062   -3.6247   30.8778 O.2     1  UNL1       -0.2696
     16 N         -30.2197   -1.7231   30.9577 N.am    1  UNL1       -0.2543
     17 C         -31.4264   -2.3881   31.5023 C.2     1  UNL1        0.0362
     18 C         -28.3386    1.3563   27.0413 C.2     1  UNL1        0.3454
     19 O         -29.0959    2.0262   27.5334 O.2     1  UNL1       -0.2445
     20 O         -28.6005    0.4922   25.9422 O.3     1  UNL1       -0.4255
     21 C         -29.3935    1.0349   24.9328 C.2     1  UNL1        0.1263
     22 C         -30.4068   -0.2844   30.7587 C.3     1  UNL1        0.1244
     23 C         -31.3936    0.1177   29.9303 C.ar    1  UNL1       -0.0056
     24 C         -31.3941    1.2071   29.5174 C.ar    1  UNL1       -0.0029
     25 C         -32.4832    1.6763   28.5996 C.ar    1  UNL1       -0.0003
     26 C         -33.4289    0.7432   28.2485 C.ar    1  UNL1       -0.0003
     27 C         -33.3578   -0.5420   28.7344 C.ar    1  UNL1       -0.0042
     28 C         -32.3774   -0.8441   29.5551 C.ar    1  UNL1       -0.0188
     29 C         -31.3701   -3.1911   32.3424 C.2     1  UNL1        0.0118
     30 C         -32.6678   -1.7678   30.9173 C.3     1  UNL1        0.0675
     31 C         -29.1625    2.0073   24.4290 C.2     1  UNL1        0.0076
     32 C         -30.6466    0.3482   24.7239 C.3     1  UNL1        0.0902
     33 C         -31.5576    0.7930   23.7975 C.2     1  UNL1       -0.0182
     34 C         -27.8736    2.7867   24.6412 C.3     1  UNL1        0.0336
     35 C         -31.2507    1.9716   23.1247 C.2     1  UNL1       -0.0045
@<TRIPOS>BOND
     1     5    11    1
     2    11    12    2
     3    11    13   am
     4     8    14    1
     5    14    15    2
     6    14    16   am
     7    16    17    1
     8     7    18    1
     9    18    19    2
    10    18    20    1
    11    20    21    1
    12    16    22    1
    13    22    23    1
    14    17    29    2
    15    17    30    1
    16    28    30    1
    17    21    31    2
    18    21    32    1
    19    32    33    1
    20    31    34    1
    21    33    35    2
    22     3     4   ar
    23     4     5   ar
    24     5     6   ar
    25     6     7   ar
    26     7     2   ar
    27     1     2   ar
    28     2     3   ar
    29     3    10   ar
    30    10     9   ar
    31     9     8   ar
    32     8     1   ar
    33    23    24   ar
    34    24    25   ar
    35    25    26   ar
    36    26    27   ar
    37    27    28   ar
    38    28    23   ar
