@<TRIPOS>MOLECULE
No_354-gen_results/8p0m/2024-11-26-14-13-15/
 7 6 0 0 0
SMALL
GASTEIGER

@<TRIPOS>ATOM
      1 CL        -28.1493   -0.8198   28.9079 Cl      1  UNL1       -0.0814
      2 C         -26.9116   -0.0797   28.9452 C.2     1  UNL1        0.0682
      3 C         -25.9665   -0.2123   29.6235 C.2     1  UNL1        0.0119
      4 C         -25.9054   -1.3665   30.6197 C.2     1  UNL1       -0.0028
      5 C         -27.1005   -2.1600   30.5646 C.2     1  UNL1       -0.0138
      6 C         -28.1170   -1.9222   29.8499 C.3     1  UNL1        0.0935
      7 BR        -29.6845   -2.9052   29.9382 Br      1  UNL1       -0.0756
@<TRIPOS>BOND
     1     1     2    1
     2     2     3    2
     3     3     4    1
     4     4     5    2
     5     5     6    1
     6     6     7    1
