@<TRIPOS>MOLECULE
No_3540-gen_results/8p0m/2024-11-26-14-13-15/
 16 17 0 0 0
SMALL
GASTEIGER

@<TRIPOS>ATOM
      1 F         -28.0727   -1.2542   28.5316 F       1  UNL1       -0.2042
      2 C         -27.3591   -0.3792   28.7224 C.ar    1  UNL1        0.1401
      3 C         -26.3323   -0.6441   29.4520 C.ar    1  UNL1        0.0298
      4 C         -25.2562    0.3203   29.7818 C.ar    1  UNL1        0.0089
      5 C         -25.4242    1.6275   29.2026 C.ar    1  UNL1        0.0799
      6 C         -26.5263    1.8254   28.4032 C.ar    1  UNL1        0.0088
      7 C         -27.4513    0.8601   28.1355 C.ar    1  UNL1        0.0277
      8 C         -28.5362    1.1997   27.2520 C.ar    1  UNL1        0.0022
      9 C         -28.3742    1.8466   26.1533 C.ar    1  UNL1        0.0001
     10 C         -29.4528    2.1733   25.1922 C.ar    1  UNL1        0.0000
     11 C         -30.6813    1.6095   25.4509 C.ar    1  UNL1        0.0000
     12 C         -30.8316    0.8133   26.5788 C.ar    1  UNL1        0.0000
     13 C         -29.8103    0.5919   27.4511 C.ar    1  UNL1        0.0001
     14 C         -24.4314    2.6340   29.5104 C.2     1  UNL1        0.3878
     15 O         -23.8015    2.5331   30.5160 O.co2   1  UNL1       -0.2406
     16 O         -24.1129    3.4757   28.5590 O.co2   1  UNL1       -0.2406
@<TRIPOS>BOND
     1     1     2    1
     2     7     8    1
     3     5    14    1
     4    14    15   ar
     5    14    16   ar
     6     2     3   ar
     7     3     4   ar
     8     4     5   ar
     9     5     6   ar
    10     6     7   ar
    11     7     2   ar
    12     8     9   ar
    13     9    10   ar
    14    10    11   ar
    15    11    12   ar
    16    12    13   ar
    17    13     8   ar
