@<TRIPOS>MOLECULE
No_3542-gen_results/8p0m/2024-11-26-14-13-15/
 28 31 0 0 0
SMALL
GASTEIGER

@<TRIPOS>ATOM
      1 C         -28.0162   -0.8135   28.8779 C.3     1  UNL1        0.4186
      2 C         -27.0636   -0.1190   28.6079 C.ar    1  UNL1        0.0712
      3 C         -27.0010    0.6913   27.4910 C.ar    1  UNL1        0.0038
      4 C         -25.7770    1.0214   26.9135 C.ar    1  UNL1        0.0038
      5 C         -24.5088    0.7364   27.5686 C.ar    1  UNL1        0.0033
      6 C         -24.5104    0.5132   28.5850 C.ar    1  UNL1        0.0128
      7 C         -25.7477   -0.3195   29.2844 C.ar    1  UNL1        0.0026
      8 F         -27.8004   -1.9661   29.4417 F       1  UNL1       -0.1659
      9 F         -28.8130   -0.1223   29.8608 F       1  UNL1       -0.1659
     10 C         -23.3135    1.5103   27.0047 C.ar    1  UNL1        0.0549
     11 C         -23.2931    2.0781   25.7842 C.ar    1  UNL1        0.0045
     12 C         -22.0757    1.4869   27.7619 C.2     1  UNL1        0.2663
     13 N         -22.0093    1.0770   28.9875 N.am    1  UNL1       -0.1822
     14 C         -23.2143    0.3728   29.4884 C.3     1  UNL1        0.1780
     15 N         -23.1076   -0.1433   30.7111 N.3     1  UNL1       -0.2535
     16 C         -22.6793   -1.3931   30.8619 C.3     1  UNL1        0.0739
     17 C         -23.3434    0.4849   31.7279 C.3     1  UNL1        0.0739
     18 C         -23.7324   -0.3347   32.8841 C.3     1  UNL1        0.0174
     19 C         -24.2608   -1.4074   32.9732 C.3     1  UNL1        0.0029
     20 C         -23.4518   -2.1378   31.8434 C.3     1  UNL1        0.0174
     21 F         -28.9068   -0.8807   27.8901 F       1  UNL1       -0.1659
     22 C         -25.8814    1.6937   25.5583 C.ar    1  UNL1        0.0714
     23 C         -24.5768    2.1507   25.0599 C.ar    1  UNL1        0.0040
     24 O         -21.0269    2.0078   27.3150 O.2     1  UNL1       -0.2683
     25 C         -26.9676    1.7580   24.8098 C.3     1  UNL1        0.4186
     26 F         -27.4554    2.8893   24.5366 F       1  UNL1       -0.1659
     27 F         -26.8547    1.0145   23.6789 F       1  UNL1       -0.1659
     28 F         -28.1141    1.1685   25.3722 F       1  UNL1       -0.1659
@<TRIPOS>BOND
     1     1     2    1
     2     1     8    1
     3     1     9    1
     4    10    12    1
     5    12    13   am
     6     6    14    1
     7    14    15    1
     8    15    16    1
     9    15    17    1
    10    18    19    1
    11    16    20    1
    12     1    21    1
    13    12    24    2
    14    22    25    1
    15    25    26    1
    16    25    27    1
    17    25    28    1
    18    20    19    1
    19    18    17    1
    20    14    13    1
    21     2     3   ar
    22     3     4   ar
    23     5     6   ar
    24     6     7   ar
    25     7     2   ar
    26     4     5   ar
    27     5    10   ar
    28    10    11   ar
    29    11    23   ar
    30    23    22   ar
    31    22     4   ar
