@<TRIPOS>MOLECULE
No_3544-gen_results/8p0m/2024-11-26-14-13-15/
 35 36 0 0 0
SMALL
GASTEIGER

@<TRIPOS>ATOM
      1 C         -28.0162   -0.8135   28.8779 C.ar    1  UNL1        0.0392
      2 C         -27.0636   -0.1189   28.6079 C.ar    1  UNL1        0.0327
      3 C         -25.7923   -0.4302   29.0761 C.ar    1  UNL1        0.1403
      4 C         -25.5756   -1.5654   29.9363 C.ar    1  UNL1        0.0327
      5 C         -26.7354   -2.3004   30.2173 C.ar    1  UNL1        0.0392
      6 C         -27.9184   -1.9537   29.7629 C.ar    1  UNL1        0.1388
      7 O         -29.0001   -2.7012   30.1151 O.3     1  UNL1       -0.4736
      8 F         -24.6795    0.2962   28.8383 F       1  UNL1       -0.2042
      9 C         -29.3688   -2.8298   31.4447 C.3     1  UNL1        0.2314
     10 C         -29.7517   -4.1390   31.7396 C.3     1  UNL1        0.2128
     11 C         -30.0088   -4.3981   33.0606 C.3     1  UNL1        0.4154
     12 F         -31.0651   -3.9729   33.5049 F       1  UNL1       -0.1683
     13 F         -28.9726   -3.8650   33.8053 F       1  UNL1       -0.1683
     14 N         -30.7564   -4.7060   30.8905 N.3     1  UNL1       -0.1903
     15 C         -30.5306   -5.5331   29.8396 C.3     1  UNL1        0.1641
     16 N         -31.5404   -5.8678   29.0279 N.3     1  UNL1       -0.2577
     17 C         -31.3298   -6.5229   27.8801 C.3     1  UNL1        0.0734
     18 F         -29.9366   -5.8024   33.2604 F       1  UNL1       -0.1683
     19 C         -31.9939   -7.6415   27.6096 C.3     1  UNL1        0.0177
     20 C         -32.3966   -8.3042   28.5958 C.3     1  UNL1        0.0068
     21 C         -32.7556   -6.2879   29.4730 C.3     1  UNL1        0.0773
     22 C         -32.9785   -7.6336   29.6290 C.3     1  UNL1        0.0334
     23 C         -34.3576   -8.0789   29.9402 C.2     1  UNL1       -0.0254
     24 C         -34.9673   -7.7929   30.8595 C.2     1  UNL1       -0.0047
     25 C         -35.7519   -7.7357   31.5161 C.2     1  UNL1       -0.0000
     26 C         -36.6980   -7.5944   32.4882 C.2     1  UNL1        0.0335
     27 C         -37.6908   -8.3665   32.5833 C.3     1  UNL1        0.0359
     28 C         -36.5524   -6.4385   33.4217 C.2     1  UNL1        0.2650
     29 N         -35.6755   -5.6973   33.5603 N.am    1  UNL1       -0.1744
     30 O         -37.5111   -6.2925   34.3021 O.2     1  UNL1       -0.2684
     31 C         -35.1581   -4.8488   33.7101 C.2     1  UNL1        0.0890
     32 C         -34.0715   -4.2249   32.9411 C.2     1  UNL1        0.0193
     33 C         -32.0861   -8.0246   30.9773 C.3     1  UNL1        0.0054
     34 C         -31.6444   -9.2992   31.0829 C.3     1  UNL1        0.0004
     35 C         -30.7519   -9.4462   32.2357 C.3     1  UNL1        0.0000
@<TRIPOS>BOND
     1     6     7    1
     2     3     8    1
     3     7     9    1
     4     9    10    1
     5    10    11    1
     6    11    12    1
     7    11    13    1
     8    10    14    1
     9    14    15    1
    10    15    16    1
    11    16    17    1
    12    11    18    1
    13    19    20    1
    14    16    21    1
    15    20    22    1
    16    21    22    1
    17    22    23    1
    18    23    24    2
    19    24    25    1
    20    25    26    2
    21    26    27    1
    22    26    28    1
    23    28    29   am
    24    28    30    2
    25    29    31    1
    26    31    32    2
    27    22    33    1
    28    33    34    1
    29    34    35    1
    30    17    19    1
    31     1     2   ar
    32     2     3   ar
    33     3     4   ar
    34     4     5   ar
    35     5     6   ar
    36     6     1   ar
