@<TRIPOS>MOLECULE
No_3545-gen_results/8p0m/2024-11-26-14-13-15/
 20 22 0 0 0
SMALL
GASTEIGER

@<TRIPOS>ATOM
      1 C         -28.0162   -0.8135   28.8779 C.ar    1  UNL1        0.0046
      2 C         -28.4690   -0.7850   29.8287 C.ar    1  UNL1        0.0554
      3 C         -26.5455   -0.8762   28.8500 C.ar    1  UNL1       -0.0002
      4 C         -25.8041   -1.0324   30.0571 C.ar    1  UNL1       -0.0036
      5 C         -27.9437   -0.9869   31.2075 C.ar    1  UNL1        0.0046
      6 C         -26.5825   -1.0386   31.2231 C.ar    1  UNL1       -0.0002
      7 C         -24.3810   -1.1082   30.0855 C.2     1  UNL1       -0.0178
      8 C         -23.7590   -1.1322   30.8961 C.2     1  UNL1       -0.0043
      9 C         -22.2395   -1.0663   30.9853 C.2     1  UNL1       -0.0045
     10 C         -21.8504   -0.6104   29.7311 C.2     1  UNL1       -0.0214
     11 C         -23.4704   -0.5791   28.9040 C.3     1  UNL1        0.0523
     12 C         -30.0972   -0.6869   29.8753 C.2     1  UNL1        0.2690
     13 O         -30.5219   -0.1805   28.9466 O.2     1  UNL1       -0.2680
     14 N         -30.7980   -1.1537   30.9246 N.am    1  UNL1       -0.1754
     15 C         -32.2338   -1.0546   30.9057 C.ar    1  UNL1        0.0737
     16 C         -32.8837   -1.4540   31.6550 C.ar    1  UNL1        0.0166
     17 C         -34.3410   -1.3647   31.6810 C.ar    1  UNL1        0.0013
     18 C         -34.9017   -0.6936   30.5624 C.ar    1  UNL1        0.0001
     19 C         -34.0619   -0.2154   29.5947 C.ar    1  UNL1        0.0013
     20 C         -32.7299   -0.3226   29.6973 C.ar    1  UNL1        0.0166
@<TRIPOS>BOND
     1     4     7    1
     2     7     8    2
     3     8     9    1
     4     9    10    2
     5     7    11    1
     6    10    11    1
     7     2    12    1
     8    12    13    2
     9    12    14   am
    10    14    15    1
    11    15    16   ar
    12    16    17   ar
    13    17    18   ar
    14    18    19   ar
    15    19    20   ar
    16    20    15   ar
    17     1     2   ar
    18     2     5   ar
    19     5     6   ar
    20     6     4   ar
    21     4     3   ar
    22     3     1   ar
