@<TRIPOS>MOLECULE
No_3546-gen_results/8p0m/2024-11-26-14-13-15/
 18 19 0 0 0
SMALL
GASTEIGER

@<TRIPOS>ATOM
      1 C         -28.0162   -0.8135   28.8779 C.ar    1  UNL1        0.0024
      2 C         -28.4690   -0.7850   29.8287 C.ar    1  UNL1        0.0795
      3 C         -27.1356    0.2359   28.5352 C.ar    1  UNL1       -0.0192
      4 C         -26.3351    0.2900   27.2835 C.3     1  UNL1        0.0272
      5 C         -29.3807   -1.9134   30.3549 C.2     1  UNL1        0.3877
      6 C         -28.2295    0.3010   30.9036 C.ar    1  UNL1        0.0066
      7 C         -25.3800    1.2740   27.0672 C.3     1  UNL1        0.0210
      8 C         -27.4150    1.3108   30.6139 C.ar    1  UNL1        0.0027
      9 C         -26.7451    1.3177   29.4039 C.ar    1  UNL1        0.0310
     10 C         -25.1639    2.3202   27.9821 C.3     1  UNL1        0.1569
     11 C         -25.8103    2.3449   29.1044 C.2     1  UNL1        0.1806
     12 O         -30.4697   -2.0580   30.0703 O.co2   1  UNL1       -0.2406
     13 O         -28.7984   -2.8826   31.1654 O.co2   1  UNL1       -0.2406
     14 C         -24.1341    3.3384   27.5398 C.3     1  UNL1        0.4043
     15 F         -23.4008    3.1029   26.5637 F       1  UNL1       -0.1696
     16 F         -23.2344    3.7032   28.4126 F       1  UNL1       -0.1696
     17 F         -24.8031    4.5666   27.4136 F       1  UNL1       -0.1696
     18 O         -25.6134    3.3171   30.0692 O.2     1  UNL1       -0.2911
@<TRIPOS>BOND
     1     3     4    1
     2     2     5    1
     3     7    10    1
     4     9    11    1
     5    10    11    1
     6     5    12   ar
     7     5    13   ar
     8    10    14    1
     9    14    15    1
    10    14    16    1
    11    14    17    1
    12    11    18    2
    13     4     7    1
    14     1     2   ar
    15     2     6   ar
    16     6     8   ar
    17     8     9   ar
    18     9     3   ar
    19     3     1   ar
