@<TRIPOS>MOLECULE
No_3548-gen_results/8p0m/2024-11-26-14-13-15/
 15 16 0 0 0
SMALL
GASTEIGER

@<TRIPOS>ATOM
      1 C         -28.0162   -0.8135   28.8779 C.ar    1  UNL1        0.0111
      2 C         -28.4690   -0.7850   29.8287 C.ar    1  UNL1        0.0008
      3 C         -26.5455   -0.8762   28.8500 C.ar    1  UNL1        0.0537
      4 C         -25.8041   -1.0324   30.0571 C.ar    1  UNL1       -0.0110
      5 C         -26.5373   -1.0386   31.2171 C.ar    1  UNL1       -0.0034
      6 C         -27.8843   -0.9532   31.1862 C.ar    1  UNL1       -0.0003
      7 C         -24.3655   -1.1134   30.0483 C.3     1  UNL1        0.0359
      8 C         -23.6925    0.1188   29.9185 C.3     1  UNL1        0.0483
      9 C         -23.9863    1.2743   30.4522 C.2     1  UNL1       -0.0217
     10 C         -22.4570    0.1164   29.0535 C.2     1  UNL1       -0.0217
     11 C         -21.9636    1.2534   28.4456 C.2     1  UNL1       -0.0042
     12 C         -24.0528    2.2374   30.0959 C.2     1  UNL1       -0.0042
     13 C         -22.7998    2.3229   28.2684 C.2     1  UNL1       -0.0003
     14 C         -23.3533    3.0110   29.1756 C.2     1  UNL1       -0.0003
     15 CL        -25.6383   -0.6814   27.3682 Cl      1  UNL1       -0.0826
@<TRIPOS>BOND
     1     4     7    1
     2     7     8    1
     3     8     9    1
     4     8    10    1
     5    10    11    2
     6     9    12    2
     7    11    13    1
     8    12    14    1
     9    13    14    2
    10     3    15    1
    11     1     2   ar
    12     2     6   ar
    13     6     5   ar
    14     5     4   ar
    15     4     3   ar
    16     3     1   ar
