@<TRIPOS>MOLECULE
No_3549-gen_results/8p0m/2024-11-26-14-13-15/
 21 23 0 0 0
SMALL
GASTEIGER

@<TRIPOS>ATOM
      1 C         -28.0162   -0.8135   28.8779 C.ar    1  UNL1       -0.0000
      2 C         -28.4690   -0.7850   29.8287 C.ar    1  UNL1       -0.0000
      3 C         -27.1356    0.2359   28.5352 C.ar    1  UNL1       -0.0003
      4 C         -26.8745    1.2825   29.3982 C.ar    1  UNL1       -0.0000
      5 C         -28.3613    0.1987   30.9244 C.ar    1  UNL1       -0.0000
      6 C         -27.5277    1.2234   30.6356 C.ar    1  UNL1       -0.0000
      7 C         -26.3987    0.2949   27.2279 C.2     1  UNL1       -0.0040
      8 C         -26.9022    0.7280   26.2134 C.2     1  UNL1       -0.0218
      9 C         -28.2290    1.2592   26.1972 C.ar    1  UNL1       -0.0040
     10 C         -28.8635    1.6435   27.2292 C.ar    1  UNL1       -0.0003
     11 C         -30.1847    2.3713   26.9598 C.ar    1  UNL1       -0.0000
     12 C         -30.5969    2.4773   25.6524 C.ar    1  UNL1       -0.0000
     13 C         -28.6567    1.6903   24.8535 C.ar    1  UNL1       -0.0003
     14 C         -29.8414    2.2292   24.6172 C.ar    1  UNL1       -0.0000
     15 C         -25.0878   -0.3383   27.3889 C.ar    1  UNL1       -0.0003
     16 C         -24.7252   -1.1580   28.4015 C.ar    1  UNL1       -0.0000
     17 C         -23.5764   -1.1064   29.1587 C.ar    1  UNL1       -0.0000
     18 C         -22.6009   -0.1799   28.5971 C.ar    1  UNL1       -0.0000
     19 C         -22.8845    0.7219   27.5975 C.ar    1  UNL1       -0.0000
     20 C         -24.1194    0.7804   27.0503 C.ar    1  UNL1       -0.0000
     21 C         -26.5217   -0.0282   24.9533 C.3     1  UNL1        0.0310
@<TRIPOS>BOND
     1     3     7    1
     2     7     8    2
     3     8     9    1
     4     7    15    1
     5     8    21    1
     6    15    16   ar
     7    16    17   ar
     8    17    18   ar
     9    18    19   ar
    10    19    20   ar
    11    20    15   ar
    12     1     2   ar
    13     2     5   ar
    14     5     6   ar
    15     6     4   ar
    16     4     3   ar
    17     3     1   ar
    18     9    10   ar
    19    10    11   ar
    20    11    12   ar
    21    12    14   ar
    22    14    13   ar
    23    13     9   ar
