@<TRIPOS>MOLECULE
No_3550-gen_results/8p0m/2024-11-26-14-13-15/
 21 23 0 0 0
SMALL
GASTEIGER

@<TRIPOS>ATOM
      1 C         -28.0162   -0.8135   28.8779 C.ar    1  UNL1        0.0376
      2 C         -27.0636   -0.1189   28.6079 C.ar    1  UNL1        0.0031
      3 C         -25.7647   -0.3897   29.0360 C.ar    1  UNL1        0.0002
      4 C         -25.5296   -1.5302   29.9014 C.ar    1  UNL1        0.0031
      5 C         -26.6888   -2.2893   30.1810 C.ar    1  UNL1        0.0376
      6 C         -27.8727   -1.9508   29.7373 C.ar    1  UNL1        0.1488
      7 C         -24.5491    0.4100   28.7341 C.ar    1  UNL1        0.0000
      8 C         -23.3309    0.0437   29.0569 C.ar    1  UNL1        0.0000
      9 C         -22.1994    0.8236   28.7067 C.ar    1  UNL1        0.0000
     10 C         -22.3657    1.8184   27.6957 C.ar    1  UNL1        0.0000
     11 C         -24.6193    1.4577   27.7557 C.ar    1  UNL1        0.0000
     12 C         -23.5641    2.1491   27.3161 C.ar    1  UNL1        0.0000
     13 O         -28.9636   -2.6960   30.1049 O.3     1  UNL1       -0.4210
     14 C         -28.8171   -3.9503   30.6428 C.2     1  UNL1        0.3472
     15 C         -29.8202   -4.2102   31.6549 C.ar    1  UNL1        0.0951
     16 C         -30.2050   -3.2610   32.3389 C.ar    1  UNL1        0.1053
     17 N         -30.9398   -3.5513   33.4092 N.ar    1  UNL1       -0.2421
     18 O         -28.0200   -4.7506   30.1217 O.2     1  UNL1       -0.2444
     19 C         -31.2949   -4.7653   33.7035 C.ar    1  UNL1        0.0989
     20 C         -30.0589   -5.5481   32.1436 C.ar    1  UNL1        0.0096
     21 C         -30.8578   -5.8264   33.1093 C.ar    1  UNL1        0.0209
@<TRIPOS>BOND
     1     3     7    1
     2     6    13    1
     3    13    14    1
     4    14    15    1
     5    14    18    2
     6     7     8   ar
     7     8     9   ar
     8     9    10   ar
     9    10    12   ar
    10    12    11   ar
    11    11     7   ar
    12     1     2   ar
    13     2     3   ar
    14     3     4   ar
    15     4     5   ar
    16     5     6   ar
    17     6     1   ar
    18    15    16   ar
    19    16    17   ar
    20    17    19   ar
    21    19    21   ar
    22    21    20   ar
    23    20    15   ar
