@<TRIPOS>MOLECULE
No_3551-gen_results/8p0m/2024-11-26-14-13-15/
 28 30 0 0 0
SMALL
GASTEIGER

@<TRIPOS>ATOM
      1 C         -28.0162   -0.8135   28.8779 C.ar    1  UNL1       -0.0040
      2 C         -27.0636   -0.1189   28.6079 C.ar    1  UNL1       -0.0183
      3 C         -26.9287    1.1713   29.0083 C.ar    1  UNL1        0.0006
      4 C         -27.9560    1.7411   29.7840 C.ar    1  UNL1        0.0551
      5 C         -29.0569   -0.3271   29.7466 C.ar    1  UNL1       -0.0002
      6 C         -28.9828    0.9722   30.1516 C.ar    1  UNL1        0.0046
      7 C         -25.8815   -0.6260   27.7945 C.3     1  UNL1        0.0452
      8 C         -25.4215    0.1302   26.7096 C.2     1  UNL1       -0.0358
      9 C         -25.0332   -1.6821   28.2396 C.3     1  UNL1        0.0347
     10 C         -23.8635   -1.4377   29.0263 C.ar    1  UNL1       -0.0215
     11 C         -23.2250   -2.2996   29.6844 C.ar    1  UNL1       -0.0042
     12 C         -23.0835   -0.1833   28.6181 C.ar    1  UNL1       -0.0042
     13 C         -21.7648    0.0256   29.2337 C.ar    1  UNL1       -0.0003
     14 C         -22.0346   -1.8960   30.4252 C.ar    1  UNL1       -0.0003
     15 C         -21.3318   -0.7344   30.1810 C.ar    1  UNL1       -0.0000
     16 C         -26.0690    1.2439   26.2670 C.2     1  UNL1       -0.0082
     17 C         -25.6931    1.8185   25.1200 C.2     1  UNL1       -0.0049
     18 C         -24.4724    1.3682   24.6166 C.2     1  UNL1       -0.0218
     19 C         -24.3229   -0.0107   25.8432 C.3     1  UNL1        0.0483
     20 C         -27.8273    3.1987   30.1947 C.2     1  UNL1        0.2690
     21 O         -28.3462    3.7965   30.9171 O.2     1  UNL1       -0.2680
     22 N         -26.5581    3.7357   29.7363 N.am    1  UNL1       -0.1745
     23 C         -26.2260    5.0863   30.0807 C.2     1  UNL1        0.0847
     24 C         -25.8538    5.4754   31.1179 C.2     1  UNL1       -0.0035
     25 C         -25.3129    6.8227   31.3590 C.3     1  UNL1        0.0531
     26 C         -24.8096    7.2988   32.6224 C.2     1  UNL1       -0.0259
     27 C         -24.7932    6.4049   33.7097 C.2     1  UNL1       -0.0300
     28 C         -25.2479    5.0869   33.5238 C.3     1  UNL1        0.0304
@<TRIPOS>BOND
     1     2     7    1
     2     7     8    1
     3     7     9    1
     4     9    10    1
     5     8    16    2
     6    16    17    1
     7    17    18    2
     8     8    19    1
     9    18    19    1
    10     4    20    1
    11    20    21    2
    12    20    22   am
    13    22    23    1
    14    23    24    2
    15    24    25    1
    16    25    26    1
    17    26    27    2
    18    27    28    1
    19     1     2   ar
    20     2     3   ar
    21     3     4   ar
    22     4     6   ar
    23     6     5   ar
    24     5     1   ar
    25    10    11   ar
    26    11    14   ar
    27    14    15   ar
    28    15    13   ar
    29    13    12   ar
    30    12    10   ar
