@<TRIPOS>MOLECULE
No_3553-gen_results/8p0m/2024-11-26-14-13-15/
 30 32 0 0 0
SMALL
GASTEIGER

@<TRIPOS>ATOM
      1 C         -28.0162   -0.8135   28.8779 C.2     1  UNL1        0.2576
      2 C         -27.0636   -0.1189   28.6079 C.ar    1  UNL1        0.0543
      3 C         -25.7923   -0.4302   29.0761 C.ar    1  UNL1        0.0047
      4 C         -24.5456    0.3494   28.8225 C.ar    1  UNL1        0.0067
      5 C         -24.6586    1.4196   27.8878 C.ar    1  UNL1        0.0798
      6 C         -25.9471    1.6811   27.3792 C.ar    1  UNL1        0.0067
      7 C         -27.0439    0.9739   27.6871 C.ar    1  UNL1        0.0047
      8 N         -29.1882   -0.1472   29.0918 N.am    1  UNL1       -0.2186
      9 C         -29.6010    0.1626   30.3267 C.ar    1  UNL1        0.0597
     10 C         -30.2668   -0.6190   28.1881 C.ar    1  UNL1        0.1416
     11 C         -23.4591    2.1629   27.6048 C.2     1  UNL1        0.3878
     12 O         -22.3144    1.9058   28.0794 O.co2   1  UNL1       -0.2406
     13 O         -23.5478    3.0162   26.5548 O.co2   1  UNL1       -0.2406
     14 O         -27.9125   -1.9621   29.4629 O.2     1  UNL1       -0.2692
     15 C         -31.3987    0.2842   27.9701 C.ar    1  UNL1        0.0396
     16 C         -32.0813    0.1960   26.9186 C.ar    1  UNL1        0.0597
     17 C         -31.9146   -0.9229   26.0303 C.ar    1  UNL1        0.0253
     18 C         -30.8784   -1.6578   26.0544 C.ar    1  UNL1        0.1005
     19 N         -29.9833   -1.3736   27.1367 N.ar    1  UNL1       -0.2285
     20 C         -29.6146    1.5997   30.5351 C.ar    1  UNL1        0.0153
     21 C         -29.9322    2.1253   31.8108 C.ar    1  UNL1        0.0013
     22 C         -30.3772    1.1768   32.7812 C.ar    1  UNL1        0.0001
     23 C         -30.0251   -0.6854   31.2717 C.ar    1  UNL1        0.0153
     24 C         -30.4354   -0.1824   32.5129 C.ar    1  UNL1        0.0013
     25 C         -33.4095    0.9577   26.7745 C.2     1  UNL1        0.2691
     26 N         -33.7066    1.8034   27.6625 N.am    1  UNL1       -0.1745
     27 O         -33.9315    1.0880   25.6696 O.2     1  UNL1       -0.2680
     28 C         -34.6355    2.4275   27.9260 C.2     1  UNL1        0.0844
     29 C         -34.7009    3.2598   29.0141 C.2     1  UNL1       -0.0079
     30 C         -35.7042    4.0375   29.5191 C.3     1  UNL1        0.0321
@<TRIPOS>BOND
     1     1     2    1
     2     1     8   am
     3     8     9    1
     4     8    10    1
     5     5    11    1
     6    11    12   ar
     7    11    13   ar
     8     1    14    2
     9    16    25    1
    10    25    26   am
    11    25    27    2
    12    26    28    1
    13    28    29    2
    14    29    30    1
    15     2     3   ar
    16     3     4   ar
    17     4     5   ar
    18     5     6   ar
    19     6     7   ar
    20     7     2   ar
    21    10    15   ar
    22    15    16   ar
    23    16    17   ar
    24    17    18   ar
    25    18    19   ar
    26    19    10   ar
    27     9    20   ar
    28    20    21   ar
    29    21    22   ar
    30    22    24   ar
    31    24    23   ar
    32    23     9   ar
