@<TRIPOS>MOLECULE
No_3554-gen_results/8p0m/2024-11-26-14-13-15/
 33 36 0 0 0
SMALL
GASTEIGER

@<TRIPOS>ATOM
      1 C         -28.0162   -0.8135   28.8779 C.3     1  UNL1        0.1178
      2 C         -27.0636   -0.1189   28.6079 C.ar    1  UNL1        0.0007
      3 C         -27.0010    0.6913   27.4910 C.ar    1  UNL1        0.0374
      4 C         -25.8548    1.4825   27.0830 C.ar    1  UNL1        0.0143
      5 C         -24.6901    1.4526   27.8807 C.ar    1  UNL1        0.0578
      6 C         -24.7379    0.6010   29.0416 C.ar    1  UNL1        0.0111
      7 C         -25.8234   -0.1688   29.3887 C.ar    1  UNL1       -0.0016
      8 N         -28.7568   -0.5479   30.0191 N.pl3   1  UNL1       -0.3032
      9 C         -28.9317    0.3890   30.5031 C.3     1  UNL1        0.0958
     10 C         -29.3215    1.0528   31.2089 C.3     1  UNL1        0.0478
     11 C         -29.7799    2.1726   31.9168 C.ar    1  UNL1       -0.0205
     12 CL        -23.3347    2.3640   27.5308 Cl      1  UNL1       -0.0822
     13 C         -29.1818    2.5581   33.0014 C.ar    1  UNL1       -0.0042
     14 C         -29.6460    3.7036   33.7538 C.ar    1  UNL1       -0.0003
     15 C         -30.7809    4.2917   33.2024 C.ar    1  UNL1       -0.0000
     16 C         -31.3763    3.8871   32.1036 C.ar    1  UNL1       -0.0003
     17 C         -30.8688    2.8533   31.4182 C.ar    1  UNL1       -0.0042
     18 C         -29.4939   -1.7345   30.5778 C.ar    1  UNL1        0.0503
     19 C         -30.6682   -1.9817   30.4217 C.ar    1  UNL1        0.0441
     20 C         -31.2662   -3.1353   30.8999 C.ar    1  UNL1        0.1414
     21 C         -30.4415   -4.0729   31.5579 C.ar    1  UNL1        0.0297
     22 C         -29.0666   -3.8475   31.5091 C.ar    1  UNL1        0.0036
     23 C         -28.5310   -2.7206   31.0922 C.ar    1  UNL1        0.0147
     24 C         -28.1415    0.8269   26.6120 C.2     1  UNL1        0.1953
     25 C         -29.1286    1.7727   26.8647 C.ar    1  UNL1        0.0398
     26 C         -28.8046    2.9999   27.2804 C.ar    1  UNL1        0.0032
     27 C         -30.5114    1.3728   26.9057 C.ar    1  UNL1        0.0146
     28 C         -31.4776    2.1978   27.4087 C.ar    1  UNL1        0.0578
     29 C         -29.8113    3.9729   27.6962 C.ar    1  UNL1        0.0010
     30 C         -31.1381    3.5585   27.7301 C.ar    1  UNL1        0.0114
     31 O         -28.2106    0.0747   25.5761 O.2     1  UNL1       -0.2866
     32 CL        -33.0902    1.7375   27.4625 Cl      1  UNL1       -0.0822
     33 F         -32.5591   -3.3246   30.8934 F       1  UNL1       -0.2041
@<TRIPOS>BOND
     1     1     2    1
     2     1     8    1
     3     8     9    1
     4     9    10    1
     5     5    12    1
     6     8    18    1
     7     3    24    1
     8    24    25    1
     9    24    31    2
    10    28    32    1
    11    20    33    1
    12    10    11    1
    13    18    19   ar
    14    19    20   ar
    15    20    21   ar
    16    21    22   ar
    17    22    23   ar
    18    23    18   ar
    19     2     3   ar
    20     3     4   ar
    21     4     5   ar
    22     5     6   ar
    23     6     7   ar
    24     7     2   ar
    25    11    13   ar
    26    13    14   ar
    27    14    15   ar
    28    15    16   ar
    29    16    17   ar
    30    17    11   ar
    31    25    26   ar
    32    26    29   ar
    33    29    30   ar
    34    30    28   ar
    35    28    27   ar
    36    27    25   ar
