@<TRIPOS>MOLECULE
No_3555-gen_results/8p0m/2024-11-26-14-13-15/
 26 28 0 0 0
SMALL
GASTEIGER

@<TRIPOS>ATOM
      1 C         -28.0162   -0.8135   28.8779 C.3     1  UNL1        0.1426
      2 C         -27.0636   -0.1190   28.6079 C.ar    1  UNL1        0.0031
      3 C         -25.7923   -0.4302   29.0761 C.ar    1  UNL1        0.0654
      4 C         -24.5456    0.3494   28.8225 C.ar    1  UNL1       -0.0123
      5 C         -24.6586    1.4196   27.8878 C.ar    1  UNL1        0.0511
      6 C         -25.9471    1.6811   27.3792 C.ar    1  UNL1        0.0040
      7 C         -27.0439    0.9739   27.6871 C.ar    1  UNL1       -0.0022
      8 N         -28.6643   -0.5274   30.1017 N.am    1  UNL1       -0.1868
      9 C         -29.6646   -0.3963   30.4406 C.2     1  UNL1        0.3262
     10 CL        -30.9113   -0.5298   29.3420 Cl      1  UNL1       -0.0208
     11 O         -30.1554   -0.4159   31.6881 O.2     1  UNL1       -0.2551
     12 C         -23.4523    2.1633   27.5964 C.2     1  UNL1        0.2645
     13 O         -23.5054    3.1377   26.8707 O.2     1  UNL1       -0.2684
     14 N         -22.2006    1.6833   27.9440 N.am    1  UNL1       -0.2013
     15 C         -28.3345    1.3298   27.0788 C.ar    1  UNL1       -0.0003
     16 C         -28.3933    1.3970   25.7625 C.ar    1  UNL1       -0.0000
     17 C         -29.6151    1.5257   25.1205 C.ar    1  UNL1       -0.0000
     18 C         -30.7504    1.7342   25.8587 C.ar    1  UNL1       -0.0000
     19 C         -30.6689    1.8276   27.2435 C.ar    1  UNL1       -0.0000
     20 C         -29.4565    1.5642   27.9102 C.ar    1  UNL1       -0.0000
     21 C         -25.4840   -1.5276   30.0456 C.3     1  UNL1        0.4180
     22 F         -25.7155   -1.3077   31.2081 F       1  UNL1       -0.1659
     23 F         -24.1792   -1.9639   29.8990 F       1  UNL1       -0.1659
     24 F         -26.1803   -2.6617   29.5416 F       1  UNL1       -0.1659
     25 C         -21.9443    0.6302   28.8147 C.3     1  UNL1        0.1201
     26 C         -23.1888   -0.1021   29.2041 C.3     1  UNL1        0.0499
@<TRIPOS>BOND
     1     1     2    1
     2     1     8    1
     3     8     9   am
     4     9    10    1
     5     9    11    2
     6     5    12    1
     7    12    13    2
     8    12    14   am
     9     7    15    1
    10     3    21    1
    11    21    22    1
    12    21    23    1
    13    21    24    1
    14    14    25    1
    15     4    26    1
    16    26    25    1
    17    15    16   ar
    18    16    17   ar
    19    17    18   ar
    20    18    19   ar
    21    19    20   ar
    22    20    15   ar
    23     2     3   ar
    24     3     4   ar
    25     4     5   ar
    26     5     6   ar
    27     6     7   ar
    28     7     2   ar
