@<TRIPOS>MOLECULE
No_3556-gen_results/8p0m/2024-11-26-14-13-15/
 16 17 0 0 0
SMALL
GASTEIGER

@<TRIPOS>ATOM
      1 C         -28.0162   -0.8135   28.8779 C.ar    1  UNL1        0.0027
      2 C         -27.0636   -0.1189   28.6079 C.ar    1  UNL1        0.0001
      3 C         -25.7647   -0.3897   29.0360 C.ar    1  UNL1        0.0000
      4 C         -25.5296   -1.5302   29.9014 C.ar    1  UNL1        0.0001
      5 C         -26.6577   -2.2915   30.2035 C.ar    1  UNL1        0.0027
      6 C         -27.8548   -1.9555   29.7630 C.ar    1  UNL1        0.0288
      7 C         -24.7050    0.5765   28.7945 C.ar    1  UNL1        0.0000
      8 C         -24.5515    1.2120   27.6598 C.ar    1  UNL1        0.0000
      9 C         -23.4045    2.0249   27.3835 C.ar    1  UNL1        0.0000
     10 C         -22.2549    1.8896   28.1332 C.ar    1  UNL1        0.0000
     11 C         -23.4191    0.4490   29.5569 C.ar    1  UNL1        0.0000
     12 C         -22.2582    1.0982   29.2189 C.ar    1  UNL1        0.0000
     13 P         -29.2650   -2.9571   30.2722 P.3     1  UNL1        0.1395
     14 O         -29.4987   -2.7496   31.6843 O.3     1  UNL1       -0.3542
     15 O         -28.8505   -4.4064   30.1578 O.3     1  UNL1       -0.3542
     16 O         -30.4541   -2.6939   29.4865 O.2     1  UNL1       -0.4557
@<TRIPOS>BOND
     1     3     7    1
     2     6    13    1
     3    13    14    1
     4    13    15    1
     5    13    16    2
     6     7     8   ar
     7     8     9   ar
     8     9    10   ar
     9    10    12   ar
    10    12    11   ar
    11    11     7   ar
    12     1     2   ar
    13     2     3   ar
    14     3     4   ar
    15     4     5   ar
    16     5     6   ar
    17     6     1   ar
