@<TRIPOS>MOLECULE
No_3558-gen_results/8p0m/2024-11-26-14-13-15/
 22 24 0 0 0
SMALL
GASTEIGER

@<TRIPOS>ATOM
      1 C         -28.0162   -0.8135   28.8779 C.ar    1  UNL1        0.0066
      2 C         -28.4690   -0.7850   29.8287 C.ar    1  UNL1        0.0798
      3 C         -26.5042   -0.7777   28.8766 C.ar    1  UNL1        0.0002
      4 C         -25.6540   -0.6597   27.7191 C.ar    1  UNL1        0.0002
      5 C         -27.9180   -0.9374   31.1824 C.ar    1  UNL1        0.0066
      6 C         -26.5423   -0.9399   31.2606 C.ar    1  UNL1        0.0002
      7 C         -25.7832   -0.8935   30.1201 C.ar    1  UNL1        0.0002
      8 C         -24.3096   -0.3015   27.8531 C.ar    1  UNL1        0.0048
      9 C         -23.6669   -0.4595   29.0986 C.ar    1  UNL1        0.0579
     10 C         -24.3700   -0.6645   30.2027 C.ar    1  UNL1        0.0048
     11 C         -22.1946   -0.2290   29.1314 C.2     1  UNL1        0.2791
     12 N         -21.2882    0.5666   28.7716 N.2     1  UNL1       -0.2079
     13 O         -21.6569   -1.0701   30.0386 O.2     1  UNL1       -0.2652
     14 C         -30.0656   -0.8827   29.8756 C.2     1  UNL1        0.3878
     15 O         -30.6916   -0.0581   30.6237 O.co2   1  UNL1       -0.2406
     16 O         -30.6409   -1.6153   29.0975 O.co2   1  UNL1       -0.2406
     17 C         -21.6133    1.5838   27.7638 C.ar    1  UNL1        0.0846
     18 C         -21.4013    1.3886   26.4646 C.ar    1  UNL1        0.0192
     19 C         -22.2699    2.1547   25.5436 C.ar    1  UNL1        0.0015
     20 C         -23.3546    2.9355   26.1629 C.ar    1  UNL1        0.0001
     21 C         -23.5464    3.0641   27.5308 C.ar    1  UNL1        0.0015
     22 C         -22.7394    2.3228   28.2736 C.ar    1  UNL1        0.0192
@<TRIPOS>BOND
     1     9    11    1
     2    11    12    2
     3    11    13    1
     4     2    14    1
     5    14    15   ar
     6    14    16   ar
     7    12    17    1
     8    17    18   ar
     9    18    19   ar
    10    19    20   ar
    11    20    21   ar
    12    21    22   ar
    13    22    17   ar
    14     1     2   ar
    15     2     5   ar
    16     5     6   ar
    17     6     7   ar
    18     3     1   ar
    19     3     4   ar
    20     4     8   ar
    21     8     9   ar
    22     9    10   ar
    23    10     7   ar
    24     7     3   ar
