@<TRIPOS>MOLECULE
No_356-gen_results/8p0m/2024-11-26-14-13-15/
 12 12 0 0 0
SMALL
GASTEIGER

@<TRIPOS>ATOM
      1 C         -28.0162   -0.8135   28.8779 C.3     1  UNL1        0.0351
      2 C         -28.4690   -0.7850   29.8287 C.3     1  UNL1        0.1080
      3 C         -27.0871    0.2903   28.6377 C.ar    1  UNL1       -0.0219
      4 C         -26.9102    0.8486   27.4199 C.ar    1  UNL1       -0.0043
      5 C         -29.6069   -1.6266   30.1338 C.3     1  UNL1        0.3981
      6 C         -25.7234    1.3208   27.0407 C.ar    1  UNL1       -0.0003
      7 C         -24.6229    1.5356   27.9411 C.ar    1  UNL1       -0.0000
      8 C         -24.7675    0.9407   29.1932 C.ar    1  UNL1       -0.0003
      9 C         -25.9505    0.2473   29.4560 C.ar    1  UNL1       -0.0043
     10 F         -30.3574   -1.5469   29.2946 F       1  UNL1       -0.1700
     11 F         -29.3703   -2.9669   30.2880 F       1  UNL1       -0.1700
     12 F         -30.2517   -1.3708   31.2959 F       1  UNL1       -0.1700
@<TRIPOS>BOND
     1     1     2    1
     2     1     3    1
     3     2     5    1
     4     5    10    1
     5     5    11    1
     6     5    12    1
     7     3     4   ar
     8     4     6   ar
     9     6     7   ar
    10     7     8   ar
    11     8     9   ar
    12     9     3   ar
