@<TRIPOS>MOLECULE
No_3560-gen_results/8p0m/2024-11-26-14-13-15/
 26 29 0 0 0
SMALL
GASTEIGER

@<TRIPOS>ATOM
      1 C         -28.0162   -0.8135   28.8779 C.ar    1  UNL1        0.0000
      2 C         -28.4690   -0.7850   29.8287 C.ar    1  UNL1        0.0000
      3 C         -27.0871    0.2903   28.6377 C.ar    1  UNL1        0.0007
      4 C         -26.2516    0.4114   27.4223 C.ar    1  UNL1        0.0067
      5 C         -29.4309   -1.9307   30.2714 C.ar    1  UNL1        0.0000
      6 C         -25.1465    1.2405   27.3564 C.ar    1  UNL1        0.0348
      7 C         -24.7814    1.9840   28.5026 C.ar    1  UNL1        0.0131
      8 C         -25.4736    1.8471   29.6355 C.ar    1  UNL1        0.0761
      9 C         -26.5034    1.0016   29.7688 C.ar    1  UNL1        0.0063
     10 C         -30.1781   -1.9604   31.4357 C.ar    1  UNL1        0.0000
     11 C         -29.9434   -0.8977   32.3521 C.ar    1  UNL1        0.0000
     12 C         -29.1065    0.1064   32.0942 C.ar    1  UNL1        0.0000
     13 C         -28.4328    0.1892   30.9703 C.ar    1  UNL1        0.0000
     14 C         -27.3369    1.0719   30.7434 C.ar    1  UNL1        0.0002
     15 BR        -24.2129    1.2712   25.7291 Br      1  UNL1       -0.0490
     16 C         -24.9622    2.7029   30.7808 C.2     1  UNL1        0.3413
     17 O         -25.6146    2.8987   31.6593 O.3     1  UNL1       -0.4427
     18 O         -23.6812    2.8915   30.7860 O.2     1  UNL1       -0.2449
     19 C         -25.4417    4.1566   32.4271 C.3     1  UNL1        0.2412
     20 C         -26.2598    4.1769   33.6195 C.3     1  UNL1        0.1957
     21 C         -27.4249    4.9484   33.3612 C.3     1  UNL1        0.2134
     22 C         -28.5523    4.2193   33.5296 C.2     1  UNL1        0.0090
     23 C         -28.4302    3.1673   34.3575 C.2     1  UNL1        0.0039
     24 C         -27.3123    2.4323   34.6401 C.3     1  UNL1        0.1683
     25 O         -26.3674    2.8393   33.9086 O.3     1  UNL1       -0.3445
     26 F         -27.3853    5.6102   32.1498 F       1  UNL1       -0.2297
@<TRIPOS>BOND
     1     6    15    1
     2     8    16    1
     3    16    17    1
     4    16    18    2
     5    17    19    1
     6    19    20    1
     7    20    21    1
     8    21    22    1
     9    22    23    2
    10    23    24    1
    11    20    25    1
    12    24    25    1
    13    21    26    1
    14     3     4   ar
    15     4     6   ar
    16     6     7   ar
    17     7     8   ar
    18     8     9   ar
    19     1     2   ar
    20    13    14   ar
    21    14     9   ar
    22     9     3   ar
    23     3     1   ar
    24     2     5   ar
    25     5    10   ar
    26    10    11   ar
    27    11    12   ar
    28    12    13   ar
    29    13     2   ar
