@<TRIPOS>MOLECULE
No_3561-gen_results/8p0m/2024-11-26-14-13-15/
 34 35 0 0 0
SMALL
GASTEIGER

@<TRIPOS>ATOM
      1 C         -28.0162   -0.8135   28.8779 C.ar    1  UNL1        0.0877
      2 C         -27.0636   -0.1190   28.6079 C.ar    1  UNL1        0.1468
      3 C         -26.9716    0.7139   27.5060 C.ar    1  UNL1        0.0095
      4 C         -28.1053    0.7744   26.6421 C.ar    1  UNL1        0.0107
      5 C         -29.2008    0.1044   27.0527 C.ar    1  UNL1        0.1354
      6 C         -29.2096   -0.6029   28.1853 C.ar    1  UNL1        0.0502
      7 O         -30.3044    0.2267   26.2604 O.3     1  UNL1       -0.4717
      8 F         -25.8731   -0.1883   29.3485 F       1  UNL1       -0.2036
      9 CL        -28.0737   -1.8164   30.3266 Cl      1  UNL1       -0.0798
     10 C         -27.9692    1.6540   25.4398 C.3     1  UNL1        0.0340
     11 C         -25.6663    1.3991   27.1188 C.3     1  UNL1        0.0544
     12 C         -25.1649    2.2950   28.0932 C.2     1  UNL1       -0.0217
     13 C         -24.0380    2.5729   28.4262 C.2     1  UNL1       -0.0253
     14 C         -26.2033    3.2281   28.7763 C.ar    1  UNL1       -0.0042
     15 C         -25.8213    4.1594   29.7012 C.ar    1  UNL1       -0.0003
     16 C         -22.9644    1.7041   27.7490 C.3     1  UNL1        0.0517
     17 C         -26.3977    4.7220   30.4912 C.ar    1  UNL1       -0.0003
     18 C         -27.5773    4.2932   30.9833 C.ar    1  UNL1       -0.0029
     19 C         -28.3153    3.3801   30.1134 C.ar    1  UNL1       -0.0020
     20 C         -27.5411    2.6970   29.1734 C.ar    1  UNL1       -0.0032
     21 C         -22.4721    0.5749   28.4562 C.2     1  UNL1       -0.0199
     22 C         -23.4133   -0.4347   28.7856 C.2     1  UNL1        0.0160
     23 C         -22.7724   -1.5785   29.3935 C.2     1  UNL1        0.0935
     24 N         -23.6412   -2.5982   29.7564 N.2     1  UNL1       -0.2569
     25 C         -29.6786    3.0028   30.4512 C.3     1  UNL1        0.1686
     26 CL        -30.1102    1.9019   31.4467 Cl      1  UNL1       -0.1042
     27 C         -30.6792    3.6445   29.5929 C.3     1  UNL1        0.3373
     28 C         -24.8719   -2.5260   29.0703 C.3     1  UNL1        0.2389
     29 C         -25.6908   -3.6367   29.5784 C.2     1  UNL1        0.3892
     30 C         -30.4036    0.1723   25.1185 C.3     1  UNL1        0.2525
     31 F         -30.3735    4.4434   28.8521 F       1  UNL1       -0.1967
     32 F         -31.8348    3.1570   29.6989 F       1  UNL1       -0.1967
     33 O         -25.2546   -4.6702   29.5765 O.co2   1  UNL1       -0.2434
     34 O         -26.9853   -3.4207   29.8632 O.co2   1  UNL1       -0.2434
@<TRIPOS>BOND
     1     5     7    1
     2     2     8    1
     3     1     9    1
     4     4    10    1
     5     3    11    1
     6    11    12    1
     7    12    13    2
     8    12    14    1
     9    13    16    1
    10    16    21    1
    11    21    22    2
    12    22    23    1
    13    23    24    2
    14    19    25    1
    15    25    26    1
    16    25    27    1
    17    24    28    1
    18    28    29    1
    19     7    30    1
    20    27    31    1
    21    27    32    1
    22    29    33   ar
    23    29    34   ar
    24    14    15   ar
    25    15    17   ar
    26    17    18   ar
    27    18    19   ar
    28    19    20   ar
    29    20    14   ar
    30     1     2   ar
    31     2     3   ar
    32     3     4   ar
    33     4     5   ar
    34     5     6   ar
    35     6     1   ar
