@<TRIPOS>MOLECULE
No_3562-gen_results/8p0m/2024-11-26-14-13-15/
 11 12 0 0 0
SMALL
GASTEIGER

@<TRIPOS>ATOM
      1 C         -28.0162   -0.8135   28.8779 C.ar    1  UNL1        0.0015
      2 C         -28.4690   -0.7850   29.8287 C.ar    1  UNL1        0.0000
      3 C         -27.1356    0.2359   28.5352 C.ar    1  UNL1        0.0192
      4 C         -26.8745    1.2825   29.3982 C.ar    1  UNL1        0.0027
      5 C         -27.5070    1.2380   30.6295 C.ar    1  UNL1        0.0001
      6 C         -28.3484    0.0500   30.8819 C.ar    1  UNL1        0.0000
      7 C         -26.4067    0.3285   27.2239 C.ar    1  UNL1        0.0984
      8 N         -25.5402    1.3303   27.0555 N.ar    1  UNL1       -0.2481
      9 C         -24.7915    1.8400   27.8753 C.ar    1  UNL1        0.0594
     10 C         -25.5741    2.0936   29.1792 C.ar    1  UNL1        0.0147
     11 C         -24.1072    3.0955   27.4843 C.3     1  UNL1        0.0521
@<TRIPOS>BOND
     1     9    11    1
     2     4    10   ar
     3    10     9   ar
     4     9     8   ar
     5     8     7   ar
     6     7     3   ar
     7     1     2   ar
     8     2     6   ar
     9     6     5   ar
    10     5     4   ar
    11     4     3   ar
    12     3     1   ar
