@<TRIPOS>MOLECULE
No_3563-gen_results/8p0m/2024-11-26-14-13-15/
 15 16 0 0 0
SMALL
GASTEIGER

@<TRIPOS>ATOM
      1 C         -28.0162   -0.8135   28.8779 C.ar    1  UNL1        0.0068
      2 C         -28.4690   -0.7850   29.8287 C.ar    1  UNL1        0.0537
      3 C         -26.5455   -0.8762   28.8500 C.ar    1  UNL1        0.0298
      4 C         -25.8041   -1.0324   30.0571 C.ar    1  UNL1        0.1401
      5 C         -27.9437   -0.9869   31.2075 C.ar    1  UNL1        0.0068
      6 C         -26.5825   -1.0386   31.2231 C.ar    1  UNL1        0.0298
      7 C         -30.0638   -0.7948   30.0639 C.2     1  UNL1        0.2490
      8 O         -30.6628   -0.1112   29.3727 O.2     1  UNL1       -0.2699
      9 N         -30.6426   -1.6913   30.9433 N.am    1  UNL1       -0.2761
     10 C         -32.0640   -1.7670   30.9981 C.3     1  UNL1        0.0937
     11 F         -24.5225   -1.0553   30.0416 F       1  UNL1       -0.2042
     12 C         -32.5015   -2.7738   31.5275 C.3     1  UNL1        0.0216
     13 C         -31.6773   -3.7562   32.2742 C.3     1  UNL1        0.0035
     14 C         -30.2800   -3.6212   32.1785 C.3     1  UNL1        0.0216
     15 C         -29.7664   -2.6736   31.4659 C.3     1  UNL1        0.0937
@<TRIPOS>BOND
     1     2     7    1
     2     7     8    2
     3     7     9   am
     4     9    10    1
     5     4    11    1
     6    12    13    1
     7     9    15    1
     8    14    15    1
     9    10    12    1
    10    13    14    1
    11     1     2   ar
    12     2     5   ar
    13     5     6   ar
    14     6     4   ar
    15     4     3   ar
    16     3     1   ar
