@<TRIPOS>MOLECULE
No_3564-gen_results/8p0m/2024-11-26-14-13-15/
 20 23 0 0 0
SMALL
GASTEIGER

@<TRIPOS>ATOM
      1 C         -28.0162   -0.8135   28.8779 C.ar    1  UNL1        0.0114
      2 C         -27.0636   -0.1190   28.6079 C.ar    1  UNL1        0.0002
      3 C         -25.7647   -0.3897   29.0360 C.ar    1  UNL1       -0.0002
      4 C         -25.5296   -1.5302   29.9014 C.ar    1  UNL1        0.0009
      5 C         -26.6888   -2.2893   30.1810 C.ar    1  UNL1        0.0114
      6 C         -27.8727   -1.9508   29.7373 C.ar    1  UNL1        0.0577
      7 C         -24.5491    0.4100   28.7341 C.ar    1  UNL1       -0.0007
      8 C         -23.3309    0.0437   29.0569 C.ar    1  UNL1       -0.0001
      9 C         -22.1994    0.8236   28.7067 C.ar    1  UNL1        0.0031
     10 C         -22.3657    1.8184   27.6957 C.ar    1  UNL1        0.0366
     11 C         -24.6193    1.4577   27.7557 C.ar    1  UNL1        0.0181
     12 C         -23.5641    2.1491   27.3161 C.ar    1  UNL1        0.1349
     13 CL        -29.2336   -2.8867   30.2113 Cl      1  UNL1       -0.0822
     14 O         -23.7198    3.1940   26.4559 O.3     1  UNL1       -0.4751
     15 C         -25.0719    3.2088   25.9628 C.3     1  UNL1        0.2130
     16 C         -25.8374    1.8514   27.1245 C.3     1  UNL1        0.0772
     17 C         -26.7689    2.6172   28.0294 C.2     1  UNL1       -0.0372
     18 C         -26.4777    0.9986   26.1734 C.3     1  UNL1        0.0123
     19 C         -27.4581    1.6263   28.8416 C.2     1  UNL1       -0.0081
     20 C         -27.5070    3.5557   27.1335 C.3     1  UNL1        0.0268
@<TRIPOS>BOND
     1     3     7    1
     2     6    13    1
     3    12    14    1
     4    14    15    1
     5    11    16    1
     6    15    16    1
     7    16    17    1
     8    16    18    1
     9     2    19    1
    10    17    19    2
    11    17    20    1
    12     7     8   ar
    13     8     9   ar
    14     9    10   ar
    15    10    12   ar
    16    12    11   ar
    17    11     7   ar
    18     1     2   ar
    19     2     3   ar
    20     3     4   ar
    21     4     5   ar
    22     5     6   ar
    23     6     1   ar
