@<TRIPOS>MOLECULE
No_3565-gen_results/8p0m/2024-11-26-14-13-15/
 34 37 0 0 0
SMALL
GASTEIGER

@<TRIPOS>ATOM
      1 C         -28.0162   -0.8135   28.8779 C.ar    1  UNL1        0.0328
      2 C         -28.4690   -0.7850   29.8287 C.ar    1  UNL1        0.1384
      3 C         -27.1356    0.2359   28.5352 C.ar    1  UNL1       -0.0156
      4 C         -26.8745    1.2825   29.3982 C.ar    1  UNL1       -0.0220
      5 C         -25.9742    2.3797   29.0831 C.3     1  UNL1        0.0733
      6 C         -28.3915    0.1302   30.9603 C.ar    1  UNL1        0.0366
      7 C         -27.5035    1.2424   30.6700 C.ar    1  UNL1       -0.0013
      8 C         -25.3913    2.5625   28.0344 C.3     1  UNL1        0.1085
      9 C         -24.5135    3.6871   27.7241 C.3     1  UNL1        0.2274
     10 C         -25.3934    1.5397   26.9757 C.2     1  UNL1        0.1585
     11 C         -26.3756    0.2724   27.2386 C.3     1  UNL1        0.0907
     12 C         -25.8259    3.4902   30.2063 C.3     1  UNL1        0.2118
     13 N         -26.0742    4.7297   29.8437 N.pl3   1  UNL1       -0.0655
     14 C         -25.2818    5.3809   28.8577 C.cat   1  UNL1        0.4075
     15 N         -24.9271    4.9232   27.7426 N.2     1  UNL1       -0.0981
     16 N         -25.4186    6.7830   28.8860 N.pl3   1  UNL1       -0.1719
     17 O         -24.7747    1.5401   25.9135 O.2     1  UNL1       -0.2956
     18 C         -25.5417    7.4386   30.1200 C.ar    1  UNL1        0.1122
     19 C         -25.8434    7.1570   31.0904 C.ar    1  UNL1        0.0314
     20 C         -25.8767    7.9353   32.3203 C.ar    1  UNL1        0.0027
     21 C         -25.5351    9.2371   32.1538 C.ar    1  UNL1        0.0002
     22 C         -25.0449    8.8999   29.9716 C.ar    1  UNL1        0.0314
     23 C         -25.0597    9.7406   31.0025 C.ar    1  UNL1        0.0027
     24 C         -25.8657    7.3467   27.6992 C.3     1  UNL1        0.2131
     25 O         -29.3185   -1.9092   30.1937 O.3     1  UNL1       -0.4714
     26 C         -28.8131   -3.1505   30.5502 C.3     1  UNL1        0.2525
     27 C         -29.6898   -4.2386   30.3385 C.3     1  UNL1        0.2526
     28 O         -30.7922   -4.0267   30.8105 O.2     1  UNL1       -0.4684
     29 C         -31.8489   -4.4626   30.3264 C.2     1  UNL1        0.1724
     30 C         -31.8142   -4.6965   29.2670 C.2     1  UNL1        0.0400
     31 C         -32.8104   -4.8322   28.2986 C.2     1  UNL1        0.0032
     32 C         -32.8317   -4.5886   27.2628 C.2     1  UNL1        0.0001
     33 C         -32.3318   -4.0145   26.3994 C.2     1  UNL1        0.0000
     34 C         -31.5538   -2.9990   25.7767 C.2     1  UNL1        0.0000
@<TRIPOS>BOND
     1     4     5    1
     2     8     9    1
     3     8    10    1
     4     3    11    1
     5    10    11    1
     6     5    12    1
     7    12    13    1
     8    13    14    1
     9     9    15    1
    10    14    15    2
    11    14    16    1
    12    10    17    2
    13    16    18    1
    14    16    24    1
    15     2    25    1
    16    25    26    1
    17    26    27    1
    18    27    28    1
    19    28    29    1
    20    29    30    2
    21    30    31    1
    22    31    32    2
    23    32    33    1
    24    33    34    2
    25     8     5    1
    26    18    19   ar
    27    19    20   ar
    28    20    21   ar
    29    21    23   ar
    30    23    22   ar
    31    22    18   ar
    32     1     2   ar
    33     2     6   ar
    34     6     7   ar
    35     7     4   ar
    36     4     3   ar
    37     3     1   ar
