@<TRIPOS>MOLECULE
No_3566-gen_results/8p0m/2024-11-26-14-13-15/
 14 15 0 0 0
SMALL
GASTEIGER

@<TRIPOS>ATOM
      1 C         -28.0162   -0.8135   28.8779 C.ar    1  UNL1        0.0369
      2 C         -27.0636   -0.1189   28.6079 C.ar    1  UNL1        0.0046
      3 C         -26.8756    1.1325   28.9134 C.ar    1  UNL1        0.0178
      4 C         -27.9014    1.8066   29.6436 C.ar    1  UNL1        0.0046
      5 C         -28.9449    1.0388   30.0360 C.ar    1  UNL1        0.0369
      6 C         -29.0273   -0.2890   29.7051 C.ar    1  UNL1        0.1387
      7 C         -25.6959    1.9505   28.4764 C.ar    1  UNL1        0.0813
      8 N         -25.0435    2.6925   28.9592 N.ar    1  UNL1       -0.2438
      9 C         -25.3132    1.7737   27.0173 C.ar    1  UNL1        0.0191
     10 C         -24.1564    2.5459   26.8451 C.ar    1  UNL1        0.0031
     11 C         -23.3645    3.0884   27.2946 C.ar    1  UNL1        0.0207
     12 C         -23.8382    3.3175   28.6653 C.ar    1  UNL1        0.0988
     13 O         -30.0274   -1.1090   30.0788 O.3     1  UNL1       -0.4714
     14 C         -30.3734   -1.1730   31.3747 C.3     1  UNL1        0.2525
@<TRIPOS>BOND
     1     3     7    1
     2     6    13    1
     3    13    14    1
     4     1     2   ar
     5     2     3   ar
     6     3     4   ar
     7     4     5   ar
     8     5     6   ar
     9     6     1   ar
    10     7     8   ar
    11     8    12   ar
    12    12    11   ar
    13    11    10   ar
    14    10     9   ar
    15     9     7   ar
