@<TRIPOS>MOLECULE
No_3567-gen_results/8p0m/2024-11-26-14-13-15/
 17 18 0 0 0
SMALL
GASTEIGER

@<TRIPOS>ATOM
      1 C         -28.0162   -0.8135   28.8779 C.3     1  UNL1        0.0920
      2 C         -27.0636   -0.1189   28.6079 C.ar    1  UNL1       -0.0146
      3 C         -26.9716    0.7139   27.5060 C.ar    1  UNL1       -0.0036
      4 C         -25.8205    1.4909   27.1160 C.ar    1  UNL1        0.0077
      5 C         -24.6562    1.4242   27.9180 C.ar    1  UNL1        0.0975
      6 C         -24.6847    0.5901   29.0659 C.ar    1  UNL1        0.0077
      7 C         -25.8099   -0.1265   29.3338 C.ar    1  UNL1       -0.0036
      8 C         -29.2444   -0.0768   29.2011 C.ar    1  UNL1        0.1459
      9 N         -29.6118    0.8134   28.6123 N.ar    1  UNL1       -0.2027
     10 N         -30.1660   -0.8824   29.9619 N.ar    1  UNL1       -0.2287
     11 C         -30.8892    1.4460   28.7853 C.ar    1  UNL1        0.2250
     12 C         -23.4785    2.1899   27.6017 C.2     1  UNL1        0.4766
     13 N         -23.4459    3.1171   26.7749 N.pl3   1  UNL1        0.2047
     14 N         -22.3250    1.9981   28.3146 N.pl3   1  UNL1        0.2047
     15 C         -31.4186   -0.3647   30.1965 C.ar    1  UNL1        0.1042
     16 C         -31.7680    0.8044   29.5978 C.ar    1  UNL1        0.0703
     17 F         -31.1530    2.5402   28.2050 F       1  UNL1       -0.1831
@<TRIPOS>BOND
     1     1     8    1
     2     5    12    1
     3    12    13    2
     4    12    14    1
     5    11    17    1
     6     1     2    1
     7     2     3   ar
     8     3     4   ar
     9     4     5   ar
    10     5     6   ar
    11     6     7   ar
    12     7     2   ar
    13     8     9   ar
    14     9    11   ar
    15    11    16   ar
    16    16    15   ar
    17    15    10   ar
    18    10     8   ar
