@<TRIPOS>MOLECULE
No_3568-gen_results/8p0m/2024-11-26-14-13-15/
 19 21 0 0 0
SMALL
GASTEIGER

@<TRIPOS>ATOM
      1 C         -28.0162   -0.8135   28.8779 C.ar    1  UNL1       -0.0042
      2 C         -28.4690   -0.7850   29.8287 C.ar    1  UNL1       -0.0003
      3 C         -27.1356    0.2359   28.5352 C.ar    1  UNL1       -0.0195
      4 C         -26.8745    1.2825   29.3982 C.ar    1  UNL1       -0.0042
      5 C         -27.5070    1.2380   30.6295 C.ar    1  UNL1       -0.0003
      6 C         -28.3293    0.1745   30.9350 C.ar    1  UNL1       -0.0000
      7 C         -26.4077    0.3070   27.2259 C.3     1  UNL1        0.0589
      8 C         -25.0105    0.3902   27.3228 C.3     1  UNL1        0.0291
      9 C         -27.0459    0.3288   26.0049 C.3     1  UNL1        0.1652
     10 C         -26.2971    0.2704   24.8501 C.3     1  UNL1        0.0356
     11 C         -24.2723    0.2925   28.5637 C.ar    1  UNL1       -0.0190
     12 C         -22.9366    0.5915   28.5060 C.ar    1  UNL1        0.0164
     13 C         -24.8848    0.3375   24.8953 C.3     1  UNL1        0.0032
     14 C         -24.2318    0.3924   26.0951 C.3     1  UNL1        0.0049
     15 C         -22.0627   -0.0787   29.4011 C.ar    1  UNL1        0.0986
     16 N         -22.5231   -0.6946   30.4652 N.ar    1  UNL1       -0.2423
     17 C         -23.8377   -0.8901   30.6541 C.ar    1  UNL1        0.0986
     18 C         -24.7564   -0.5043   29.6429 C.ar    1  UNL1        0.0164
     19 F         -28.3231    0.1359   25.9817 F       1  UNL1       -0.2369
@<TRIPOS>BOND
     1     3     7    1
     2     7     8    1
     3     7     9    1
     4     9    10    1
     5     8    11    1
     6    10    13    1
     7     8    14    1
     8    13    14    1
     9     9    19    1
    10     1     2   ar
    11     2     6   ar
    12     6     5   ar
    13     5     4   ar
    14     4     3   ar
    15     3     1   ar
    16    11    12   ar
    17    12    15   ar
    18    15    16   ar
    19    16    17   ar
    20    17    18   ar
    21    18    11   ar
