@<TRIPOS>MOLECULE
No_3569-gen_results/8p0m/2024-11-26-14-13-15/
 10 10 0 0 0
SMALL
GASTEIGER

@<TRIPOS>ATOM
      1 C         -28.0162   -0.8135   28.8779 C.ar    1  UNL1        0.0192
      2 C         -28.4690   -0.7850   29.8287 C.ar    1  UNL1        0.0015
      3 C         -28.1960    0.3478   28.0550 C.ar    1  UNL1        0.0831
      4 C         -29.0191    1.3501   28.3782 C.ar    1  UNL1        0.0192
      5 C         -29.4107    0.1803   30.3782 C.ar    1  UNL1        0.0001
      6 C         -29.6059    1.2495   29.6193 C.ar    1  UNL1        0.0015
      7 N         -27.5056    0.3640   26.7956 N.2     1  UNL1       -0.2240
      8 C         -27.8194    0.6254   25.7819 C.2     1  UNL1        0.1989
      9 N         -29.0441    0.9940   25.4588 N.2     1  UNL1       -0.2208
     10 C         -29.9505    1.0702   26.3403 C.2     1  UNL1        0.1213
@<TRIPOS>BOND
     1     3     7    1
     2     7     8    2
     3     8     9    1
     4     9    10    2
     5     1     2   ar
     6     2     5   ar
     7     5     6   ar
     8     6     4   ar
     9     4     3   ar
    10     3     1   ar
