@<TRIPOS>MOLECULE
No_3570-gen_results/8p0m/2024-11-26-14-13-15/
 21 24 0 0 0
SMALL
GASTEIGER

@<TRIPOS>ATOM
      1 C         -28.0162   -0.8135   28.8779 C.ar    1  UNL1        0.0166
      2 C         -27.0636   -0.1189   28.6079 C.ar    1  UNL1        0.0013
      3 C         -26.9716    0.7139   27.5060 C.ar    1  UNL1        0.0002
      4 C         -28.1053    0.7744   26.6421 C.ar    1  UNL1        0.0058
      5 C         -29.2008    0.1044   27.0527 C.ar    1  UNL1        0.0691
      6 C         -29.2096   -0.6029   28.1853 C.ar    1  UNL1        0.0749
      7 C         -30.3749    0.2232   26.1670 C.2     1  UNL1        0.2541
      8 O         -30.3266    0.0573   24.9664 O.2     1  UNL1       -0.2695
      9 N         -31.6321    0.2796   26.7595 N.am    1  UNL1       -0.2521
     10 C         -31.8440    0.4612   28.1577 C.ar    1  UNL1        0.0694
     11 C         -32.7921    0.3461   25.8472 C.3     1  UNL1        0.1204
     12 C         -32.3586    1.7860   28.4630 C.ar    1  UNL1        0.0162
     13 C         -32.3957    2.0484   29.7478 C.ar    1  UNL1        0.0014
     14 C         -32.2180    1.0890   30.7743 C.ar    1  UNL1        0.0014
     15 C         -31.8441   -0.1722   30.4010 C.ar    1  UNL1        0.0178
     16 C         -31.5757   -0.4681   29.0520 C.ar    1  UNL1        0.0841
     17 N         -30.4172   -0.8570   28.8407 N.pl3   1  UNL1       -0.2111
     18 C         -25.6789    1.2949   27.0340 C.ar    1  UNL1        0.0000
     19 C         -24.5895    1.0059   27.8054 C.ar    1  UNL1        0.0000
     20 C         -24.6668    0.2135   28.9864 C.ar    1  UNL1        0.0000
     21 C         -25.7667   -0.3332   29.3614 C.ar    1  UNL1        0.0000
@<TRIPOS>BOND
     1     5     7    1
     2     7     8    2
     3     7     9   am
     4     9    10    1
     5     9    11    1
     6     6    17    1
     7    16    17    1
     8     3    18   ar
     9    18    19   ar
    10    19    20   ar
    11    20    21   ar
    12    21     2   ar
    13     1     2   ar
    14     2     3   ar
    15     3     4   ar
    16     4     5   ar
    17     5     6   ar
    18     6     1   ar
    19    10    12   ar
    20    12    13   ar
    21    13    14   ar
    22    14    15   ar
    23    15    16   ar
    24    16    10   ar
