@<TRIPOS>MOLECULE
No_3572-gen_results/8p0m/2024-11-26-14-13-15/
 24 26 0 0 0
SMALL
GASTEIGER

@<TRIPOS>ATOM
      1 C         -28.0162   -0.8135   28.8779 C.ar    1  UNL1        0.0098
      2 C         -28.4690   -0.7850   29.8287 C.ar    1  UNL1        0.0799
      3 C         -26.5042   -0.7777   28.8766 C.ar    1  UNL1        0.0392
      4 C         -25.6540   -0.6597   27.7191 C.2     1  UNL1        0.1955
      5 C         -27.9180   -0.9374   31.1824 C.ar    1  UNL1        0.0066
      6 C         -26.5424   -0.9399   31.2606 C.ar    1  UNL1        0.0003
      7 C         -25.7832   -0.8935   30.1201 C.ar    1  UNL1        0.0032
      8 C         -25.9259    0.2819   26.7445 C.ar    1  UNL1        0.0386
      9 C         -25.6258    1.4719   26.8191 C.ar    1  UNL1        0.0032
     10 C         -25.9389    2.3920   25.7413 C.ar    1  UNL1       -0.0002
     11 C         -26.7522    1.9284   24.7422 C.ar    1  UNL1       -0.0039
     12 C         -26.8691    0.1117   25.5806 C.ar    1  UNL1       -0.0008
     13 C         -27.1792    0.8098   24.6823 C.ar    1  UNL1       -0.0177
     14 C         -30.0556   -0.7389   29.8214 C.2     1  UNL1        0.3878
     15 O         -30.6328    0.1987   30.4643 O.co2   1  UNL1       -0.2406
     16 O         -30.6943   -1.7509   29.4841 O.co2   1  UNL1       -0.2406
     17 O         -24.6966   -1.4764   27.5920 O.2     1  UNL1       -0.2866
     18 C         -28.1072    0.4297   23.6179 C.3     1  UNL1        0.0526
     19 C         -29.4573    0.1547   24.1345 C.ar    1  UNL1       -0.0178
     20 C         -30.3676    0.9922   24.1987 C.ar    1  UNL1       -0.0039
     21 C         -31.6887    0.6907   24.6811 C.ar    1  UNL1       -0.0003
     22 C         -31.9232   -0.6642   25.0341 C.ar    1  UNL1       -0.0000
     23 C         -30.9599   -1.6285   24.9276 C.ar    1  UNL1       -0.0003
     24 C         -29.7039   -1.2669   24.4881 C.ar    1  UNL1       -0.0039
@<TRIPOS>BOND
     1     3     4    1
     2     4     8    1
     3     2    14    1
     4    14    15   ar
     5    14    16   ar
     6     4    17    2
     7    13    18    1
     8    18    19    1
     9     1     2   ar
    10     2     5   ar
    11     5     6   ar
    12     6     7   ar
    13     7     3   ar
    14     3     1   ar
    15    19    20   ar
    16    20    21   ar
    17    21    22   ar
    18    22    23   ar
    19    23    24   ar
    20    24    19   ar
    21     8     9   ar
    22     9    10   ar
    23    10    11   ar
    24    11    13   ar
    25    13    12   ar
    26    12     8   ar
