@<TRIPOS>MOLECULE
No_3573-gen_results/8p0m/2024-11-26-14-13-15/
 23 25 0 0 0
SMALL
GASTEIGER

@<TRIPOS>ATOM
      1 C         -28.0162   -0.8135   28.8779 C.ar    1  UNL1        0.0799
      2 C         -27.0636   -0.1189   28.6079 C.ar    1  UNL1        0.0066
      3 C         -27.0010    0.6913   27.4910 C.ar    1  UNL1        0.0004
      4 C         -28.1373    0.7363   26.6350 C.ar    1  UNL1        0.0046
      5 C         -29.2360    0.0765   27.0690 C.ar    1  UNL1        0.0552
      6 C         -29.2177   -0.6429   28.1747 C.ar    1  UNL1        0.0111
      7 C         -28.0030   -1.6604   30.1266 C.2     1  UNL1        0.3878
      8 O         -27.1218   -2.5017   30.2445 O.co2   1  UNL1       -0.2406
      9 O         -28.7049   -1.3635   31.1697 O.co2   1  UNL1       -0.2406
     10 C         -30.4189    0.1660   26.1798 C.2     1  UNL1        0.2648
     11 O         -30.4663    0.2582   24.9905 O.2     1  UNL1       -0.2684
     12 N         -31.6033   -0.4232   26.7690 N.am    1  UNL1       -0.1998
     13 C         -32.7888   -0.5653   26.0085 C.3     1  UNL1        0.1388
     14 C         -25.7369    1.4041   27.0438 C.ar    1  UNL1        0.0000
     15 C         -25.3371    2.4948   27.8689 C.ar    1  UNL1        0.0000
     16 C         -24.3976    3.0883   28.0598 C.ar    1  UNL1        0.0000
     17 C         -26.5727    3.2561   28.5497 C.ar    1  UNL1        0.0000
     18 C         -26.3393    4.4190   29.2393 C.ar    1  UNL1        0.0000
     19 C         -23.1471    2.4187   27.3663 C.ar    1  UNL1        0.0000
     20 C         -25.1022    5.0024   29.2117 C.ar    1  UNL1        0.0000
     21 C         -24.0440    4.3834   28.6128 C.ar    1  UNL1        0.0000
     22 C         -25.0308    0.9876   25.9818 C.ar    1  UNL1        0.0000
     23 C         -23.5392    1.5280   26.2531 C.ar    1  UNL1        0.0000
@<TRIPOS>BOND
     1     1     7    1
     2     7     8   ar
     3     7     9   ar
     4     5    10    1
     5    10    11    2
     6    10    12   am
     7    12    13    1
     8     3    14    1
     9    16    21   ar
    10    21    20   ar
    11    20    18   ar
    12    18    17   ar
    13    17    15   ar
    14     1     2   ar
    15     2     3   ar
    16     3     4   ar
    17     4     5   ar
    18     5     6   ar
    19     6     1   ar
    20    14    15   ar
    21    15    16   ar
    22    16    19   ar
    23    19    23   ar
    24    23    22   ar
    25    22    14   ar
