@<TRIPOS>MOLECULE
No_3574-gen_results/8p0m/2024-11-26-14-13-15/
 11 12 0 0 0
SMALL
GASTEIGER

@<TRIPOS>ATOM
      1 O         -28.1229   -1.3353   28.4874 O.2     1  UNL1       -0.2604
      2 C         -27.4806   -0.4044   28.7094 C.2     1  UNL1        0.2943
      3 C         -27.1904    0.2460   29.5268 C.1     1  UNL1       -0.0070
      4 N         -26.6021   -0.1577   27.5515 N.am    1  UNL1       -0.2398
      5 C         -25.6420    0.9030   27.5822 C.3     1  UNL1        0.1659
      6 C         -25.5003    1.6142   28.7368 C.3     1  UNL1        0.1146
      7 C         -26.2553    1.3158   29.8133 C.1     1  UNL1       -0.0788
      8 N         -24.8957    1.1417   26.4868 N.3     1  UNL1       -0.1802
      9 C         -24.7611    0.5658   25.4325 C.3     1  UNL1        0.1812
     10 N         -25.6447   -0.4115   25.2469 N.3     1  UNL1       -0.1783
     11 C         -26.5316   -0.7813   26.2766 C.3     1  UNL1        0.1884
@<TRIPOS>BOND
     1     1     2    2
     2     2     3    1
     3     2     4   am
     4     4     5    1
     5     5     6    1
     6     3     7    3
     7     6     7    1
     8     8     9    1
     9     4    11    1
    10    10    11    1
    11     5     8    1
    12     9    10    1
