@<TRIPOS>MOLECULE
No_3575-gen_results/8p0m/2024-11-26-14-13-15/
 13 14 0 0 0
SMALL
GASTEIGER

@<TRIPOS>ATOM
      1 O         -28.1229   -1.3353   28.4874 O.2     1  UNL1       -0.2730
      2 C         -27.0637   -0.8242   28.8687 C.2     1  UNL1        0.2450
      3 C         -26.4017   -0.0623   28.6224 C.3     1  UNL1        0.1004
      4 N         -26.3805   -1.7991   29.9619 N.am    1  UNL1       -0.2052
      5 C         -25.0334    0.3743   29.0484 C.3     1  UNL1        0.0154
      6 C         -24.5462   -0.4703   30.1069 C.3     1  UNL1        0.0243
      7 C         -25.2361   -1.5529   30.4712 C.3     1  UNL1        0.1152
      8 C         -26.8296    0.9867   27.5279 C.ar    1  UNL1       -0.0138
      9 C         -27.2144    1.9911   27.7234 C.ar    1  UNL1       -0.0038
     10 C         -26.7001    0.3815   26.1541 C.ar    1  UNL1       -0.0038
     11 C         -27.2403    0.9786   25.0564 C.ar    1  UNL1       -0.0003
     12 C         -27.7228    2.8747   26.5909 C.ar    1  UNL1       -0.0003
     13 C         -27.7012    2.3350   25.2621 C.ar    1  UNL1       -0.0000
@<TRIPOS>BOND
     1     1     2    2
     2     2     3    1
     3     2     4   am
     4     3     5    1
     5     6     7    1
     6     3     8    1
     7     5     6    1
     8     7     4    1
     9     8     9   ar
    10     9    12   ar
    11    12    13   ar
    12    13    11   ar
    13    11    10   ar
    14    10     8   ar
