@<TRIPOS>MOLECULE
No_3576-gen_results/8p0m/2024-11-26-14-13-15/
 20 22 0 0 0
SMALL
GASTEIGER

@<TRIPOS>ATOM
      1 C         -28.0162   -0.8135   28.8779 C.ar    1  UNL1        0.0178
      2 C         -27.0636   -0.1189   28.6079 C.ar    1  UNL1        0.0762
      3 C         -25.7647   -0.3897   29.0360 C.ar    1  UNL1        0.0025
      4 C         -25.5296   -1.5302   29.9014 C.ar    1  UNL1        0.0007
      5 C         -26.6577   -2.2915   30.2035 C.ar    1  UNL1        0.0114
      6 C         -27.8548   -1.9555   29.7630 C.ar    1  UNL1        0.0579
      7 C         -24.5349    0.4128   28.7431 C.ar    1  UNL1       -0.0158
      8 C         -23.3062    0.0366   29.0393 C.ar    1  UNL1        0.0511
      9 C         -23.0648   -1.1443   29.7080 C.ar    1  UNL1        0.0042
     10 C         -24.1873   -1.9562   30.1956 C.ar    1  UNL1        0.0002
     11 C         -22.1179    0.8470   28.6508 C.2     1  UNL1        0.2645
     12 N         -22.2832    1.8779   27.7388 N.am    1  UNL1       -0.2013
     13 O         -20.9438    0.4473   28.8332 O.2     1  UNL1       -0.2684
     14 CL        -29.2365   -2.8847   30.2729 Cl      1  UNL1       -0.0822
     15 C         -27.1934    1.0630   27.6520 C.2     1  UNL1        0.3413
     16 O         -27.7668    1.9782   27.9852 O.2     1  UNL1       -0.2449
     17 O         -26.8442    0.8492   26.3352 O.3     1  UNL1       -0.4413
     18 C         -26.5710    1.8284   25.5507 C.3     1  UNL1        0.2560
     19 C         -23.4634    2.5110   27.4222 C.3     1  UNL1        0.1201
     20 C         -24.7019    1.6845   27.9116 C.3     1  UNL1        0.0499
@<TRIPOS>BOND
     1     8    11    1
     2    11    12   am
     3    11    13    2
     4     6    14    1
     5     2    15    1
     6    15    16    2
     7    15    17    1
     8    17    18    1
     9    12    19    1
    10     7    20    1
    11    19    20    1
    12     1     2   ar
    13     2     3   ar
    14     4     5   ar
    15     5     6   ar
    16     6     1   ar
    17     3     4   ar
    18     4    10   ar
    19    10     9   ar
    20     9     8   ar
    21     8     7   ar
    22     7     3   ar
