@<TRIPOS>MOLECULE
No_3577-gen_results/8p0m/2024-11-26-14-13-15/
 13 14 0 0 0
SMALL
GASTEIGER

@<TRIPOS>ATOM
      1 C         -28.0162   -0.8135   28.8779 C.ar    1  UNL1       -0.0039
      2 C         -28.4690   -0.7850   29.8287 C.ar    1  UNL1       -0.0003
      3 C         -26.5455   -0.8762   28.8500 C.ar    1  UNL1       -0.0178
      4 C         -25.6825   -0.7773   27.6829 C.3     1  UNL1        0.0526
      5 C         -27.9181   -1.0034   31.1877 C.ar    1  UNL1       -0.0000
      6 C         -26.5308   -1.0794   31.2463 C.ar    1  UNL1       -0.0003
      7 C         -25.7798   -1.0462   30.0905 C.ar    1  UNL1       -0.0039
      8 C         -25.8977    0.2387   26.7449 C.ar    1  UNL1       -0.0178
      9 C         -25.6318    1.4984   27.0379 C.ar    1  UNL1       -0.0039
     10 C         -25.8798    2.5091   26.0659 C.ar    1  UNL1       -0.0003
     11 C         -26.5415    2.1553   24.9273 C.ar    1  UNL1       -0.0000
     12 C         -26.6010    0.0217   25.5360 C.ar    1  UNL1       -0.0039
     13 C         -26.9030    0.9047   24.6737 C.ar    1  UNL1       -0.0003
@<TRIPOS>BOND
     1     3     4    1
     2     4     8    1
     3     1     2   ar
     4     2     5   ar
     5     5     6   ar
     6     6     7   ar
     7     7     3   ar
     8     3     1   ar
     9     8     9   ar
    10     9    10   ar
    11    10    11   ar
    12    11    13   ar
    13    13    12   ar
    14    12     8   ar
