@<TRIPOS>MOLECULE
No_3578-gen_results/8p0m/2024-11-26-14-13-15/
 35 38 0 0 0
SMALL
GASTEIGER

@<TRIPOS>ATOM
      1 C         -28.0162   -0.8135   28.8779 C.ar    1  UNL1       -0.0067
      2 C         -27.0636   -0.1189   28.6079 C.ar    1  UNL1       -0.0155
      3 C         -25.7647   -0.3897   29.0360 C.ar    1  UNL1       -0.0039
      4 C         -24.5516    0.4058   28.7646 C.ar    1  UNL1       -0.0042
      5 C         -23.2300    0.1178   29.2575 C.ar    1  UNL1       -0.0003
      6 C         -22.1393    0.9427   28.9224 C.ar    1  UNL1       -0.0000
      7 C         -27.8294   -1.9287   29.8545 C.ar    1  UNL1       -0.0051
      8 C         -26.5882   -2.3272   30.2682 C.ar    1  UNL1       -0.0029
      9 C         -25.4565   -1.5432   29.9146 C.ar    1  UNL1       -0.0006
     10 C         -22.2302    1.9089   27.8723 C.ar    1  UNL1       -0.0003
     11 C         -24.5538    1.4700   27.7617 C.ar    1  UNL1       -0.0214
     12 C         -25.8192    1.7343   27.1414 C.3     1  UNL1        0.0381
     13 C         -23.4497    2.1614   27.3194 C.ar    1  UNL1       -0.0042
     14 C         -27.1054    1.0088   27.5868 C.3     1  UNL1        0.0844
     15 C         -28.3478    1.3117   26.9887 C.2     1  UNL1        0.1582
     16 C         -29.0617    2.2138   27.6644 C.3     1  UNL1        0.0801
     17 C         -28.7453    3.0677   28.3947 C.ar    1  UNL1       -0.0158
     18 C         -29.6072    4.0548   29.1055 C.ar    1  UNL1       -0.0039
     19 C         -29.1096    4.9997   30.0503 C.ar    1  UNL1       -0.0006
     20 C         -27.7285    5.0572   30.3006 C.ar    1  UNL1       -0.0043
     21 C         -26.9880    4.3221   29.6510 C.ar    1  UNL1       -0.0222
     22 C         -27.3720    3.3304   28.8105 C.ar    1  UNL1       -0.0081
     23 C         -30.6124    2.0665   27.3812 C.3     1  UNL1        0.0125
     24 O         -28.4543    1.0470   25.7836 O.2     1  UNL1       -0.2954
     25 C         -25.4527    4.3991   29.9417 C.3     1  UNL1        0.0310
     26 C         -29.0338   -2.7262   30.2680 C.3     1  UNL1        0.1150
     27 N         -28.9213   -4.0338   30.5043 N.3     1  UNL1       -0.2133
     28 C         -29.9151   -4.9241   30.2549 C.3     1  UNL1        0.0894
     29 C         -30.6957   -4.7707   29.1563 C.3     1  UNL1        0.0235
     30 C         -31.9544   -5.1805   29.3978 C.3     1  UNL1        0.0291
     31 C         -32.9294   -4.8235   28.4185 C.2     1  UNL1       -0.0055
     32 C         -32.3876   -4.3649   27.2283 C.2     1  UNL1        0.0939
     33 N         -33.2702   -3.8338   26.3276 N.2     1  UNL1       -0.2473
     34 C         -32.7195   -2.9550   25.3813 C.2     1  UNL1        0.0728
     35 C         -32.5899   -1.5213   25.6972 C.3     1  UNL1        0.0534
@<TRIPOS>BOND
     1     3     4    1
     2    11    12    1
     3     2    14    1
     4    12    14    1
     5    14    15    1
     6    15    16    1
     7    16    23    1
     8    15    24    2
     9    21    25    1
    10     7    26    1
    11    26    27    1
    12    27    28    1
    13    28    29    1
    14    29    30    1
    15    30    31    1
    16    31    32    2
    17    32    33    1
    18    33    34    2
    19    34    35    1
    20    16    17    1
    21    17    18   ar
    22    18    19   ar
    23    19    20   ar
    24    20    21   ar
    25    21    22   ar
    26    22    17   ar
    27     1     2   ar
    28     2     3   ar
    29     3     9   ar
    30     9     8   ar
    31     8     7   ar
    32     7     1   ar
    33     4     5   ar
    34     5     6   ar
    35     6    10   ar
    36    10    13   ar
    37    13    11   ar
    38    11     4   ar
