@<TRIPOS>MOLECULE
No_3579-gen_results/8p0m/2024-11-26-14-13-15/
 16 18 0 0 0
SMALL
GASTEIGER

@<TRIPOS>ATOM
      1 C         -28.0162   -0.8135   28.8779 C.ar    1  UNL1       -0.0003
      2 C         -28.4690   -0.7850   29.8287 C.ar    1  UNL1       -0.0002
      3 C         -28.1960    0.3478   28.0550 C.ar    1  UNL1       -0.0045
      4 C         -29.0191    1.3501   28.3782 C.ar    1  UNL1       -0.0229
      5 C         -29.4107    0.1803   30.3782 C.ar    1  UNL1       -0.0016
      6 C         -29.2236    2.4924   27.5425 C.3     1  UNL1        0.0308
      7 C         -29.5873    1.2242   29.6185 C.ar    1  UNL1        0.0101
      8 C         -28.8767    3.6034   28.0657 C.3     1  UNL1        0.0308
      9 C         -28.1469    3.7730   29.1607 C.ar    1  UNL1       -0.0229
     10 C         -27.3959    4.6814   29.5134 C.ar    1  UNL1       -0.0045
     11 C         -26.5913    4.7201   30.7352 C.ar    1  UNL1       -0.0003
     12 C         -26.6373    3.5579   31.5450 C.ar    1  UNL1       -0.0002
     13 C         -27.4106    2.5259   31.1520 C.ar    1  UNL1       -0.0016
     14 C         -28.0587    2.5957   30.0679 C.ar    1  UNL1        0.0101
     15 C         -29.0011    1.7353   29.9333 C.3     1  UNL1        0.2050
     16 F         -29.4971    2.2150   31.1537 F       1  UNL1       -0.2276
@<TRIPOS>BOND
     1     4     6    1
     2     6     8    1
     3     7    15    1
     4    14    15    1
     5    15    16    1
     6     8     9    1
     7     9    10   ar
     8    10    11   ar
     9    11    12   ar
    10    12    13   ar
    11    13    14   ar
    12    14     9   ar
    13     1     2   ar
    14     2     5   ar
    15     5     7   ar
    16     7     4   ar
    17     4     3   ar
    18     3     1   ar
