@<TRIPOS>MOLECULE
No_358-gen_results/8p0m/2024-11-26-14-13-15/
 15 15 0 0 0
SMALL
GASTEIGER

@<TRIPOS>ATOM
      1 C         -28.0162   -0.8135   28.8779 C.ar    1  UNL1        0.0665
      2 C         -27.0636   -0.1189   28.6079 C.ar    1  UNL1        0.1432
      3 C         -25.7923   -0.4302   29.0761 C.ar    1  UNL1        0.0298
      4 C         -25.5681   -1.2411   29.7572 C.ar    1  UNL1        0.0054
      5 C         -26.6114   -2.1840   30.2439 C.ar    1  UNL1        0.0371
      6 C         -27.8191   -1.9189   29.8034 C.ar    1  UNL1        0.1415
      7 O         -28.8528   -2.7193   30.2109 O.3     1  UNL1       -0.4655
      8 C         -28.6374   -3.9987   30.5829 C.3     1  UNL1        0.2915
      9 F         -27.2324    1.0005   27.7976 F       1  UNL1       -0.2041
     10 C         -29.8263   -4.5827   31.3079 C.2     1  UNL1        0.2901
     11 O         -29.6982   -5.6799   31.4762 O.2     1  UNL1       -0.2689
     12 N         -31.0192   -4.0371   31.1024 N.am    1  UNL1       -0.1751
     13 C         -32.1998   -4.6718   31.5801 C.2     1  UNL1        0.0842
     14 C         -33.2026   -4.3924   30.9747 C.2     1  UNL1       -0.0079
     15 C         -34.3760   -4.8198   31.0951 C.3     1  UNL1        0.0321
@<TRIPOS>BOND
     1     6     7    1
     2     7     8    1
     3     2     9    1
     4     8    10    1
     5    10    11    2
     6    10    12   am
     7    12    13    1
     8    13    14    2
     9    14    15    1
    10     1     2   ar
    11     2     3   ar
    12     3     4   ar
    13     4     5   ar
    14     5     6   ar
    15     6     1   ar
