@<TRIPOS>MOLECULE
No_3580-gen_results/8p0m/2024-11-26-14-13-15/
 22 23 0 0 0
SMALL
GASTEIGER

@<TRIPOS>ATOM
      1 C         -28.0162   -0.8135   28.8779 C.ar    1  UNL1       -0.0040
      2 C         -27.0636   -0.1189   28.6079 C.ar    1  UNL1       -0.0184
      3 C         -26.9287    1.1713   29.0083 C.ar    1  UNL1       -0.0040
      4 C         -27.9560    1.7411   29.7840 C.ar    1  UNL1       -0.0003
      5 C         -29.0569   -0.3271   29.7466 C.ar    1  UNL1       -0.0003
      6 C         -28.9828    0.9722   30.1516 C.ar    1  UNL1       -0.0000
      7 C         -25.8907   -0.6263   27.7857 C.3     1  UNL1        0.0446
      8 C         -25.4633    0.1123   26.6815 C.2     1  UNL1       -0.0221
      9 C         -25.0310   -1.6701   28.2406 C.3     1  UNL1        0.0134
     10 C         -23.8639   -1.4110   29.0099 C.3     1  UNL1        0.0264
     11 C         -23.2675   -0.1518   29.0496 C.2     1  UNL1       -0.0307
     12 C         -21.8590   -0.0594   29.1892 C.2     1  UNL1       -0.0304
     13 C         -21.1005    0.0202   28.2465 C.3     1  UNL1        0.0303
     14 C         -26.2279    0.7849   25.9293 C.2     1  UNL1       -0.0043
     15 C         -27.6565    0.8118   26.1198 C.2     1  UNL1       -0.0003
     16 C         -28.4443    1.4342   25.1238 C.2     1  UNL1       -0.0000
     17 C         -29.7946    1.5608   25.3559 C.ar    1  UNL1       -0.0000
     18 C         -30.3117    0.9342   26.4860 C.ar    1  UNL1       -0.0000
     19 C         -31.7206    1.0335   26.6790 C.ar    1  UNL1        0.0000
     20 C         -32.4521    1.7794   25.8066 C.ar    1  UNL1        0.0000
     21 C         -31.9617    2.4031   24.7156 C.ar    1  UNL1        0.0000
     22 C         -30.5981    2.3281   24.4830 C.ar    1  UNL1       -0.0000
@<TRIPOS>BOND
     1     2     7    1
     2     7     8    1
     3     7     9    1
     4     9    10    1
     5    10    11    1
     6    11    12    2
     7    12    13    1
     8     8    14    2
     9    14    15    1
    10    15    16    2
    11    16    17    1
    12    17    18   ar
    13    18    19   ar
    14    19    20   ar
    15    20    21   ar
    16    21    22   ar
    17    22    17   ar
    18     1     2   ar
    19     2     3   ar
    20     3     4   ar
    21     4     6   ar
    22     6     5   ar
    23     5     1   ar
