@<TRIPOS>MOLECULE
No_3581-gen_results/8p0m/2024-11-26-14-13-15/
 12 13 0 0 0
SMALL
GASTEIGER

@<TRIPOS>ATOM
      1 C         -28.0162   -0.8135   28.8779 C.3     1  UNL1        0.1328
      2 C         -27.0636   -0.1189   28.6079 C.ar    1  UNL1        0.0004
      3 C         -27.0010    0.6913   27.4910 C.ar    1  UNL1       -0.0024
      4 C         -25.7770    1.0214   26.9135 C.ar    1  UNL1       -0.0003
      5 C         -24.5088    0.7364   27.5686 C.ar    1  UNL1       -0.0000
      6 C         -24.5930   -0.0361   28.7390 C.ar    1  UNL1       -0.0003
      7 C         -25.8114   -0.4771   29.1584 C.ar    1  UNL1       -0.0024
      8 N         -29.1846   -0.1268   29.1129 N.ar    1  UNL1       -0.3207
      9 C         -29.6470    0.6059   28.5261 C.ar    1  UNL1        0.0762
     10 C         -30.9329    1.1773   28.9209 C.ar    1  UNL1        0.0202
     11 C         -29.9249   -0.3132   30.3895 C.ar    1  UNL1        0.0762
     12 C         -31.0262    0.5085   30.1983 C.ar    1  UNL1        0.0202
@<TRIPOS>BOND
     1     1     2    1
     2     1     8    1
     3     8     9   ar
     4     9    10   ar
     5     8    11   ar
     6    10    12   ar
     7    11    12   ar
     8     2     3   ar
     9     3     4   ar
    10     4     5   ar
    11     5     6   ar
    12     6     7   ar
    13     7     2   ar
