@<TRIPOS>MOLECULE
No_3582-gen_results/8p0m/2024-11-26-14-13-15/
 12 13 0 0 0
SMALL
GASTEIGER

@<TRIPOS>ATOM
      1 C         -28.0162   -0.8135   28.8779 C.ar    1  UNL1        0.0000
      2 C         -28.4690   -0.7850   29.8287 C.ar    1  UNL1        0.0000
      3 C         -27.0871    0.2903   28.6377 C.ar    1  UNL1        0.0000
      4 C         -26.9102    0.8486   27.4199 C.ar    1  UNL1        0.0000
      5 C         -27.8863   -0.5049   31.0944 C.ar    1  UNL1        0.0000
      6 C         -26.9294    0.5930   31.0741 C.ar    1  UNL1        0.0000
      7 C         -26.5225    0.9550   29.8008 C.ar    1  UNL1        0.0000
      8 C         -27.6923    1.1530   26.5994 C.ar    1  UNL1        0.0000
      9 C         -27.3659    1.5015   25.2102 C.ar    1  UNL1        0.0000
     10 C         -26.2660    1.3783   24.8988 C.ar    1  UNL1        0.0000
     11 C         -25.4854    0.7234   26.7884 C.ar    1  UNL1        0.0000
     12 C         -25.1543    1.0272   25.6247 C.ar    1  UNL1        0.0000
@<TRIPOS>BOND
     1     3     4    1
     2     4     8   ar
     3     8     9   ar
     4     9    10   ar
     5    10    12   ar
     6    12    11   ar
     7    11     4   ar
     8     1     2   ar
     9     2     5   ar
    10     5     6   ar
    11     6     7   ar
    12     7     3   ar
    13     3     1   ar
