@<TRIPOS>MOLECULE
No_3583-gen_results/8p0m/2024-11-26-14-13-15/
 17 20 0 0 0
SMALL
GASTEIGER

@<TRIPOS>ATOM
      1 O         -28.1229   -1.3353   28.4874 O.2     1  UNL1       -0.2726
      2 C         -27.4806   -0.4044   28.7094 C.2     1  UNL1        0.2495
      3 C         -27.1904    0.2460   29.5268 C.3     1  UNL1        0.1046
      4 N         -26.8157    0.1371   27.4262 N.am    1  UNL1       -0.1793
      5 C         -27.5787    0.0639   30.8960 C.2     1  UNL1       -0.0232
      6 C         -25.8899    1.1418   27.4087 C.ar    1  UNL1        0.0694
      7 C         -25.1603    1.4941   26.3219 C.ar    1  UNL1        0.0163
      8 C         -24.0875    2.5040   26.5177 C.ar    1  UNL1        0.0013
      9 C         -23.8608    2.9935   27.7922 C.ar    1  UNL1       -0.0002
     10 C         -25.2703    1.8174   28.5971 C.ar    1  UNL1       -0.0057
     11 C         -24.3763    2.7128   28.6849 C.ar    1  UNL1       -0.0029
     12 C         -27.3028    0.7569   32.0611 C.2     1  UNL1       -0.0183
     13 C         -26.1205    1.3125   29.8925 C.3     1  UNL1        0.0457
     14 C         -25.9819    1.8551   31.1642 C.3     1  UNL1        0.0656
     15 C         -25.3199    2.4998   32.0827 C.2     1  UNL1        0.0712
     16 N         -25.8264    2.3163   33.2833 N.2     1  UNL1       -0.2687
     17 C         -26.8370    1.2876   33.3788 C.3     1  UNL1        0.1473
@<TRIPOS>BOND
     1     1     2    2
     2     2     3    1
     3     2     4   am
     4     3     5    1
     5     4     6    1
     6     5    12    2
     7     3    13    1
     8    10    13    1
     9    12    14    1
    10    13    14    1
    11    14    15    1
    12    15    16    2
    13    12    17    1
    14    16    17    1
    15     6     7   ar
    16     7     8   ar
    17     8     9   ar
    18     9    11   ar
    19    11    10   ar
    20    10     6   ar
