@<TRIPOS>MOLECULE
No_3587-gen_results/8p0m/2024-11-26-14-13-15/
 11 12 0 0 0
SMALL
GASTEIGER

@<TRIPOS>ATOM
      1 CL        -28.1493   -0.8198   28.9079 Cl      1  UNL1       -0.0822
      2 C         -26.9116   -0.0797   28.9452 C.ar    1  UNL1        0.0577
      3 C         -26.0490   -0.0718   27.8591 C.ar    1  UNL1        0.0114
      4 C         -24.6574   -0.0370   27.9638 C.ar    1  UNL1        0.0008
      5 C         -23.7086   -0.0558   26.9604 C.ar    1  UNL1        0.0000
      6 C         -26.0393   -0.0944   30.1652 C.ar    1  UNL1        0.0114
      7 C         -24.7665    0.1234   30.3613 C.ar    1  UNL1        0.0009
      8 C         -23.9831    0.1437   29.2679 C.ar    1  UNL1        0.0001
      9 C         -22.5740    0.3181   29.2574 C.ar    1  UNL1        0.0000
     10 C         -21.7879    0.5837   28.2161 C.ar    1  UNL1        0.0000
     11 C         -22.4227    0.3822   27.0128 C.ar    1  UNL1        0.0000
@<TRIPOS>BOND
     1     1     2    1
     2     4     5   ar
     3     5    11   ar
     4    11    10   ar
     5    10     9   ar
     6     9     8   ar
     7     2     3   ar
     8     3     4   ar
     9     4     8   ar
    10     8     7   ar
    11     7     6   ar
    12     6     2   ar
