@<TRIPOS>MOLECULE
No_3588-gen_results/8p0m/2024-11-26-14-13-15/
 22 24 0 0 0
SMALL
GASTEIGER

@<TRIPOS>ATOM
      1 C         -28.0162   -0.8135   28.8779 C.ar    1  UNL1        0.0417
      2 C         -27.0636   -0.1189   28.6079 C.ar    1  UNL1       -0.0007
      3 C         -26.8756    1.1325   28.9134 C.ar    1  UNL1       -0.0182
      4 C         -27.9014    1.8066   29.6436 C.ar    1  UNL1       -0.0004
      5 C         -27.7904    3.1512   30.0021 C.ar    1  UNL1        0.0030
      6 C         -29.0699   -0.3114   29.6885 C.ar    1  UNL1        0.1957
      7 C         -28.9665    1.0257   30.0680 C.ar    1  UNL1        0.0417
      8 C         -27.2599    4.1227   29.6758 C.ar    1  UNL1        0.0002
      9 C         -26.9042    5.2177   29.8633 C.ar    1  UNL1        0.0033
     10 C         -27.4470    5.7995   31.1108 C.ar    1  UNL1        0.0420
     11 C         -28.2015    4.8547   31.8328 C.ar    1  UNL1        0.1957
     12 C         -28.3469    3.5046   31.4343 C.ar    1  UNL1        0.0420
     13 O         -30.0517   -1.1035   30.0915 O.3     1  UNL1       -0.2866
     14 C         -25.6841    1.9441   28.4513 C.3     1  UNL1        0.0446
     15 C         -24.4400    1.4949   28.6837 C.ar    1  UNL1       -0.0184
     16 C         -23.4212    1.9672   27.8402 C.ar    1  UNL1       -0.0040
     17 C         -24.0704    0.7862   29.8455 C.ar    1  UNL1       -0.0040
     18 C         -22.0902    1.5260   28.0495 C.ar    1  UNL1       -0.0003
     19 C         -22.7439    0.3341   30.0342 C.ar    1  UNL1       -0.0003
     20 C         -21.7099    0.7525   29.1090 C.ar    1  UNL1       -0.0000
     21 O         -28.7366    5.2010   33.0673 O.3     1  UNL1       -0.2866
     22 C         -25.9080    2.2575   26.9709 C.3     1  UNL1        0.0094
@<TRIPOS>BOND
     1     4     5    1
     2     6    13    1
     3     3    14    1
     4    14    15    1
     5    11    21    1
     6    14    22    1
     7     5     8   ar
     8     8     9   ar
     9     9    10   ar
    10    10    11   ar
    11    11    12   ar
    12    12     5   ar
    13    15    16   ar
    14    16    18   ar
    15    18    20   ar
    16    20    19   ar
    17    19    17   ar
    18    17    15   ar
    19     1     2   ar
    20     2     3   ar
    21     3     4   ar
    22     4     7   ar
    23     7     6   ar
    24     6     1   ar
