@<TRIPOS>MOLECULE
No_359-gen_results/8p0m/2024-11-26-14-13-15/
 22 25 0 0 0
SMALL
GASTEIGER

@<TRIPOS>ATOM
      1 C         -28.0162   -0.8135   28.8779 C.ar    1  UNL1        0.0594
      2 C         -27.0636   -0.1189   28.6079 C.ar    1  UNL1        0.0446
      3 C         -25.7647   -0.3897   29.0360 C.ar    1  UNL1        0.1414
      4 C         -25.5296   -1.5302   29.9014 C.ar    1  UNL1        0.0299
      5 C         -26.6888   -2.2893   30.1810 C.ar    1  UNL1        0.0081
      6 C         -27.8727   -1.9508   29.7373 C.ar    1  UNL1        0.0674
      7 F         -24.6993    0.3604   28.7753 F       1  UNL1       -0.2041
      8 C         -29.0333   -2.8145   30.1506 C.2     1  UNL1        0.2513
      9 N         -30.2066   -2.2497   30.2766 N.am    1  UNL1       -0.2611
     10 O         -28.8825   -4.0248   30.3981 O.2     1  UNL1       -0.2698
     11 C         -31.3813   -3.0340   30.6446 C.3     1  UNL1        0.0952
     12 C         -32.3828   -2.3956   30.9717 C.3     1  UNL1        0.0217
     13 C         -32.4475   -0.9544   30.7865 C.3     1  UNL1        0.0053
     14 C         -31.3294   -0.2295   30.4279 C.3     1  UNL1        0.0412
     15 C         -30.2137   -0.8373   30.2659 C.3     1  UNL1        0.1561
     16 N         -29.3481   -0.2776   29.0746 N.pl3   1  UNL1       -0.2717
     17 C         -29.7869    0.6752   28.2067 C.ar    1  UNL1        0.0528
     18 C         -29.4714    1.9182   28.4982 C.ar    1  UNL1        0.0149
     19 C         -30.5548    0.2363   27.1499 C.ar    1  UNL1        0.0149
     20 C         -29.8610    2.9704   27.6392 C.ar    1  UNL1        0.0013
     21 C         -31.0386    1.2165   26.2836 C.ar    1  UNL1        0.0013
     22 C         -30.6728    2.5993   26.5237 C.ar    1  UNL1        0.0001
@<TRIPOS>BOND
     1     3     7    1
     2     6     8    1
     3     8     9   am
     4     8    10    2
     5     9    11    1
     6    12    13    1
     7     9    15    1
     8    14    15    1
     9     1    16    1
    10    15    16    1
    11    16    17    1
    12    11    12    1
    13    13    14    1
    14     1     2   ar
    15     2     3   ar
    16     3     4   ar
    17     4     5   ar
    18     5     6   ar
    19     6     1   ar
    20    17    18   ar
    21    18    20   ar
    22    20    22   ar
    23    22    21   ar
    24    21    19   ar
    25    19    17   ar
