@<TRIPOS>MOLECULE
No_3590-gen_results/8p0m/2024-11-26-14-13-15/
 34 38 0 0 0
SMALL
GASTEIGER

@<TRIPOS>ATOM
      1 C         -28.0162   -0.8135   28.8779 C.ar    1  UNL1        0.0123
      2 C         -27.0636   -0.1189   28.6079 C.ar    1  UNL1        0.0577
      3 C         -26.9287    1.1713   29.0083 C.ar    1  UNL1        0.0111
      4 C         -27.9560    1.7411   29.7840 C.ar    1  UNL1        0.0122
      5 C         -29.0569   -0.3271   29.7466 C.ar    1  UNL1        0.0123
      6 C         -28.9828    0.9722   30.1516 C.ar    1  UNL1        0.0577
      7 CL        -25.7352   -0.7297   27.6631 Cl      1  UNL1       -0.0822
      8 CL        -30.2478    1.5902   31.1508 Cl      1  UNL1       -0.0822
      9 C         -25.7492    2.0286   28.5730 C.2     1  UNL1       -0.0031
     10 C         -24.5982    1.8259   29.3257 C.2     1  UNL1       -0.0214
     11 C         -24.4016    1.1960   30.5478 C.3     1  UNL1        0.0524
     12 C         -25.2949    1.4304   31.5827 C.ar    1  UNL1       -0.0137
     13 C         -25.5377    0.9631   32.5885 C.ar    1  UNL1        0.0475
     14 C         -26.3677    1.4413   33.7278 C.ar    1  UNL1       -0.0163
     15 C         -26.8987    0.7027   34.7407 C.3     1  UNL1        0.0499
     16 C         -25.1277   -0.4754   32.9131 C.2     1  UNL1        0.2642
     17 C         -26.3615   -0.5530   34.9470 C.3     1  UNL1        0.1201
     18 N         -25.5223   -1.1110   34.0683 N.am    1  UNL1       -0.2013
     19 C         -25.7180    2.9484   31.6360 C.ar    1  UNL1       -0.0038
     20 C         -26.4264    3.5397   32.6655 C.ar    1  UNL1       -0.0006
     21 C         -26.8247    2.8044   33.6036 C.ar    1  UNL1       -0.0041
     22 O         -24.3123   -1.0679   32.1983 O.2     1  UNL1       -0.2684
     23 C         -25.9226    2.9181   27.5635 C.ar    1  UNL1       -0.0003
     24 C         -26.2546    4.0808   27.7344 C.ar    1  UNL1       -0.0000
     25 C         -26.3069    5.0889   26.6607 C.ar    1  UNL1       -0.0000
     26 C         -25.7510    2.4344   26.2417 C.ar    1  UNL1       -0.0000
     27 C         -26.6170    6.4199   26.9857 C.ar    1  UNL1       -0.0000
     28 C         -26.2450    7.3784   26.3357 C.ar    1  UNL1        0.0000
     29 C         -26.6925    8.7757   26.5999 C.ar    1  UNL1        0.0000
     30 C         -27.6379    8.9968   27.5828 C.ar    1  UNL1        0.0000
     31 C         -27.6670    6.7168   27.9911 C.ar    1  UNL1        0.0000
     32 C         -28.1586    7.9381   28.2252 C.ar    1  UNL1        0.0000
     33 C         -25.9891    4.5708   25.4937 C.ar    1  UNL1       -0.0000
     34 C         -25.7424    3.2487   25.2770 C.ar    1  UNL1       -0.0000
@<TRIPOS>BOND
     1     2     7    1
     2     6     8    1
     3     3     9    1
     4     9    10    2
     5    10    11    1
     6    11    12    1
     7    13    16    1
     8    15    17    1
     9    16    18   am
    10    17    18    1
    11    16    22    2
    12     9    23    1
    13    25    27    1
    14    14    15    1
    15     1     2   ar
    16     2     3   ar
    17     3     4   ar
    18     4     6   ar
    19     6     5   ar
    20     5     1   ar
    21    23    24   ar
    22    24    25   ar
    23    25    33   ar
    24    33    34   ar
    25    34    26   ar
    26    26    23   ar
    27    12    13   ar
    28    13    14   ar
    29    14    21   ar
    30    21    20   ar
    31    20    19   ar
    32    19    12   ar
    33    27    28   ar
    34    28    29   ar
    35    29    30   ar
    36    30    32   ar
    37    32    31   ar
    38    31    27   ar
