@<TRIPOS>MOLECULE
No_3591-gen_results/8p0m/2024-11-26-14-13-15/
 22 24 0 0 0
SMALL
GASTEIGER

@<TRIPOS>ATOM
      1 C         -28.0162   -0.8135   28.8779 C.ar    1  UNL1       -0.0041
      2 C         -27.0636   -0.1189   28.6079 C.ar    1  UNL1       -0.0225
      3 C         -27.0010    0.6913   27.4910 C.ar    1  UNL1       -0.0041
      4 C         -28.1373    0.7363   26.6350 C.ar    1  UNL1        0.0063
      5 C         -29.2360    0.0765   27.0690 C.ar    1  UNL1        0.0798
      6 C         -29.2177   -0.6429   28.1747 C.ar    1  UNL1        0.0063
      7 C         -30.4152    0.1590   26.1819 C.2     1  UNL1        0.3878
      8 O         -31.2774   -0.5117   26.4083 O.co2   1  UNL1       -0.2406
      9 O         -30.5980    1.1627   25.3770 O.co2   1  UNL1       -0.2406
     10 C         -25.7057   -0.2081   29.4188 C.3     1  UNL1        0.0226
     11 C         -25.1052    1.0395   29.8303 C.3     1  UNL1        0.0260
     12 C         -23.7367    0.9742   29.9658 C.3     1  UNL1        0.0047
     13 C         -23.0885    0.0905   29.4591 C.3     1  UNL1        0.0004
     14 C         -23.5876   -1.1419   28.9367 C.3     1  UNL1        0.0003
     15 C         -24.7466   -0.9666   28.4782 C.3     1  UNL1        0.0044
     16 C         -25.9675   -1.0774   30.6664 C.3     1  UNL1        0.0047
     17 C         -25.8512    2.0970   30.4748 C.ar    1  UNL1       -0.0222
     18 C         -26.7714    2.6200   29.9448 C.ar    1  UNL1       -0.0043
     19 C         -27.4641    3.5606   30.2503 C.ar    1  UNL1       -0.0003
     20 C         -27.2294    4.1517   31.5113 C.ar    1  UNL1       -0.0000
     21 C         -26.1801    3.6548   32.2995 C.ar    1  UNL1       -0.0003
     22 C         -25.4346    2.6771   31.7457 C.ar    1  UNL1       -0.0043
@<TRIPOS>BOND
     1     5     7    1
     2     7     8   ar
     3     7     9   ar
     4     2    10    1
     5    10    11    1
     6    12    13    1
     7    10    15    1
     8    14    15    1
     9    10    16    1
    10    11    17    1
    11    11    12    1
    12    13    14    1
    13    17    18   ar
    14    18    19   ar
    15    19    20   ar
    16    20    21   ar
    17    21    22   ar
    18    22    17   ar
    19     1     2   ar
    20     2     3   ar
    21     3     4   ar
    22     4     5   ar
    23     5     6   ar
    24     6     1   ar
