@<TRIPOS>MOLECULE
No_3593-gen_results/8p0m/2024-11-26-14-13-15/
 22 24 0 0 0
SMALL
GASTEIGER

@<TRIPOS>ATOM
      1 C         -28.0162   -0.8135   28.8779 C.ar    1  UNL1        0.0375
      2 C         -28.4690   -0.7850   29.8287 C.ar    1  UNL1        0.0031
      3 C         -28.1960    0.3478   28.0550 C.ar    1  UNL1        0.1469
      4 C         -29.0191    1.3501   28.3782 C.ar    1  UNL1        0.0375
      5 C         -29.4107    0.1803   30.3782 C.ar    1  UNL1        0.0002
      6 C         -29.6059    1.2495   29.6193 C.ar    1  UNL1        0.0031
      7 O         -27.5003    0.3576   26.8164 O.3     1  UNL1       -0.4388
      8 C         -27.6192    0.9023   25.9108 C.2     1  UNL1        0.2109
      9 C         -26.7293    0.5573   24.7734 C.2     1  UNL1        0.0291
     10 N         -28.5017    1.8438   25.5902 N.pl3   1  UNL1       -0.2005
     11 C         -28.6252    2.3555   24.3205 C.3     1  UNL1        0.1432
     12 C         -25.6295   -0.3550   24.9517 C.3     1  UNL1        0.0355
     13 C         -29.7251    2.1458   23.7740 C.ar    1  UNL1        0.0186
     14 C         -30.7580    3.1093   23.5017 C.ar    1  UNL1        0.0005
     15 C         -31.9764    2.7557   22.8852 C.ar    1  UNL1        0.0174
     16 C         -32.9337    3.6739   22.5142 C.ar    1  UNL1        0.0015
     17 C         -33.8677    3.4473   21.5394 C.ar    1  UNL1        0.0001
     18 C         -33.9333    2.1395   20.9722 C.ar    1  UNL1        0.0015
     19 C         -33.0330    1.1595   21.3035 C.ar    1  UNL1        0.0191
     20 C         -31.9911    1.4743   22.1319 C.ar    1  UNL1        0.0813
     21 C         -30.0489    0.7731   23.4329 C.ar    1  UNL1        0.0962
     22 N         -31.1091    0.5124   22.5490 N.ar    1  UNL1       -0.2441
@<TRIPOS>BOND
     1     3     7    1
     2     7     8    1
     3     8     9    2
     4     8    10    1
     5    10    11    1
     6     9    12    1
     7    11    13    1
     8    13    14   ar
     9    14    15   ar
    10    20    22   ar
    11    22    21   ar
    12    21    13   ar
    13    15    16   ar
    14    16    17   ar
    15    17    18   ar
    16    18    19   ar
    17    19    20   ar
    18    20    15   ar
    19     1     2   ar
    20     2     5   ar
    21     5     6   ar
    22     6     4   ar
    23     4     3   ar
    24     3     1   ar
