@<TRIPOS>MOLECULE
No_3594-gen_results/8p0m/2024-11-26-14-13-15/
 35 39 0 0 0
SMALL
GASTEIGER

@<TRIPOS>ATOM
      1 C         -28.0162   -0.8135   28.8779 C.ar    1  UNL1        0.0056
      2 C         -27.0636   -0.1189   28.6079 C.ar    1  UNL1        0.0002
      3 C         -25.7647   -0.3897   29.0360 C.ar    1  UNL1        0.0001
      4 C         -24.5517    0.4058   28.7646 C.ar    1  UNL1        0.0023
      5 C         -23.2300    0.1178   29.2575 C.ar    1  UNL1        0.0001
      6 C         -23.0942   -1.1309   29.8730 C.ar    1  UNL1        0.0000
      7 C         -27.7980   -1.9341   29.8560 C.ar    1  UNL1        0.0678
      8 C         -26.5420   -2.3268   30.2580 C.ar    1  UNL1        0.0056
      9 C         -25.4514   -1.5516   29.9079 C.ar    1  UNL1        0.0002
     10 C         -24.1562   -1.9097   30.2809 C.ar    1  UNL1        0.0000
     11 C         -24.6450    1.6582   27.9464 C.ar    1  UNL1        0.0305
     12 C         -24.8958    2.7559   28.5615 C.ar    1  UNL1        0.1737
     13 C         -25.1728    3.9344   27.8439 C.ar    1  UNL1        0.1656
     14 C         -24.4838    1.5571   26.5889 C.ar    1  UNL1        0.0024
     15 C         -24.6321    2.6940   25.7850 C.ar    1  UNL1        0.0033
     16 C         -24.8902    3.9231   26.4317 C.ar    1  UNL1        0.0392
     17 F         -25.0723    2.9058   29.8639 F       1  UNL1       -0.2010
     18 C         -29.0112   -2.7522   30.2321 C.2     1  UNL1        0.3334
     19 O         -28.9654   -3.7778   30.0391 O.2     1  UNL1       -0.2541
     20 F         -29.9851   -2.1578   30.6482 F       1  UNL1       -0.1586
     21 O         -25.3327    5.1756   28.3853 O.3     1  UNL1       -0.4762
     22 C         -25.7742    6.2204   27.7493 C.3     1  UNL1        0.1735
     23 C         -25.7685    7.4270   28.5842 C.3     1  UNL1        0.0523
     24 C         -25.1490    7.3577   29.7432 C.3     1  UNL1        0.0072
     25 C         -24.5876    8.5018   30.3688 C.3     1  UNL1        0.0004
     26 C         -24.3573    9.5937   29.6419 C.3     1  UNL1        0.0000
     27 C         -24.9442    9.7156   28.3297 C.3     1  UNL1        0.0004
     28 C         -24.9019    8.4462   27.6746 C.3     1  UNL1        0.0072
     29 C         -27.1543    7.9050   28.6953 C.2     1  UNL1       -0.0412
     30 C         -28.0473    7.5209   27.8657 C.2     1  UNL1       -0.0304
     31 C         -27.1530    6.0330   27.1405 C.3     1  UNL1        0.0692
     32 C         -27.8892    7.7194   30.1444 C.3     1  UNL1        0.0474
     33 C         -28.1181    6.5229   30.5846 C.2     1  UNL1       -0.0263
     34 C         -28.5116    6.2958   31.8843 C.2     1  UNL1       -0.0300
     35 C         -28.6853    4.9939   32.3853 C.3     1  UNL1        0.0304
@<TRIPOS>BOND
     1     4    11    1
     2    12    17    1
     3     7    18    1
     4    18    19    2
     5    18    20    1
     6    13    21    1
     7    21    22    1
     8    22    23    1
     9    23    24    1
    10    24    25    1
    11    26    27    1
    12    23    28    1
    13    27    28    1
    14    23    29    1
    15    29    30    2
    16    22    31    1
    17    30    31    1
    18    29    32    1
    19    32    33    1
    20    33    34    2
    21    34    35    1
    22    25    26    1
    23     1     2   ar
    24     2     3   ar
    25     9     8   ar
    26     8     7   ar
    27     7     1   ar
    28    11    12   ar
    29    12    13   ar
    30    13    16   ar
    31    16    15   ar
    32    15    14   ar
    33    14    11   ar
    34     3     4   ar
    35     4     5   ar
    36     5     6   ar
    37     6    10   ar
    38    10     9   ar
    39     9     3   ar
