@<TRIPOS>MOLECULE
No_3595-gen_results/8p0m/2024-11-26-14-13-15/
 10 10 0 0 0
SMALL
GASTEIGER

@<TRIPOS>ATOM
      1 C         -28.0162   -0.8135   28.8779 C.ar    1  UNL1       -0.0001
      2 C         -28.4690   -0.7850   29.8287 C.ar    1  UNL1       -0.0000
      3 C         -26.5455   -0.8762   28.8500 C.ar    1  UNL1        0.0039
      4 C         -25.8041   -1.0324   30.0571 C.ar    1  UNL1        0.0714
      5 C         -27.9437   -0.9869   31.2075 C.ar    1  UNL1       -0.0001
      6 C         -26.5825   -1.0386   31.2231 C.ar    1  UNL1        0.0039
      7 C         -24.3810   -1.1082   30.0855 C.3     1  UNL1        0.4186
      8 F         -23.8505    0.0547   30.1804 F       1  UNL1       -0.1659
      9 F         -23.9340   -1.8034   31.1547 F       1  UNL1       -0.1659
     10 F         -23.9183   -1.6226   28.8972 F       1  UNL1       -0.1659
@<TRIPOS>BOND
     1     4     7    1
     2     7     8    1
     3     7     9    1
     4     7    10    1
     5     1     2   ar
     6     2     5   ar
     7     5     6   ar
     8     6     4   ar
     9     4     3   ar
    10     3     1   ar
