@<TRIPOS>MOLECULE
No_3598-gen_results/8p0m/2024-11-26-14-13-15/
 22 23 0 0 0
SMALL
GASTEIGER

@<TRIPOS>ATOM
      1 C         -28.0162   -0.8135   28.8779 C.ar    1  UNL1        0.0064
      2 C         -28.4690   -0.7850   29.8287 C.ar    1  UNL1        0.0756
      3 C         -26.5455   -0.8762   28.8500 C.ar    1  UNL1        0.0002
      4 C         -25.8041   -1.0324   30.0571 C.ar    1  UNL1        0.0005
      5 C         -26.5373   -1.0386   31.2171 C.ar    1  UNL1        0.0002
      6 C         -27.8929   -0.9601   31.1743 C.ar    1  UNL1        0.0064
      7 C         -25.7125   -0.8096   27.6257 C.ar    1  UNL1        0.0005
      8 C         -24.4074   -0.2077   27.7291 C.ar    1  UNL1        0.0067
      9 C         -23.6915   -0.4211   28.9467 C.ar    1  UNL1        0.0346
     10 C         -24.3644   -0.7377   30.0814 C.ar    1  UNL1        0.0067
     11 BR        -21.8576   -0.0641   28.8724 Br      1  UNL1       -0.0490
     12 C         -30.0749   -0.8414   29.9071 C.2     1  UNL1        0.3413
     13 O         -30.6777   -0.1434   29.1960 O.2     1  UNL1       -0.2449
     14 O         -30.6876   -1.5951   30.7818 O.3     1  UNL1       -0.4409
     15 C         -31.8556   -2.2005   30.5032 C.3     1  UNL1        0.2601
     16 C         -31.7762   -3.4389   30.1859 C.3     1  UNL1        0.3215
     17 O         -30.8995   -4.1934   30.5597 O.3     1  UNL1       -0.3214
     18 F         -32.9253   -4.0956   30.2735 F       1  UNL1       -0.1998
     19 C         -30.0056   -4.9522   29.7468 C.3     1  UNL1        0.1772
     20 C         -32.5616   -1.9877   31.9081 C.3     1  UNL1        0.1973
     21 O         -32.1155   -2.4582   32.8489 O.3     1  UNL1       -0.2191
     22 C         -34.0492   -2.3011   31.6204 C.3     1  UNL1        0.0396
@<TRIPOS>BOND
     1     9    11    1
     2     2    12    1
     3    12    13    2
     4    12    14    1
     5    14    15    1
     6    15    16    1
     7    16    17    1
     8    16    18    1
     9    17    19    1
    10    15    20    1
    11    20    21    1
    12    20    22    1
    13     4    10   ar
    14    10     9   ar
    15     9     8   ar
    16     8     7   ar
    17     7     3   ar
    18     1     2   ar
    19     2     6   ar
    20     6     5   ar
    21     5     4   ar
    22     4     3   ar
    23     3     1   ar
