@<TRIPOS>MOLECULE
No_3599-gen_results/8p0m/2024-11-26-14-13-15/
 35 37 0 0 0
SMALL
GASTEIGER

@<TRIPOS>ATOM
      1 C         -28.0162   -0.8135   28.8779 C.ar    1  UNL1        0.0064
      2 C         -28.4690   -0.7850   29.8287 C.ar    1  UNL1        0.0757
      3 C         -26.5042   -0.7777   28.8766 C.ar    1  UNL1        0.0002
      4 C         -25.6540   -0.6597   27.7191 C.ar    1  UNL1        0.0001
      5 C         -27.9180   -0.9374   31.1824 C.ar    1  UNL1        0.0064
      6 C         -26.5423   -0.9399   31.2606 C.ar    1  UNL1        0.0002
      7 C         -25.7832   -0.8935   30.1201 C.ar    1  UNL1        0.0002
      8 C         -24.3096   -0.3015   27.8531 C.ar    1  UNL1        0.0046
      9 C         -23.6669   -0.4595   29.0986 C.ar    1  UNL1        0.0550
     10 C         -24.3700   -0.6645   30.2027 C.ar    1  UNL1        0.0046
     11 C         -22.1946   -0.2290   29.1314 C.2     1  UNL1        0.2648
     12 N         -21.2882    0.5666   28.7716 N.am    1  UNL1       -0.1998
     13 O         -21.6347   -1.3705   29.7205 O.2     1  UNL1       -0.2684
     14 C         -30.0671   -0.8830   29.8767 C.2     1  UNL1        0.3426
     15 O         -30.5404   -0.3010   29.0150 O.3     1  UNL1       -0.4219
     16 O         -30.7271   -1.4670   30.8093 O.2     1  UNL1       -0.2448
     17 C         -21.6429    1.7365   27.9738 C.3     1  UNL1        0.1388
     18 C         -31.8809   -0.5584   28.4831 C.3     1  UNL1        0.3474
     19 C         -32.4439    0.6521   27.9529 C.2     1  UNL1        0.3791
     20 O         -33.4996    0.6238   27.5381 O.2     1  UNL1       -0.2441
     21 O         -31.9281    1.8006   28.3575 O.3     1  UNL1       -0.4152
     22 CL        -32.7480   -1.3082   29.5710 Cl      1  UNL1       -0.0567
     23 C         -31.9873    2.8867   27.6780 C.2     1  UNL1        0.2123
     24 C         -30.8465    3.4254   27.4161 C.2     1  UNL1        0.1773
     25 C         -29.6655    3.2516   28.1495 C.ar    1  UNL1        0.0267
     26 C         -29.7102    3.1816   29.5151 C.ar    1  UNL1        0.0022
     27 C         -28.5210    2.8918   30.2963 C.ar    1  UNL1        0.0047
     28 C         -27.3356    2.8433   29.6222 C.ar    1  UNL1        0.0563
     29 C         -27.1998    3.0373   28.2573 C.ar    1  UNL1        0.0004
     30 C         -28.3698    3.2061   27.5597 C.ar    1  UNL1       -0.0194
     31 C         -26.0821    2.6506   30.4720 C.2     1  UNL1        0.2842
     32 N         -24.8970    2.8338   29.8623 N.am    1  UNL1       -0.0837
     33 O         -26.2087    2.4184   31.6959 O.2     1  UNL1       -0.2667
     34 C         -28.2269    3.3097   26.0916 C.3     1  UNL1        0.0311
     35 F         -30.8876    4.8108   27.1580 F       1  UNL1       -0.2008
@<TRIPOS>BOND
     1     9    11    1
     2    11    12   am
     3    11    13    2
     4     2    14    1
     5    14    15    1
     6    14    16    2
     7    12    17    1
     8    15    18    1
     9    18    19    1
    10    19    20    2
    11    19    21    1
    12    18    22    1
    13    21    23    1
    14    23    24    2
    15    24    25    1
    16    28    31    1
    17    31    32   am
    18    31    33    2
    19    30    34    1
    20    24    35    1
    21    25    26   ar
    22    26    27   ar
    23    27    28   ar
    24    28    29   ar
    25    29    30   ar
    26    30    25   ar
    27     1     2   ar
    28     2     5   ar
    29     5     6   ar
    30     6     7   ar
    31     3     1   ar
    32     3     4   ar
    33     4     8   ar
    34     8     9   ar
    35     9    10   ar
    36    10     7   ar
    37     7     3   ar
