@<TRIPOS>MOLECULE
No_360-gen_results/8p0m/2024-11-26-14-13-15/
 13 14 0 0 0
SMALL
GASTEIGER

@<TRIPOS>ATOM
      1 C         -28.0162   -0.8135   28.8779 C.ar    1  UNL1        0.0066
      2 C         -28.4690   -0.7850   29.8287 C.ar    1  UNL1        0.0798
      3 C         -27.0871    0.2903   28.6377 C.ar    1  UNL1        0.0002
      4 C         -26.2516    0.4114   27.4223 C.ar    1  UNL1        0.0000
      5 C         -29.4309   -1.9307   30.2714 C.2     1  UNL1        0.3878
      6 C         -28.2721    0.2103   30.9866 C.ar    1  UNL1        0.0066
      7 C         -27.4384    1.2352   30.7769 C.ar    1  UNL1        0.0002
      8 C         -26.7524    1.2946   29.5985 C.ar    1  UNL1        0.0000
      9 C         -25.2022    1.0449   27.2092 C.ar    1  UNL1        0.0000
     10 C         -24.9157    2.0643   28.2550 C.ar    1  UNL1        0.0000
     11 C         -25.5831    2.1382   29.4206 C.ar    1  UNL1        0.0000
     12 O         -28.9765   -3.0371   30.5982 O.co2   1  UNL1       -0.2406
     13 O         -30.6568   -1.7464   30.3158 O.co2   1  UNL1       -0.2406
@<TRIPOS>BOND
     1     2     5    1
     2     5    12   ar
     3     5    13   ar
     4     3     4   ar
     5     4     9   ar
     6     9    10   ar
     7    10    11   ar
     8    11     8   ar
     9     1     2   ar
    10     2     6   ar
    11     6     7   ar
    12     7     8   ar
    13     8     3   ar
    14     3     1   ar
