@<TRIPOS>MOLECULE
No_3600-gen_results/8p0m/2024-11-26-14-13-15/
 26 28 0 0 0
SMALL
GASTEIGER

@<TRIPOS>ATOM
      1 C         -28.0162   -0.8135   28.8779 C.ar    1  UNL1        0.0067
      2 C         -27.0636   -0.1189   28.6079 C.ar    1  UNL1        0.0043
      3 C         -25.7923   -0.4302   29.0761 C.ar    1  UNL1       -0.0038
      4 C         -24.5456    0.3494   28.8225 C.ar    1  UNL1       -0.0225
      5 C         -24.6586    1.4196   27.8878 C.ar    1  UNL1       -0.0038
      6 C         -25.9471    1.6811   27.3792 C.ar    1  UNL1        0.0041
      7 C         -27.0439    0.9739   27.6871 C.ar    1  UNL1        0.0545
      8 C         -28.0241   -1.6475   30.1262 C.ar    1  UNL1        0.0798
      9 C         -26.7278   -2.0846   30.5807 C.ar    1  UNL1        0.0066
     10 C         -25.5915   -1.4064   30.1489 C.ar    1  UNL1       -0.0001
     11 C         -23.4486    2.1675   27.5241 C.ar    1  UNL1       -0.0003
     12 C         -23.6393    3.3320   27.0315 C.ar    1  UNL1       -0.0000
     13 C         -24.9859    3.7463   26.4358 C.ar    1  UNL1        0.0000
     14 C         -26.0678    2.9100   26.6344 C.ar    1  UNL1        0.0001
     15 C         -23.2543    0.0035   29.3721 C.3     1  UNL1        0.0224
     16 C         -22.3658   -0.7117   28.5761 C.3     1  UNL1        0.0047
     17 C         -28.3519    1.3180   27.0801 C.2     1  UNL1        0.2596
     18 N         -29.1404    2.1553   27.5822 N.am    1  UNL1       -0.2127
     19 C         -29.2134    2.7307   28.4960 C.1     1  UNL1        0.0201
     20 C         -29.5401    3.5883   29.2005 C.1     1  UNL1        0.0076
     21 C         -30.3577    2.2774   26.6145 C.3     1  UNL1        0.1306
     22 O         -28.5099    0.5698   26.0056 O.2     1  UNL1       -0.2690
     23 C         -22.5172    1.1678   30.0084 C.3     1  UNL1        0.0047
     24 C         -29.2021   -2.4378   30.4792 C.2     1  UNL1        0.3878
     25 O         -29.2219   -3.5654   30.7092 O.co2   1  UNL1       -0.2406
     26 O         -30.2036   -1.7076   30.9622 O.co2   1  UNL1       -0.2406
@<TRIPOS>BOND
     1     4    15    1
     2    15    16    1
     3     7    17    1
     4    17    18   am
     5    18    19    1
     6    19    20    3
     7    18    21    1
     8    17    22    2
     9    15    23    1
    10     8    24    1
    11    24    25   ar
    12    24    26   ar
    13     6    14   ar
    14    14    13   ar
    15    13    12   ar
    16    12    11   ar
    17    11     5   ar
    18     3     4   ar
    19     4     5   ar
    20     5     6   ar
    21     6     7   ar
    22     7     2   ar
    23     1     2   ar
    24     2     3   ar
    25     3    10   ar
    26    10     9   ar
    27     9     8   ar
    28     8     1   ar
