@<TRIPOS>MOLECULE
No_3601-gen_results/8p0m/2024-11-26-14-13-15/
 11 11 0 0 0
SMALL
GASTEIGER

@<TRIPOS>ATOM
      1 C         -28.0162   -0.8135   28.8779 C.ar    1  UNL1        0.0369
      2 C         -28.4690   -0.7850   29.8287 C.ar    1  UNL1        0.1387
      3 C         -26.5455   -0.8762   28.8500 C.ar    1  UNL1        0.0031
      4 C         -25.8041   -1.0324   30.0571 C.ar    1  UNL1       -0.0001
      5 C         -27.9437   -0.9869   31.2075 C.ar    1  UNL1        0.0369
      6 C         -26.5825   -1.0386   31.2231 C.ar    1  UNL1        0.0031
      7 O         -29.9267   -0.7257   29.8772 O.3     1  UNL1       -0.4714
      8 C         -30.7101   -1.5564   30.3394 C.3     1  UNL1        0.2525
      9 C         -24.3644   -1.0909   30.0836 C.2     1  UNL1       -0.0046
     10 C         -23.6005   -0.9316   29.0331 C.2     1  UNL1       -0.0258
     11 C         -22.1397   -0.7912   29.1339 C.3     1  UNL1        0.0307
@<TRIPOS>BOND
     1     2     7    1
     2     7     8    1
     3     4     9    1
     4     9    10    2
     5    10    11    1
     6     1     2   ar
     7     2     5   ar
     8     5     6   ar
     9     6     4   ar
    10     4     3   ar
    11     3     1   ar
