@<TRIPOS>MOLECULE
No_3602-gen_results/8p0m/2024-11-26-14-13-15/
 16 17 0 0 0
SMALL
GASTEIGER

@<TRIPOS>ATOM
      1 C         -28.0162   -0.8135   28.8779 C.ar    1  UNL1       -0.0035
      2 C         -28.4690   -0.7850   29.8287 C.ar    1  UNL1       -0.0003
      3 C         -28.1816    0.4277   28.1134 C.ar    1  UNL1       -0.0110
      4 C         -28.9841    1.4155   28.5154 C.ar    1  UNL1       -0.0035
      5 C         -29.3802    0.1384   30.4612 C.ar    1  UNL1       -0.0000
      6 C         -29.5415    1.2736   29.7242 C.ar    1  UNL1       -0.0003
      7 C         -27.4586    0.4934   26.7701 C.3     1  UNL1        0.1093
      8 C         -26.0264    0.3840   26.7617 C.ar    1  UNL1       -0.0113
      9 C         -25.2897    0.9319   25.7830 C.ar    1  UNL1       -0.0078
     10 C         -23.8971    0.9071   25.8407 C.ar    1  UNL1       -0.0221
     11 C         -23.2134    1.9523   25.2032 C.3     1  UNL1        0.0310
     12 C         -25.3008    0.1757   28.0175 C.ar    1  UNL1       -0.0035
     13 C         -23.9070    0.3530   28.1570 C.ar    1  UNL1       -0.0006
     14 C         -23.3657    0.8711   27.2085 C.ar    1  UNL1       -0.0043
     15 C         -28.2049    0.5297   25.6254 C.2     1  UNL1        0.2157
     16 O         -28.2425    1.6767   25.1452 O.2     1  UNL1       -0.2876
@<TRIPOS>BOND
     1     3     7    1
     2     7     8    1
     3    10    11    1
     4     7    15    1
     5    15    16    2
     6     8     9   ar
     7     9    10   ar
     8    10    14   ar
     9    14    13   ar
    10    13    12   ar
    11    12     8   ar
    12     1     2   ar
    13     2     5   ar
    14     5     6   ar
    15     6     4   ar
    16     4     3   ar
    17     3     1   ar
