@<TRIPOS>MOLECULE
No_3603-gen_results/8p0m/2024-11-26-14-13-15/
 26 27 0 0 0
SMALL
GASTEIGER

@<TRIPOS>ATOM
      1 C         -28.0162   -0.8135   28.8779 C.ar    1  UNL1        0.0012
      2 C         -28.4690   -0.7850   29.8287 C.ar    1  UNL1        0.0712
      3 C         -26.5455   -0.8762   28.8500 C.ar    1  UNL1       -0.0044
      4 C         -25.8041   -1.0324   30.0571 C.ar    1  UNL1       -0.0027
      5 C         -27.9437   -0.9869   31.2075 C.ar    1  UNL1        0.0038
      6 C         -26.5825   -1.0386   31.2231 C.ar    1  UNL1       -0.0003
      7 C         -30.0279   -0.6588   29.6965 C.3     1  UNL1        0.4186
      8 F         -30.7031   -1.6266   30.0953 F       1  UNL1       -0.1659
      9 F         -30.2994   -0.3735   28.4594 F       1  UNL1       -0.1659
     10 F         -30.4121    0.4430   30.3973 F       1  UNL1       -0.1659
     11 C         -25.6411   -0.8081   27.6436 C.3     1  UNL1        0.0959
     12 N         -25.9661    0.0312   26.6755 N.pl3   1  UNL1       -0.3044
     13 C         -25.2495    0.8509   26.1280 C.3     1  UNL1        0.0916
     14 C         -23.9920    1.2182   26.6514 C.3     1  UNL1        0.0327
     15 C         -23.5012    0.6236   27.7957 C.3     1  UNL1        0.1071
     16 C         -22.3317    0.9250   28.5800 C.2     1  UNL1        0.3644
     17 C         -24.2095   -1.0783   27.9194 C.3     1  UNL1        0.0356
     18 O         -21.5956    1.7548   28.1048 O.co2   1  UNL1       -0.2457
     19 O         -22.1515    0.2653   29.7027 O.co2   1  UNL1       -0.2457
     20 C         -27.3542    0.0277   26.3296 C.2     1  UNL1        0.0615
     21 C         -27.6370    0.1212   24.9055 C.2     1  UNL1        0.0158
     22 C         -28.9446    0.1365   24.5483 C.2     1  UNL1        0.0013
     23 C         -29.9317   -0.1057   25.4385 C.2     1  UNL1       -0.0003
     24 C         -31.2653   -0.1935   25.0159 C.2     1  UNL1       -0.0046
     25 C         -32.3187   -0.4930   25.9242 C.2     1  UNL1       -0.0258
     26 C         -32.1030   -0.6009   26.9820 C.3     1  UNL1        0.0307
@<TRIPOS>BOND
     1     2     7    1
     2     7     8    1
     3     7     9    1
     4     7    10    1
     5     3    11    1
     6    11    12    1
     7    12    13    1
     8    13    14    1
     9    15    16    1
    10    11    17    1
    11    15    17    1
    12    16    18   ar
    13    16    19   ar
    14    12    20    1
    15    20    21    2
    16    21    22    1
    17    22    23    2
    18    23    24    1
    19    24    25    2
    20    25    26    1
    21    15    14    1
    22     1     2   ar
    23     2     5   ar
    24     5     6   ar
    25     6     4   ar
    26     4     3   ar
    27     3     1   ar
