@<TRIPOS>MOLECULE
No_3604-gen_results/8p0m/2024-11-26-14-13-15/
 13 14 0 0 0
SMALL
GASTEIGER

@<TRIPOS>ATOM
      1 C         -28.0162   -0.8135   28.8779 C.ar    1  UNL1       -0.0039
      2 C         -27.0636   -0.1190   28.6079 C.ar    1  UNL1       -0.0178
      3 C         -26.9287    1.1713   29.0083 C.ar    1  UNL1       -0.0039
      4 C         -27.9560    1.7411   29.7840 C.ar    1  UNL1       -0.0003
      5 C         -29.0569   -0.3271   29.7466 C.ar    1  UNL1       -0.0003
      6 C         -28.9828    0.9722   30.1516 C.ar    1  UNL1       -0.0000
      7 C         -25.8907   -0.6263   27.7857 C.3     1  UNL1        0.0526
      8 C         -24.5686   -0.1994   28.1996 C.ar    1  UNL1       -0.0178
      9 C         -23.6406   -0.6993   28.6892 C.ar    1  UNL1       -0.0039
     10 C         -22.3651   -0.1027   28.9795 C.ar    1  UNL1       -0.0003
     11 C         -22.2710    1.2611   28.5287 C.ar    1  UNL1       -0.0000
     12 C         -24.2756    1.2848   27.8382 C.ar    1  UNL1       -0.0039
     13 C         -23.1692    1.9044   28.0110 C.ar    1  UNL1       -0.0003
@<TRIPOS>BOND
     1     2     7    1
     2     7     8    1
     3     1     2   ar
     4     2     3   ar
     5     3     4   ar
     6     4     6   ar
     7     6     5   ar
     8     5     1   ar
     9     8     9   ar
    10     9    10   ar
    11    10    11   ar
    12    11    13   ar
    13    13    12   ar
    14    12     8   ar
