@<TRIPOS>MOLECULE
No_3605-gen_results/8p0m/2024-11-26-14-13-15/
 12 13 0 0 0
SMALL
GASTEIGER

@<TRIPOS>ATOM
      1 C         -28.0162   -0.8135   28.8779 C.ar    1  UNL1        0.0000
      2 C         -28.4690   -0.7850   29.8287 C.ar    1  UNL1        0.0000
      3 C         -26.5042   -0.7777   28.8766 C.ar    1  UNL1        0.0000
      4 C         -25.7623   -0.0022   27.9705 C.ar    1  UNL1        0.0000
      5 C         -26.0931    0.6131   27.0948 C.ar    1  UNL1        0.0000
      6 C         -25.2924    1.2851   26.1396 C.ar    1  UNL1        0.0000
      7 C         -23.9069    1.3541   26.4095 C.ar    1  UNL1        0.0000
      8 C         -23.3994    0.7728   27.5633 C.ar    1  UNL1        0.0000
      9 C         -24.2633    0.1055   28.3863 C.ar    1  UNL1        0.0000
     10 C         -28.0662   -1.5495   31.0618 C.ar    1  UNL1        0.0000
     11 C         -26.6756   -1.7894   31.0475 C.ar    1  UNL1        0.0000
     12 C         -25.8986   -1.3946   30.0603 C.ar    1  UNL1        0.0000
@<TRIPOS>BOND
     1     3     4    1
     2     1     2   ar
     3     2    10   ar
     4    10    11   ar
     5    11    12   ar
     6    12     3   ar
     7     3     1   ar
     8     4     5   ar
     9     5     6   ar
    10     6     7   ar
    11     7     8   ar
    12     8     9   ar
    13     9     4   ar
