@<TRIPOS>MOLECULE
No_3607-gen_results/8p0m/2024-11-26-14-13-15/
 17 19 0 0 0
SMALL
GASTEIGER

@<TRIPOS>ATOM
      1 C         -28.0162   -0.8135   28.8779 C.ar    1  UNL1        0.0002
      2 C         -27.0636   -0.1189   28.6079 C.ar    1  UNL1        0.0064
      3 C         -25.7923   -0.4302   29.0761 C.ar    1  UNL1        0.0002
      4 C         -25.5756   -1.5654   29.9363 C.ar    1  UNL1        0.0000
      5 C         -26.7354   -2.3004   30.2173 C.ar    1  UNL1        0.0000
      6 C         -27.9184   -1.9537   29.7629 C.ar    1  UNL1        0.0000
      7 C         -27.1057    1.1023   27.7593 C.ar    1  UNL1        0.0798
      8 C         -26.1219    1.4820   27.0232 C.ar    1  UNL1        0.0066
      9 C         -24.7142    1.1299   27.4889 C.ar    1  UNL1        0.0002
     10 C         -24.5718    0.0966   28.4066 C.ar    1  UNL1        0.0000
     11 C         -23.5495    1.7790   26.9027 C.ar    1  UNL1        0.0000
     12 C         -22.3889    1.9020   27.6778 C.ar    1  UNL1        0.0000
     13 C         -22.1526    0.9106   28.6954 C.ar    1  UNL1        0.0000
     14 C         -23.2851    0.0463   29.1460 C.ar    1  UNL1        0.0000
     15 C         -28.4817    1.6265   27.4886 C.2     1  UNL1        0.3878
     16 O         -28.8675    2.4121   28.1979 O.co2   1  UNL1       -0.2406
     17 O         -29.2248    0.8739   26.6453 O.co2   1  UNL1       -0.2406
@<TRIPOS>BOND
     1     7    15    1
     2    15    16   ar
     3    15    17   ar
     4     1     2   ar
     5     3     4   ar
     6     4     5   ar
     7     5     6   ar
     8     6     1   ar
     9     2     3   ar
    10     3    10   ar
    11     9     8   ar
    12     8     7   ar
    13     7     2   ar
    14     9    10   ar
    15    10    14   ar
    16    14    13   ar
    17    13    12   ar
    18    12    11   ar
    19    11     9   ar
