@<TRIPOS>MOLECULE
No_3608-gen_results/8p0m/2024-11-26-14-13-15/
 35 38 0 0 0
SMALL
GASTEIGER

@<TRIPOS>ATOM
      1 C         -28.0162   -0.8135   28.8779 C.2     1  UNL1        0.0777
      2 C         -27.0636   -0.1189   28.6079 C.2     1  UNL1       -0.0372
      3 C         -26.8756    1.1325   28.9134 C.3     1  UNL1        0.0319
      4 C         -25.6883    1.9515   28.5672 C.3     1  UNL1        0.0914
      5 C         -24.6394    1.2834   27.8753 C.3     1  UNL1        0.1126
      6 C         -24.8068   -0.0513   27.6040 C.3     1  UNL1        0.0161
      7 C         -25.9020   -0.7670   27.9511 C.3     1  UNL1        0.0228
      8 C         -28.0611   -1.4288   30.2827 C.2     1  UNL1        0.3873
      9 O         -28.9552   -2.3242   30.5041 O.co2   1  UNL1       -0.2406
     10 O         -27.1983   -1.1564   31.1209 O.co2   1  UNL1       -0.2406
     11 C         -23.4149    1.9682   27.5050 C.2     1  UNL1        0.3648
     12 O         -23.3023    2.7190   26.6582 O.co2   1  UNL1       -0.2457
     13 O         -22.2587    1.5474   28.1747 O.co2   1  UNL1       -0.2457
     14 C         -25.5257    3.3740   28.9275 C.2     1  UNL1        0.2260
     15 O         -24.9205    3.6210   29.9181 O.2     1  UNL1       -0.2749
     16 N         -26.0365    4.2683   28.1077 N.am    1  UNL1       -0.2788
     17 C         -25.9316    5.7302   28.3973 C.3     1  UNL1        0.0981
     18 C         -26.7218    4.0018   26.8445 C.3     1  UNL1        0.0980
     19 C         -27.0640    6.2563   28.9799 C.3     1  UNL1        0.0475
     20 C         -28.0685    5.7229   29.3096 C.ar    1  UNL1       -0.0247
     21 C         -29.0133    6.0786   29.9127 C.ar    1  UNL1       -0.0045
     22 C         -30.2072    5.2833   30.3310 C.ar    1  UNL1       -0.0007
     23 C         -30.1450    3.9566   29.8818 C.ar    1  UNL1       -0.0046
     24 C         -29.1049    3.4649   29.1791 C.ar    1  UNL1       -0.0261
     25 C         -29.1061    2.1366   28.7782 C.3     1  UNL1        0.0304
     26 C         -28.1086    4.2897   28.9266 C.ar    1  UNL1       -0.0284
     27 C         -27.5002    3.9686   27.5968 C.3     1  UNL1        0.0456
     28 C         -28.3711    2.8635   27.2057 C.3     1  UNL1        0.0283
     29 C         -29.5418    3.2002   26.3520 C.2     1  UNL1       -0.0435
     30 C         -30.2530    4.0222   26.5215 C.2     1  UNL1       -0.0085
     31 C         -31.2910    4.4469   25.6184 C.2     1  UNL1       -0.0006
     32 C         -32.2523    5.4470   25.8616 C.2     1  UNL1       -0.0000
     33 C         -32.1130    6.2044   27.0588 C.2     1  UNL1       -0.0000
     34 C         -33.1283    7.1725   27.3525 C.2     1  UNL1       -0.0000
     35 C         -29.9213    2.1455   25.2985 C.3     1  UNL1        0.0264
@<TRIPOS>BOND
     1     1     2    2
     2     2     3    1
     3     3     4    1
     4     4     5    1
     5     5     6    1
     6     2     7    1
     7     6     7    1
     8     1     8    1
     9     8     9   ar
    10     8    10   ar
    11     5    11    1
    12    11    12   ar
    13    11    13   ar
    14     4    14    1
    15    14    15    2
    16    14    16   am
    17    16    17    1
    18    16    18    1
    19    17    19    1
    20    24    25    1
    21    18    27    1
    22    26    27    1
    23    25    28    1
    24    27    28    1
    25    28    29    1
    26    29    30    2
    27    30    31    1
    28    31    32    2
    29    32    33    1
    30    33    34    2
    31    29    35    1
    32    19    20    1
    33    20    21   ar
    34    21    22   ar
    35    22    23   ar
    36    23    24   ar
    37    24    26   ar
    38    26    20   ar
