@<TRIPOS>MOLECULE
No_361-gen_results/8p0m/2024-11-26-14-13-15/
 20 21 0 0 0
SMALL
GASTEIGER

@<TRIPOS>ATOM
      1 C         -28.0162   -0.8135   28.8779 C.ar    1  UNL1        0.0369
      2 C         -27.0636   -0.1190   28.6079 C.ar    1  UNL1        0.0031
      3 C         -25.7647   -0.3897   29.0360 C.ar    1  UNL1        0.0004
      4 C         -25.5296   -1.5303   29.9014 C.ar    1  UNL1        0.0030
      5 C         -26.6888   -2.2893   30.1810 C.ar    1  UNL1        0.0369
      6 C         -27.8727   -1.9508   29.7373 C.ar    1  UNL1        0.1392
      7 O         -28.9304   -2.7298   30.1154 O.3     1  UNL1       -0.4675
      8 C         -24.5394    0.4211   28.7421 C.ar    1  UNL1        0.0066
      9 C         -23.3459    0.1143   29.1690 C.ar    1  UNL1        0.0798
     10 C         -23.1118   -1.0146   29.9166 C.ar    1  UNL1        0.0066
     11 C         -24.2498   -1.8802   30.3244 C.ar    1  UNL1        0.0003
     12 C         -22.1596    0.8897   28.7401 C.2     1  UNL1        0.3878
     13 O         -21.0391    0.7521   29.0918 O.co2   1  UNL1       -0.2406
     14 O         -22.3734    1.9956   27.9400 O.co2   1  UNL1       -0.2406
     15 C         -30.0638   -2.2151   30.5926 C.3     1  UNL1        0.2689
     16 C         -30.4616   -2.9057   31.7413 C.2     1  UNL1        0.1944
     17 C         -29.6207   -3.6847   32.4127 C.3     1  UNL1        0.0685
     18 O         -31.7512   -2.7681   32.1619 O.2     1  UNL1       -0.2921
     19 C         -30.1258   -4.9936   32.6682 C.3     1  UNL1        0.0079
     20 C         -31.2420   -5.3367   31.9801 C.3     1  UNL1        0.0005
@<TRIPOS>BOND
     1     6     7    1
     2     9    12    1
     3    12    13   ar
     4    12    14   ar
     5     7    15    1
     6    15    16    1
     7    16    17    1
     8    16    18    2
     9    17    19    1
    10    19    20    1
    11     1     2   ar
    12     2     3   ar
    13     4     5   ar
    14     5     6   ar
    15     6     1   ar
    16     3     4   ar
    17     4    11   ar
    18    11    10   ar
    19    10     9   ar
    20     9     8   ar
    21     8     3   ar
