@<TRIPOS>MOLECULE
No_3610-gen_results/8p0m/2024-11-26-14-13-15/
 28 30 0 0 0
SMALL
GASTEIGER

@<TRIPOS>ATOM
      1 C         -28.0162   -0.8135   28.8779 C.ar    1  UNL1        0.0084
      2 C         -28.4690   -0.7850   29.8287 C.ar    1  UNL1        0.0542
      3 C         -27.0871    0.2903   28.6377 C.ar    1  UNL1        0.0716
      4 C         -26.8317    1.2487   29.5869 C.ar    1  UNL1        0.0039
      5 C         -28.3914    0.0801   31.0065 C.ar    1  UNL1        0.0045
      6 C         -27.4940    1.1521   30.7841 C.ar    1  UNL1        0.0001
      7 C         -26.3172    0.3994   27.3653 C.3     1  UNL1        0.4186
      8 F         -26.9484    0.3460   26.3604 F       1  UNL1       -0.1659
      9 F         -25.6329    1.6514   27.3249 F       1  UNL1       -0.1659
     10 F         -25.2326   -0.4943   27.4191 F       1  UNL1       -0.1659
     11 C         -29.3812   -2.0977   30.0668 C.2     1  UNL1        0.2565
     12 N         -30.5420   -1.8895   30.0299 N.am    1  UNL1       -0.2339
     13 O         -28.8599   -3.2068   30.4294 O.2     1  UNL1       -0.2692
     14 C         -31.5238   -2.9573   30.1988 C.ar    1  UNL1        0.0584
     15 C         -31.2183   -0.6097   29.6287 C.ar    1  UNL1        0.0586
     16 C         -31.9984   -0.0526   30.6665 C.ar    1  UNL1        0.0152
     17 C         -32.5009    1.1531   30.4086 C.ar    1  UNL1        0.0015
     18 C         -32.3612    1.8111   29.1711 C.ar    1  UNL1        0.0067
     19 C         -30.9874   -0.0160   28.4629 C.ar    1  UNL1        0.0218
     20 C         -31.5574    1.2390   28.2103 C.ar    1  UNL1        0.0810
     21 C         -31.3059    1.9407   26.9297 C.2     1  UNL1        0.3878
     22 O         -31.0923    1.5002   25.9542 O.co2   1  UNL1       -0.2406
     23 O         -31.1949    3.3034   27.0682 O.co2   1  UNL1       -0.2406
     24 C         -31.7275   -3.7516   29.1372 C.ar    1  UNL1        0.0152
     25 C         -32.3040   -4.8693   29.2732 C.ar    1  UNL1        0.0013
     26 C         -32.8035   -5.2982   30.5071 C.ar    1  UNL1        0.0001
     27 C         -32.6460   -4.4432   31.5962 C.ar    1  UNL1        0.0013
     28 C         -31.9079   -3.2997   31.4961 C.ar    1  UNL1        0.0152
@<TRIPOS>BOND
     1     3     7    1
     2     7     8    1
     3     7     9    1
     4     7    10    1
     5     2    11    1
     6    11    12   am
     7    11    13    2
     8    12    14    1
     9    12    15    1
    10    20    21    1
    11    21    22   ar
    12    21    23   ar
    13    15    16   ar
    14    16    17   ar
    15    17    18   ar
    16    18    20   ar
    17    20    19   ar
    18    19    15   ar
    19    14    24   ar
    20    24    25   ar
    21    25    26   ar
    22    26    27   ar
    23    27    28   ar
    24    28    14   ar
    25     1     2   ar
    26     2     5   ar
    27     5     6   ar
    28     6     4   ar
    29     4     3   ar
    30     3     1   ar
