@<TRIPOS>MOLECULE
No_3611-gen_results/8p0m/2024-11-26-14-13-15/
 17 18 0 0 0
SMALL
GASTEIGER

@<TRIPOS>ATOM
      1 C         -28.0162   -0.8135   28.8779 C.ar    1  UNL1        0.0031
      2 C         -27.0636   -0.1189   28.6079 C.ar    1  UNL1        0.0375
      3 C         -27.0010    0.6913   27.4910 C.ar    1  UNL1        0.1452
      4 C         -28.1373    0.7363   26.6350 C.ar    1  UNL1        0.0413
      5 C         -29.2360    0.0765   27.0690 C.ar    1  UNL1        0.0744
      6 C         -29.2177   -0.6429   28.1747 C.ar    1  UNL1        0.0041
      7 C         -30.4152    0.1590   26.1819 C.3     1  UNL1        0.4187
      8 F         -30.2345   -0.0473   25.0293 F       1  UNL1       -0.1659
      9 F         -31.2854   -0.8303   26.6461 F       1  UNL1       -0.1659
     10 F         -31.0272    1.3453   26.3144 F       1  UNL1       -0.1659
     11 O         -25.8331    1.3648   27.1078 O.3     1  UNL1       -0.4535
     12 C         -24.7965    1.1992   27.9549 C.ar    1  UNL1        0.1453
     13 C         -24.0281    2.3127   28.2920 C.ar    1  UNL1        0.0375
     14 C         -22.7417    2.1488   28.9628 C.ar    1  UNL1        0.0031
     15 C         -22.2965    0.7694   29.2735 C.ar    1  UNL1        0.0002
     16 C         -23.0942   -0.3304   28.9211 C.ar    1  UNL1        0.0031
     17 C         -24.2374   -0.1112   28.1676 C.ar    1  UNL1        0.0375
@<TRIPOS>BOND
     1     5     7    1
     2     7     8    1
     3     7     9    1
     4     7    10    1
     5     3    11    1
     6    11    12    1
     7    12    13   ar
     8    13    14   ar
     9    14    15   ar
    10    15    16   ar
    11    16    17   ar
    12    17    12   ar
    13     1     2   ar
    14     2     3   ar
    15     3     4   ar
    16     4     5   ar
    17     5     6   ar
    18     6     1   ar
