@<TRIPOS>MOLECULE
No_3612-gen_results/8p0m/2024-11-26-14-13-15/
 10 10 0 0 0
SMALL
GASTEIGER

@<TRIPOS>ATOM
      1 C         -28.0162   -0.8135   28.8779 C.ar    1  UNL1        0.0297
      2 C         -27.0636   -0.1189   28.6079 C.ar    1  UNL1        0.0038
      3 C         -25.7923   -0.4302   29.0761 C.ar    1  UNL1        0.0188
      4 C         -25.5756   -1.5654   29.9363 C.ar    1  UNL1        0.0038
      5 C         -26.7354   -2.3004   30.2173 C.ar    1  UNL1        0.0297
      6 C         -27.9184   -1.9537   29.7629 C.ar    1  UNL1        0.1401
      7 F         -28.9649   -2.6957   30.0722 F       1  UNL1       -0.2042
      8 C         -24.6808    0.5315   28.7646 C.2     1  UNL1        0.0932
      9 N         -23.5226    0.2657   29.2393 N.2     1  UNL1       -0.2668
     10 C         -22.4496    1.0540   28.8063 C.3     1  UNL1        0.1517
@<TRIPOS>BOND
     1     6     7    1
     2     3     8    1
     3     8     9    2
     4     9    10    1
     5     1     2   ar
     6     2     3   ar
     7     3     4   ar
     8     4     5   ar
     9     5     6   ar
    10     6     1   ar
