@<TRIPOS>MOLECULE
No_3614-gen_results/8p0m/2024-11-26-14-13-15/
 15 15 0 0 0
SMALL
GASTEIGER

@<TRIPOS>ATOM
      1 C         -28.0162   -0.8135   28.8779 C.ar    1  UNL1        0.0372
      2 C         -28.4690   -0.7850   29.8287 C.ar    1  UNL1        0.0031
      3 C         -26.5455   -0.8762   28.8500 C.ar    1  UNL1        0.1414
      4 C         -25.8041   -1.0324   30.0571 C.ar    1  UNL1        0.0125
      5 C         -24.3697   -1.0998   30.0718 C.3     1  UNL1        0.0351
      6 C         -27.9902   -1.0051   31.2092 C.ar    1  UNL1       -0.0001
      7 C         -26.5616   -1.1368   31.2600 C.ar    1  UNL1       -0.0013
      8 C         -23.7274    0.1713   30.0259 C.3     1  UNL1        0.0713
      9 C         -24.0505    1.2537   30.5567 C.3     1  UNL1        0.3187
     10 F         -24.7486    1.2743   31.5224 F       1  UNL1       -0.1984
     11 F         -23.8016    2.3559   30.0234 F       1  UNL1       -0.1984
     12 O         -25.8193   -0.8034   27.7237 O.3     1  UNL1       -0.4507
     13 C         -25.7053    0.4432   27.0571 C.2     1  UNL1        0.1796
     14 C         -22.4318    0.0818   29.1508 C.3     1  UNL1        0.0062
     15 C         -24.9658    0.4975   25.9421 C.2     1  UNL1        0.0439
@<TRIPOS>BOND
     1     4     5    1
     2     5     8    1
     3     8     9    1
     4     9    10    1
     5     9    11    1
     6     3    12    1
     7    12    13    1
     8     8    14    1
     9    13    15    2
    10     1     2   ar
    11     2     6   ar
    12     6     7   ar
    13     7     4   ar
    14     4     3   ar
    15     3     1   ar
