@<TRIPOS>MOLECULE
No_3615-gen_results/8p0m/2024-11-26-14-13-15/
 26 28 0 0 0
SMALL
GASTEIGER

@<TRIPOS>ATOM
      1 O         -28.1229   -1.3353   28.4874 O.2     1  UNL1       -0.2745
      2 C         -27.4806   -0.4044   28.7094 C.2     1  UNL1        0.2296
      3 C         -26.3804   -0.0867   27.9394 C.3     1  UNL1        0.1032
      4 N         -27.8993    0.6459   29.6321 N.am    1  UNL1       -0.2793
      5 C         -25.1243   -0.5319   28.3714 C.ar    1  UNL1       -0.0135
      6 C         -24.8082   -1.5509   29.1873 C.ar    1  UNL1       -0.0038
      7 C         -23.5414   -2.0104   29.4946 C.ar    1  UNL1       -0.0003
      8 C         -22.5562   -1.1672   29.0444 C.ar    1  UNL1       -0.0000
      9 C         -22.6688   -0.0081   28.3035 C.ar    1  UNL1       -0.0003
     10 C         -23.9990    0.3055   27.9511 C.ar    1  UNL1       -0.0038
     11 C         -27.2738    1.9078   29.8365 C.3     1  UNL1        0.0934
     12 C         -27.5026    2.7375   30.4134 C.3     1  UNL1        0.0216
     13 C         -28.6020    2.7523   31.3465 C.3     1  UNL1        0.0035
     14 C         -29.3352    1.5285   31.3075 C.3     1  UNL1        0.0216
     15 C         -28.9708    0.4954   30.5010 C.3     1  UNL1        0.0934
     16 C         -26.5635    0.4875   26.6751 C.3     1  UNL1        0.0398
     17 C         -27.1724    0.4190   25.8359 C.ar    1  UNL1       -0.0214
     18 C         -28.4179   -0.4321   25.8985 C.ar    1  UNL1       -0.0004
     19 C         -29.3301   -0.3952   24.7413 C.ar    1  UNL1        0.0711
     20 C         -28.8752    0.1504   23.6331 C.ar    1  UNL1        0.0038
     21 C         -27.7575    0.9135   23.5086 C.ar    1  UNL1       -0.0004
     22 C         -26.9010    1.0745   24.6009 C.ar    1  UNL1       -0.0043
     23 C         -30.5185   -1.1753   24.7781 C.3     1  UNL1        0.4186
     24 F         -31.3467   -0.5932   25.6978 F       1  UNL1       -0.1659
     25 F         -30.3816   -2.4364   25.1215 F       1  UNL1       -0.1659
     26 F         -31.1953   -1.0674   23.6154 F       1  UNL1       -0.1659
@<TRIPOS>BOND
     1     1     2    2
     2     2     3    1
     3     2     4   am
     4     4    11    1
     5    12    13    1
     6     4    15    1
     7    14    15    1
     8     3    16    1
     9    19    23    1
    10    23    24    1
    11    23    25    1
    12    23    26    1
    13    16    17    1
    14     3     5    1
    15    11    12    1
    16    13    14    1
    17    17    18   ar
    18    18    19   ar
    19    19    20   ar
    20    20    21   ar
    21    21    22   ar
    22    22    17   ar
    23     5     6   ar
    24     6     7   ar
    25     7     8   ar
    26     8     9   ar
    27     9    10   ar
    28    10     5   ar
