@<TRIPOS>MOLECULE
No_3616-gen_results/8p0m/2024-11-26-14-13-15/
 15 16 0 0 0
SMALL
GASTEIGER

@<TRIPOS>ATOM
      1 O         -28.1229   -1.3353   28.4874 O.2     1  UNL1       -0.2745
      2 C         -27.4806   -0.4044   28.7094 C.2     1  UNL1        0.2317
      3 C         -26.3804   -0.0867   27.9394 C.3     1  UNL1        0.0905
      4 N         -27.4232    0.1749   30.0549 N.am    1  UNL1       -0.2281
      5 C         -25.4065    0.7421   28.2860 C.3     1  UNL1        0.0405
      6 C         -25.5698    1.4353   29.5751 C.3     1  UNL1        0.0905
      7 C         -26.5341    1.0730   30.4232 C.2     1  UNL1        0.2317
      8 C         -24.3030    1.2271   27.4407 C.ar    1  UNL1       -0.0215
      9 C         -23.0274    1.3759   27.9908 C.ar    1  UNL1       -0.0043
     10 C         -21.9680    1.8559   27.1231 C.ar    1  UNL1       -0.0003
     11 C         -24.4515    1.5481   26.1064 C.ar    1  UNL1       -0.0043
     12 C         -23.3930    2.0341   25.3439 C.ar    1  UNL1       -0.0003
     13 C         -22.1878    2.1807   25.9036 C.ar    1  UNL1       -0.0000
     14 C         -28.5649   -0.2682   30.8914 C.3     1  UNL1        0.1228
     15 O         -26.6491    1.6364   31.6080 O.2     1  UNL1       -0.2745
@<TRIPOS>BOND
     1     1     2    2
     2     2     3    1
     3     2     4   am
     4     5     6    1
     5     4     7   am
     6     6     7    1
     7     5     8    1
     8     4    14    1
     9     7    15    2
    10     3     5    1
    11     8     9   ar
    12     9    10   ar
    13    10    13   ar
    14    13    12   ar
    15    12    11   ar
    16    11     8   ar
