@<TRIPOS>MOLECULE
No_3617-gen_results/8p0m/2024-11-26-14-13-15/
 22 24 0 0 0
SMALL
GASTEIGER

@<TRIPOS>ATOM
      1 C         -28.0162   -0.8135   28.8779 C.ar    1  UNL1        0.0104
      2 C         -28.4690   -0.7850   29.8287 C.ar    1  UNL1        0.0798
      3 C         -27.1356    0.2359   28.5352 C.ar    1  UNL1        0.0717
      4 C         -26.8745    1.2825   29.3982 C.ar    1  UNL1        0.0050
      5 C         -28.3613    0.1987   30.9244 C.ar    1  UNL1        0.0081
      6 C         -27.5277    1.2234   30.6356 C.ar    1  UNL1        0.0178
      7 C         -26.3879    0.2914   27.2334 C.3     1  UNL1        0.4186
      8 F         -25.7788   -0.5228   27.0339 F       1  UNL1       -0.1659
      9 F         -25.6033    1.4596   27.1041 F       1  UNL1       -0.1659
     10 F         -27.3759    0.5235   26.2013 F       1  UNL1       -0.1659
     11 C         -29.3958   -2.0216   30.3203 C.2     1  UNL1        0.3877
     12 O         -30.4676   -2.0325   30.0565 O.co2   1  UNL1       -0.2406
     13 O         -28.8026   -3.0273   31.0046 O.co2   1  UNL1       -0.2406
     14 C         -27.2664    2.3347   31.6023 C.ar    1  UNL1        0.0810
     15 N         -27.2947    2.4342   32.6419 N.ar    1  UNL1       -0.2438
     16 C         -26.9483    3.6673   30.8682 C.ar    1  UNL1        0.0137
     17 C         -26.8901    3.9579   29.5332 C.ar    1  UNL1       -0.0204
     18 C         -26.6358    4.7148   31.8623 C.ar    1  UNL1        0.0028
     19 C         -26.6204    4.6008   33.1720 C.ar    1  UNL1        0.0207
     20 C         -26.9567    3.2993   33.6520 C.ar    1  UNL1        0.0988
     21 C         -27.1173    2.8297   28.6012 C.ar    1  UNL1       -0.0042
     22 C         -25.5751    4.6579   29.2282 C.3     1  UNL1        0.0311
@<TRIPOS>BOND
     1     3     7    1
     2     7     8    1
     3     7     9    1
     4     7    10    1
     5     2    11    1
     6    11    12   ar
     7    11    13   ar
     8    17    22    1
     9    14    15   ar
    10    15    20   ar
    11    20    19   ar
    12    19    18   ar
    13    18    16   ar
    14     1     2   ar
    15     2     5   ar
    16     5     6   ar
    17     4     3   ar
    18     3     1   ar
    19     4     6   ar
    20     6    14   ar
    21    14    16   ar
    22    16    17   ar
    23    17    21   ar
    24    21     4   ar
