@<TRIPOS>MOLECULE
No_3618-gen_results/8p0m/2024-11-26-14-13-15/
 33 37 0 0 0
SMALL
GASTEIGER

@<TRIPOS>ATOM
      1 C         -28.0162   -0.8135   28.8779 C.3     1  UNL1        0.0263
      2 C         -27.0636   -0.1190   28.6079 C.3     1  UNL1        0.0081
      3 C         -26.8756    1.1325   28.9134 C.3     1  UNL1        0.0190
      4 C         -25.6883    1.9515   28.5672 C.3     1  UNL1        0.0125
      5 C         -24.6394    1.2834   27.8753 C.3     1  UNL1        0.0955
      6 C         -24.8068   -0.0513   27.6040 C.3     1  UNL1        0.0085
      7 C         -25.9019   -0.7670   27.9511 C.3     1  UNL1        0.0009
      8 C         -28.6455   -0.5282   30.2428 C.ar    1  UNL1       -0.0261
      9 C         -29.5544   -1.0303   30.6491 C.ar    1  UNL1       -0.0046
     10 C         -23.4415    1.9721   27.4600 C.3     1  UNL1        0.3975
     11 F         -23.4187    2.5143   26.4677 F       1  UNL1       -0.1701
     12 F         -22.9816    2.8394   28.4805 F       1  UNL1       -0.1701
     13 F         -22.3363    1.0837   27.4904 F       1  UNL1       -0.1701
     14 C         -30.0654   -0.9070   31.9434 C.ar    1  UNL1       -0.0003
     15 C         -29.4739    0.0739   32.7933 C.ar    1  UNL1       -0.0003
     16 C         -28.3494    0.7059   32.3396 C.ar    1  UNL1       -0.0046
     17 C         -27.8920    0.4072   31.1159 C.ar    1  UNL1       -0.0265
     18 C         -26.9502    1.3651   30.6516 C.3     1  UNL1        0.0217
     19 C         -28.0332    2.0751   28.3045 C.2     1  UNL1       -0.0435
     20 C         -27.7979    3.3623   28.2309 C.2     1  UNL1       -0.0056
     21 C         -28.7312    4.1657   27.4487 C.3     1  UNL1        0.1373
     22 C         -28.3083    1.6408   26.8493 C.3     1  UNL1        0.0630
     23 C         -29.4521    2.2619   26.2778 C.3     1  UNL1        0.2220
     24 O         -30.1420    3.1117   26.8060 O.3     1  UNL1       -0.3429
     25 C         -30.6007    1.1851   25.9851 C.2     1  UNL1        0.3917
     26 O         -31.4448    1.6470   25.3044 O.co2   1  UNL1       -0.2429
     27 O         -30.5607   -0.0006   26.4229 O.co2   1  UNL1       -0.2429
     28 C         -28.9970    5.4930   27.1748 C.3     1  UNL1        0.0370
     29 C         -27.0597    2.7520   31.1164 C.3     1  UNL1        0.0043
     30 C         -25.4976    0.8481   31.1704 C.3     1  UNL1        0.0043
     31 C         -24.7725    1.7647   31.9083 C.3     1  UNL1        0.0003
     32 C         -26.2168    3.5984   31.8573 C.3     1  UNL1        0.0003
     33 C         -25.0321    3.0513   32.2870 C.3     1  UNL1        0.0000
@<TRIPOS>BOND
     1     2     3    1
     2     3     4    1
     3     4     5    1
     4     5     6    1
     5     2     7    1
     6     6     7    1
     7     1     8    1
     8     5    10    1
     9    10    11    1
    10    10    12    1
    11    10    13    1
    12     3    18    1
    13    17    18    1
    14     3    19    1
    15    19    20    2
    16    20    21    1
    17    19    22    1
    18    22    23    1
    19    21    24    1
    20    23    24    1
    21    23    25    1
    22    25    26   ar
    23    25    27   ar
    24    21    28    1
    25    18    29    1
    26    18    30    1
    27    31    33    1
    28    32    33    1
    29     2     1    1
    30    29    32    1
    31    31    30    1
    32     8     9   ar
    33     9    14   ar
    34    14    15   ar
    35    15    16   ar
    36    16    17   ar
    37    17     8   ar
