@<TRIPOS>MOLECULE
No_3619-gen_results/8p0m/2024-11-26-14-13-15/
 16 17 0 0 0
SMALL
GASTEIGER

@<TRIPOS>ATOM
      1 C         -28.0162   -0.8135   28.8779 C.ar    1  UNL1        0.0350
      2 C         -27.0636   -0.1189   28.6079 C.ar    1  UNL1        0.1392
      3 N         -25.8176   -0.3427   29.0487 N.ar    1  UNL1       -0.2285
      4 C         -25.6067   -1.4414   29.8929 C.ar    1  UNL1        0.1003
      5 C         -26.6760   -2.2193   30.2363 C.ar    1  UNL1        0.0208
      6 C         -27.8635   -1.9317   29.7671 C.ar    1  UNL1        0.0045
      7 N         -26.9183    1.0622   27.7699 N.pl3   1  UNL1       -0.2502
      8 C         -25.8950    1.4403   27.1831 C.ar    1  UNL1        0.0569
      9 C         -25.4547    1.5622   26.2094 C.ar    1  UNL1        0.0152
     10 C         -24.0673    2.0168   25.7718 C.ar    1  UNL1        0.0013
     11 C         -23.1914    2.2509   26.8291 C.ar    1  UNL1        0.0001
     12 C         -23.6012    2.0123   28.1365 C.ar    1  UNL1        0.0013
     13 C         -24.8260    1.6287   28.3732 C.ar    1  UNL1        0.0152
     14 C         -27.9903    1.9960   28.0525 C.2     1  UNL1        0.0662
     15 C         -29.0580    1.9397   27.1019 C.2     1  UNL1       -0.0094
     16 C         -30.1166    2.7747   27.3374 C.3     1  UNL1        0.0321
@<TRIPOS>BOND
     1     2     7    1
     2     7     8    1
     3     7    14    1
     4    14    15    2
     5    15    16    1
     6     1     2   ar
     7     2     3   ar
     8     3     4   ar
     9     4     5   ar
    10     5     6   ar
    11     6     1   ar
    12     8     9   ar
    13     9    10   ar
    14    10    11   ar
    15    11    12   ar
    16    12    13   ar
    17    13     8   ar
