@<TRIPOS>MOLECULE
No_362-gen_results/8p0m/2024-11-26-14-13-15/
 15 17 0 0 0
SMALL
GASTEIGER

@<TRIPOS>ATOM
      1 C         -28.0162   -0.8135   28.8779 C.ar    1  UNL1       -0.0003
      2 C         -27.0636   -0.1189   28.6079 C.ar    1  UNL1       -0.0040
      3 C         -25.7647   -0.3897   29.0360 C.ar    1  UNL1       -0.0003
      4 C         -25.5296   -1.5302   29.9014 C.ar    1  UNL1       -0.0000
      5 C         -26.6577   -2.2915   30.2035 C.ar    1  UNL1       -0.0000
      6 C         -27.8548   -1.9555   29.7630 C.ar    1  UNL1       -0.0000
      7 C         -24.5349    0.4128   28.7431 C.ar    1  UNL1       -0.0000
      8 C         -23.3062    0.0366   29.0393 C.ar    1  UNL1       -0.0000
      9 C         -22.1759    0.8277   28.6836 C.ar    1  UNL1       -0.0000
     10 C         -22.3552    1.8290   27.6875 C.ar    1  UNL1       -0.0000
     11 C         -24.5941    1.4954   27.7678 C.ar    1  UNL1       -0.0003
     12 C         -25.9295    1.8495   27.2614 C.ar    1  UNL1       -0.0043
     13 C         -23.5227    2.1987   27.3000 C.ar    1  UNL1       -0.0000
     14 C         -27.1529    1.0565   27.6429 C.ar    1  UNL1       -0.0218
     15 C         -28.3888    1.3726   27.0577 C.3     1  UNL1        0.0310
@<TRIPOS>BOND
     1    14    15    1
     2     1     2   ar
     3     3     4   ar
     4     4     5   ar
     5     5     6   ar
     6     6     1   ar
     7     2     3   ar
     8     3     7   ar
     9    11    12   ar
    10    12    14   ar
    11    14     2   ar
    12     7     8   ar
    13     8     9   ar
    14     9    10   ar
    15    10    13   ar
    16    13    11   ar
    17    11     7   ar
