@<TRIPOS>MOLECULE
No_3620-gen_results/8p0m/2024-11-26-14-13-15/
 21 22 0 0 0
SMALL
GASTEIGER

@<TRIPOS>ATOM
      1 C         -28.0162   -0.8135   28.8779 C.ar    1  UNL1        0.0028
      2 C         -28.4690   -0.7850   29.8287 C.ar    1  UNL1        0.0795
      3 C         -28.1816    0.4277   28.1134 C.ar    1  UNL1       -0.0128
      4 C         -28.9841    1.4155   28.5154 C.ar    1  UNL1       -0.0038
      5 C         -28.3375   -2.0481   30.7873 C.2     1  UNL1        0.3877
      6 C         -29.5615    1.2930   29.7416 C.ar    1  UNL1       -0.0001
      7 C         -29.3196    0.1647   30.4451 C.ar    1  UNL1        0.0066
      8 O         -27.3512   -2.1149   31.3658 O.co2   1  UNL1       -0.2406
      9 O         -29.0701   -3.1446   30.4210 O.co2   1  UNL1       -0.2406
     10 C         -27.3131    0.3724   26.8597 C.3     1  UNL1        0.1111
     11 C         -25.9077    0.4560   26.9307 C.2     1  UNL1       -0.0164
     12 C         -25.1496    0.0475   28.0014 C.2     1  UNL1       -0.0041
     13 C         -23.7581    0.1586   28.0565 C.ar    1  UNL1       -0.0003
     14 C         -22.9849   -0.3479   29.1622 C.ar    1  UNL1       -0.0000
     15 C         -21.6119   -0.1990   29.2051 C.ar    1  UNL1       -0.0000
     16 C         -20.9367    0.6671   28.3107 C.ar    1  UNL1       -0.0000
     17 C         -21.7228    1.3667   27.3802 C.ar    1  UNL1       -0.0000
     18 C         -23.0890    1.1781   27.2990 C.ar    1  UNL1       -0.0000
     19 C         -27.9951    0.2897   25.6530 C.3     1  UNL1        0.3263
     20 F         -27.2673    0.4126   24.6872 F       1  UNL1       -0.1977
     21 F         -28.8754    1.3229   25.5820 F       1  UNL1       -0.1977
@<TRIPOS>BOND
     1     2     5    1
     2     5     8   ar
     3     5     9   ar
     4     3    10    1
     5    10    11    1
     6    11    12    2
     7    12    13    1
     8    10    19    1
     9    19    20    1
    10    19    21    1
    11    13    14   ar
    12    14    15   ar
    13    15    16   ar
    14    16    17   ar
    15    17    18   ar
    16    18    13   ar
    17     1     2   ar
    18     2     7   ar
    19     7     6   ar
    20     6     4   ar
    21     4     3   ar
    22     3     1   ar
