@<TRIPOS>MOLECULE
No_3621-gen_results/8p0m/2024-11-26-14-13-15/
 20 20 0 0 0
SMALL
GASTEIGER

@<TRIPOS>ATOM
      1 C         -28.0162   -0.8135   28.8779 C.2     1  UNL1       -0.0303
      2 C         -27.0636   -0.1189   28.6079 C.2     1  UNL1       -0.0483
      3 C         -26.9716    0.7139   27.5060 C.3     1  UNL1        0.0223
      4 C         -25.8206    1.4910   27.1160 C.3     1  UNL1        0.0156
      5 C         -24.6562    1.4242   27.9180 C.3     1  UNL1        0.1041
      6 C         -24.6847    0.5901   29.0659 C.3     1  UNL1        0.0156
      7 C         -25.8099   -0.1265   29.3338 C.3     1  UNL1        0.0223
      8 C         -29.2186   -0.0422   29.3127 C.3     1  UNL1        0.0808
      9 C         -30.2802   -0.8075   29.8362 C.3     1  UNL1        0.2722
     10 C         -23.4679    2.2044   27.6013 C.2     1  UNL1        0.3643
     11 O         -22.5604    2.2190   28.4825 O.co2   1  UNL1       -0.2457
     12 O         -23.2751    2.6124   26.3872 O.co2   1  UNL1       -0.2457
     13 C         -30.4641   -0.7985   31.1617 C.2     1  UNL1        0.4044
     14 O         -31.5460   -0.4155   29.1971 O.2     1  UNL1       -0.4600
     15 O         -30.2706   -1.9077   31.7713 O.co2   1  UNL1       -0.2416
     16 O         -31.1982    0.0731   31.7919 O.co2   1  UNL1       -0.2416
     17 C         -31.8263    0.5199   28.7721 C.2     1  UNL1        0.2335
     18 C         -32.8257    0.7117   27.9930 C.2     1  UNL1        0.3154
     19 F         -33.6527   -0.0542   27.9918 F       1  UNL1       -0.1686
     20 F         -33.4402    1.9649   28.1833 F       1  UNL1       -0.1686
@<TRIPOS>BOND
     1     1     2    2
     2     2     3    1
     3     3     4    1
     4     4     5    1
     5     5     6    1
     6     2     7    1
     7     6     7    1
     8     1     8    1
     9     8     9    1
    10     5    10    1
    11    10    11   ar
    12    10    12   ar
    13     9    13    1
    14     9    14    1
    15    13    15   ar
    16    13    16   ar
    17    14    17    1
    18    17    18    2
    19    18    19    1
    20    18    20    1
