@<TRIPOS>MOLECULE
No_3623-gen_results/8p0m/2024-11-26-14-13-15/
 29 33 0 0 0
SMALL
GASTEIGER

@<TRIPOS>ATOM
      1 C         -28.0162   -0.8135   28.8779 C.ar    1  UNL1       -0.0016
      2 C         -28.4690   -0.7850   29.8287 C.ar    1  UNL1       -0.0002
      3 C         -27.0871    0.2903   28.6377 C.ar    1  UNL1        0.0081
      4 C         -26.2516    0.4114   27.4223 C.3     1  UNL1        0.1555
      5 C         -28.3913    0.1041   30.9805 C.ar    1  UNL1       -0.0000
      6 C         -27.5332    1.1666   30.7866 C.ar    1  UNL1       -0.0005
      7 C         -26.8281    1.2557   29.6454 C.ar    1  UNL1       -0.0051
      8 C         -25.7329    1.6893   27.1546 C.2     1  UNL1       -0.0171
      9 C         -24.6745    1.7805   26.3311 C.2     1  UNL1       -0.0408
     10 C         -23.4889    1.8293   26.5696 C.3     1  UNL1        0.0681
     11 C         -22.9284    1.7811   27.9020 C.2     1  UNL1        0.0711
     12 N         -22.1935    0.9390   28.3673 N.2     1  UNL1       -0.2728
     13 C         -22.4761    0.3230   29.5789 C.3     1  UNL1        0.1298
     14 C         -22.2928   -1.1210   29.6787 C.3     1  UNL1        0.0526
     15 C         -23.5514   -1.7621   29.2822 C.ar    1  UNL1       -0.0202
     16 O         -26.9079   -0.1004   26.3385 O.3     1  UNL1       -0.3474
     17 C         -24.5986   -1.4320   29.4194 C.ar    1  UNL1       -0.0042
     18 C         -25.7517   -2.3277   29.3340 C.ar    1  UNL1       -0.0003
     19 C         -25.2765   -3.7066   29.1887 C.ar    1  UNL1       -0.0000
     20 C         -24.0667   -4.0662   29.0421 C.ar    1  UNL1       -0.0003
     21 C         -23.1331   -3.2246   29.2094 C.ar    1  UNL1       -0.0042
     22 C         -26.6860    0.5637   25.1804 C.3     1  UNL1        0.1473
     23 C         -25.2980    1.1235   25.0932 C.3     1  UNL1        0.0540
     24 C         -27.3306    2.1897   31.8926 C.ar    1  UNL1       -0.0000
     25 C         -26.4907    3.0305   31.8019 C.ar    1  UNL1       -0.0003
     26 C         -25.7054    3.1416   30.5117 C.ar    1  UNL1       -0.0040
     27 C         -25.8758    2.2724   29.5368 C.ar    1  UNL1       -0.0189
     28 C         -25.3052    2.4956   28.1896 C.3     1  UNL1        0.0426
     29 C         -25.7147    4.1264   27.8377 C.3     1  UNL1        0.0091
@<TRIPOS>BOND
     1     3     4    1
     2     4     8    1
     3     8     9    2
     4     9    10    1
     5    10    11    1
     6    11    12    2
     7    12    13    1
     8    13    14    1
     9    14    15    1
    10     4    16    1
    11    16    22    1
    12     9    23    1
    13    22    23    1
    14     8    28    1
    15    27    28    1
    16    28    29    1
    17    15    17   ar
    18    17    18   ar
    19    18    19   ar
    20    19    20   ar
    21    20    21   ar
    22    21    15   ar
    23     1     2   ar
    24     2     5   ar
    25     5     6   ar
    26     7     3   ar
    27     3     1   ar
    28     6     7   ar
    29     7    27   ar
    30    27    26   ar
    31    26    25   ar
    32    25    24   ar
    33    24     6   ar
