@<TRIPOS>MOLECULE
No_3624-gen_results/8p0m/2024-11-26-14-13-15/
 21 22 0 0 0
SMALL
GASTEIGER

@<TRIPOS>ATOM
      1 C         -28.0162   -0.8135   28.8779 C.ar    1  UNL1        0.0262
      2 C         -28.4690   -0.7850   29.8287 C.ar    1  UNL1        0.0525
      3 C         -26.5455   -0.8762   28.8500 C.ar    1  UNL1        0.0589
      4 C         -25.8041   -1.0324   30.0571 C.ar    1  UNL1        0.0115
      5 C         -27.9437   -0.9869   31.2075 C.ar    1  UNL1        0.0149
      6 C         -26.5825   -1.0386   31.2231 C.ar    1  UNL1        0.0021
      7 N         -29.9648   -0.7353   29.8902 N.pl3   1  UNL1       -0.2851
      8 C         -30.5344   -0.0309   29.0060 C.2     1  UNL1        0.0720
      9 C         -31.0160    0.9546   28.9051 C.2     1  UNL1        0.0942
     10 C         -31.1144    1.7830   30.1822 C.2     1  UNL1        0.0036
     11 C         -31.0706    1.2912   31.2731 C.2     1  UNL1       -0.0161
     12 C         -30.6548   -0.9498   31.1210 C.3     1  UNL1        0.1084
     13 C         -30.8059    0.2018   31.9289 C.3     1  UNL1        0.1371
     14 CL        -25.5537   -0.7601   27.4141 Cl      1  UNL1       -0.0822
     15 C         -30.9900   -0.1253   33.3409 C.3     1  UNL1        0.4028
     16 F         -30.1666    0.4114   33.9805 F       1  UNL1       -0.1696
     17 F         -32.2190    0.3176   33.6769 F       1  UNL1       -0.1696
     18 F         -30.9002   -1.4488   33.5625 F       1  UNL1       -0.1696
     19 C         -31.4411    1.6771   27.7128 C.2     1  UNL1        0.3890
     20 O         -31.2719    2.7501   27.4483 O.co2   1  UNL1       -0.2405
     21 O         -32.3099    0.9311   27.0095 O.co2   1  UNL1       -0.2405
@<TRIPOS>BOND
     1     2     7    1
     2     7     8    1
     3     8     9    2
     4     9    10    1
     5    10    11    2
     6     7    12    1
     7    11    13    1
     8    12    13    1
     9     3    14    1
    10    13    15    1
    11    15    16    1
    12    15    17    1
    13    15    18    1
    14     9    19    1
    15    19    20   ar
    16    19    21   ar
    17     1     2   ar
    18     2     5   ar
    19     5     6   ar
    20     6     4   ar
    21     4     3   ar
    22     3     1   ar
