@<TRIPOS>MOLECULE
No_3625-gen_results/8p0m/2024-11-26-14-13-15/
 10 10 0 0 0
SMALL
GASTEIGER

@<TRIPOS>ATOM
      1 C         -28.0162   -0.8135   28.8779 C.ar    1  UNL1        0.0015
      2 C         -27.0636   -0.1189   28.6079 C.ar    1  UNL1        0.0001
      3 C         -26.9716    0.7139   27.5060 C.ar    1  UNL1        0.0015
      4 C         -28.1053    0.7744   26.6421 C.ar    1  UNL1        0.0192
      5 C         -29.2008    0.1044   27.0527 C.ar    1  UNL1        0.0859
      6 C         -29.2096   -0.6029   28.1853 C.ar    1  UNL1        0.0192
      7 N         -30.3077    0.2215   26.2218 N.2     1  UNL1       -0.1928
      8 C         -31.3611   -0.4042   26.5033 C.2     1  UNL1        0.3657
      9 F         -32.1702   -0.6563   25.5678 F       1  UNL1       -0.1503
     10 F         -31.3601   -1.5168   27.2426 F       1  UNL1       -0.1503
@<TRIPOS>BOND
     1     5     7    1
     2     7     8    2
     3     8     9    1
     4     8    10    1
     5     1     2   ar
     6     2     3   ar
     7     3     4   ar
     8     4     5   ar
     9     5     6   ar
    10     6     1   ar
