@<TRIPOS>MOLECULE
No_3629-gen_results/8p0m/2024-11-26-14-13-15/
 22 24 0 0 0
SMALL
GASTEIGER

@<TRIPOS>ATOM
      1 BR        -28.1146   -0.6256   29.0813 Br      1  UNL1       -0.0493
      2 C         -27.4917    0.8142   29.3550 C.2     1  UNL1        0.0303
      3 C         -26.7306    1.3379   28.4952 C.2     1  UNL1       -0.0191
      4 C         -26.4078    0.6761   27.2094 C.3     1  UNL1        0.0312
      5 C         -26.8467   -0.2597   26.7837 C.3     1  UNL1        0.0304
      6 C         -26.3928   -0.5806   25.4171 C.2     1  UNL1       -0.0303
      7 C         -25.3799    0.2454   24.8661 C.2     1  UNL1       -0.0304
      8 C         -25.4193    1.3134   26.2191 C.3     1  UNL1        0.0301
      9 C         -24.5690    2.4253   26.2608 C.3     1  UNL1        0.0267
     10 C         -23.1660    2.2099   26.1196 C.3     1  UNL1        0.0050
     11 C         -25.1218    3.7029   26.4441 C.ar    1  UNL1       -0.0222
     12 C         -27.7367    1.6293   30.5861 C.ar    1  UNL1        0.0059
     13 C         -27.2672    2.6935   30.7057 C.ar    1  UNL1        0.0005
     14 C         -27.3973    3.5821   31.8671 C.ar    1  UNL1        0.0000
     15 C         -27.8284    3.3485   32.8097 C.ar    1  UNL1        0.0000
     16 C         -28.4396    1.9977   32.9055 C.ar    1  UNL1        0.0000
     17 C         -28.3668    1.1195   31.8047 C.ar    1  UNL1        0.0005
     18 C         -26.3127    4.0824   26.4719 C.ar    1  UNL1       -0.0043
     19 C         -26.7973    5.2407   27.0851 C.ar    1  UNL1       -0.0003
     20 C         -25.8389    6.2090   27.4255 C.ar    1  UNL1       -0.0000
     21 C         -24.4495    5.9286   27.3585 C.ar    1  UNL1       -0.0003
     22 C         -24.1144    4.7070   26.9213 C.ar    1  UNL1       -0.0043
@<TRIPOS>BOND
     1     1     2    1
     2     2     3    2
     3     3     4    1
     4     4     5    1
     5     5     6    1
     6     6     7    2
     7     4     8    1
     8     7     8    1
     9     8     9    1
    10     9    10    1
    11     9    11    1
    12     2    12    1
    13    12    13   ar
    14    13    14   ar
    15    14    15   ar
    16    15    16   ar
    17    16    17   ar
    18    17    12   ar
    19    11    18   ar
    20    18    19   ar
    21    19    20   ar
    22    20    21   ar
    23    21    22   ar
    24    22    11   ar
