@<TRIPOS>MOLECULE
No_363-gen_results/8p0m/2024-11-26-14-13-15/
 20 21 0 0 0
SMALL
GASTEIGER

@<TRIPOS>ATOM
      1 C         -28.0162   -0.8135   28.8779 C.ar    1  UNL1        0.0369
      2 C         -27.0636   -0.1189   28.6079 C.ar    1  UNL1        0.0028
      3 C         -25.7647   -0.3897   29.0360 C.ar    1  UNL1       -0.0037
      4 C         -24.5517    0.4058   28.7646 C.ar    1  UNL1       -0.0188
      5 C         -23.2300    0.1178   29.2575 C.ar    1  UNL1       -0.0042
      6 C         -23.0942   -1.1309   29.8730 C.ar    1  UNL1       -0.0003
      7 C         -27.7980   -1.9341   29.8560 C.ar    1  UNL1        0.1391
      8 C         -26.5420   -2.3268   30.2580 C.ar    1  UNL1        0.0369
      9 C         -25.4514   -1.5516   29.9079 C.ar    1  UNL1        0.0027
     10 C         -24.1562   -1.9097   30.2809 C.ar    1  UNL1        0.0001
     11 C         -24.6450    1.6582   27.9464 C.3     1  UNL1        0.0685
     12 C         -25.0764    1.5785   26.6992 C.3     1  UNL1        0.0087
     13 C         -24.3307    2.9033   28.6159 C.3     1  UNL1        0.2339
     14 CL        -24.7463    4.3028   27.6922 Cl      1  UNL1       -0.0785
     15 O         -24.8294    3.0747   29.8395 O.3     1  UNL1       -0.2049
     16 O         -28.9249   -2.6423   30.1534 O.3     1  UNL1       -0.4707
     17 C         -29.9860   -2.0249   30.6939 C.3     1  UNL1        0.2315
     18 C         -30.5465   -2.7942   31.7028 C.2     1  UNL1        0.0161
     19 C         -29.9833   -3.9169   32.1023 C.2     1  UNL1       -0.0267
     20 C         -29.4057   -4.6837   31.1559 C.3     1  UNL1        0.0305
@<TRIPOS>BOND
     1     4    11    1
     2    11    12    1
     3    11    13    1
     4    13    14    1
     5    13    15    1
     6     7    16    1
     7    16    17    1
     8    17    18    1
     9    18    19    2
    10    19    20    1
    11     1     2   ar
    12     2     3   ar
    13     9     8   ar
    14     8     7   ar
    15     7     1   ar
    16     3     4   ar
    17     4     5   ar
    18     5     6   ar
    19     6    10   ar
    20    10     9   ar
    21     9     3   ar
