@<TRIPOS>MOLECULE
No_3632-gen_results/8p0m/2024-11-26-14-13-15/
 14 15 0 0 0
SMALL
GASTEIGER

@<TRIPOS>ATOM
      1 C         -28.0162   -0.8135   28.8779 C.ar    1  UNL1        0.0045
      2 C         -28.4690   -0.7850   29.8287 C.ar    1  UNL1        0.0536
      3 C         -26.5042   -0.7777   28.8766 C.ar    1  UNL1        0.0001
      4 C         -25.8103   -0.8531   30.1028 C.ar    1  UNL1        0.0000
      5 C         -27.9906   -0.8916   31.2257 C.ar    1  UNL1        0.0045
      6 C         -26.6042   -0.8676   31.2652 C.ar    1  UNL1        0.0001
      7 C         -30.0739   -0.8360   29.8615 C.2     1  UNL1        0.2500
      8 N         -30.6454   -0.1837   28.9598 N.am    1  UNL1       -0.2608
      9 C         -30.1746    0.8452   28.4366 C.3     1  UNL1        0.0965
     10 C         -30.8759    1.5849   27.8509 C.3     1  UNL1        0.0404
     11 C         -32.2152    1.5597   27.8769 C.3     1  UNL1        0.0923
     12 C         -31.9088   -0.5567   28.5975 C.3     1  UNL1        0.1856
     13 N         -32.7586    0.3662   28.1846 N.3     1  UNL1       -0.1972
     14 O         -30.5948   -1.6297   30.7339 O.2     1  UNL1       -0.2699
@<TRIPOS>BOND
     1     2     7    1
     2     7     8   am
     3     8     9    1
     4    10    11    1
     5     8    12    1
     6    12    13    1
     7     7    14    2
     8     9    10    1
     9    11    13    1
    10     1     2   ar
    11     2     5   ar
    12     5     6   ar
    13     6     4   ar
    14     4     3   ar
    15     3     1   ar
