@<TRIPOS>MOLECULE
No_3633-gen_results/8p0m/2024-11-26-14-13-15/
 12 12 0 0 0
SMALL
GASTEIGER

@<TRIPOS>ATOM
      1 C         -28.0162   -0.8135   28.8779 C.ar    1  UNL1        0.0063
      2 C         -28.4690   -0.7850   29.8287 C.ar    1  UNL1        0.0798
      3 C         -26.5042   -0.7777   28.8766 C.ar    1  UNL1       -0.0021
      4 C         -25.8103   -0.8531   30.1028 C.ar    1  UNL1        0.0020
      5 C         -27.9906   -0.8916   31.2257 C.ar    1  UNL1        0.0063
      6 C         -26.6042   -0.8676   31.2652 C.ar    1  UNL1       -0.0021
      7 C         -30.0739   -0.8360   29.8615 C.2     1  UNL1        0.3878
      8 O         -30.6825   -0.0696   30.6918 O.co2   1  UNL1       -0.2406
      9 O         -30.5863   -1.1986   28.8194 O.co2   1  UNL1       -0.2406
     10 C         -24.3679   -0.8013   30.1447 C.3     1  UNL1        0.1519
     11 N         -23.8503    0.5383   30.1936 N.2     1  UNL1       -0.2625
     12 C         -22.6915    0.8366   29.5165 C.2     1  UNL1        0.1137
@<TRIPOS>BOND
     1     2     7    1
     2     7     8   ar
     3     7     9   ar
     4     4    10    1
     5    10    11    1
     6    11    12    2
     7     1     2   ar
     8     2     5   ar
     9     5     6   ar
    10     6     4   ar
    11     4     3   ar
    12     3     1   ar
