@<TRIPOS>MOLECULE
No_3634-gen_results/8p0m/2024-11-26-14-13-15/
 31 34 0 0 0
SMALL
GASTEIGER

@<TRIPOS>ATOM
      1 C         -28.0162   -0.8135   28.8779 C.ar    1  UNL1        0.0068
      2 C         -28.4690   -0.7850   29.8287 C.ar    1  UNL1        0.0828
      3 C         -28.1816    0.4277   28.1134 C.ar    1  UNL1        0.0032
      4 C         -27.4498    0.6435   26.8500 C.ar    1  UNL1        0.0001
      5 C         -27.8596    1.4573   25.9076 C.ar    1  UNL1        0.0000
      6 C         -29.4263    0.1097   30.4178 C.ar    1  UNL1        0.0435
      7 C         -29.6233    1.2198   29.7351 C.ar    1  UNL1        0.1393
      8 C         -28.9609    1.4529   28.5513 C.ar    1  UNL1        0.0369
      9 C         -27.1733    1.5743   24.7028 C.ar    1  UNL1        0.0000
     10 C         -26.0892    0.7468   24.4126 C.ar    1  UNL1        0.0000
     11 C         -25.6364   -0.1191   25.3972 C.ar    1  UNL1        0.0000
     12 C         -26.2807   -0.2063   26.5817 C.ar    1  UNL1        0.0000
     13 O         -30.4549    2.2210   30.2334 O.3     1  UNL1       -0.4706
     14 C         -30.3480    2.7243   31.3805 C.3     1  UNL1        0.2343
     15 C         -30.6455    3.9106   31.6650 C.ar    1  UNL1        0.0497
     16 C         -31.1513    4.8223   30.7172 C.ar    1  UNL1        0.0032
     17 C         -31.4330    6.2058   30.9990 C.ar    1  UNL1        0.0176
     18 C         -31.8996    7.0839   29.9915 C.ar    1  UNL1        0.0017
     19 C         -32.1869    8.4352   30.2461 C.ar    1  UNL1        0.0067
     20 C         -32.0030    8.8609   31.5771 C.ar    1  UNL1        0.0813
     21 C         -31.5658    8.0151   32.5573 C.ar    1  UNL1        0.0257
     22 C         -31.2330    6.6374   32.2925 C.ar    1  UNL1        0.0824
     23 N         -30.8153    5.8378   33.2094 N.ar    1  UNL1       -0.2342
     24 C         -30.4757    4.5091   32.9647 C.ar    1  UNL1        0.1378
     25 CL        -30.1819    3.4704   34.3099 Cl      1  UNL1       -0.0616
     26 C         -32.3205   10.2753   31.8750 C.2     1  UNL1        0.3878
     27 O         -31.9446   10.7537   32.8841 O.co2   1  UNL1       -0.2406
     28 O         -33.1597   10.8577   31.0670 O.co2   1  UNL1       -0.2406
     29 C         -28.3420   -2.1197   30.7396 C.2     1  UNL1        0.3879
     30 O         -27.6466   -2.9903   30.3583 O.co2   1  UNL1       -0.2406
     31 O         -28.9545   -2.1348   31.8654 O.co2   1  UNL1       -0.2406
@<TRIPOS>BOND
     1     3     4    1
     2     7    13    1
     3    13    14    1
     4    24    25    1
     5    20    26    1
     6    26    27   ar
     7    26    28   ar
     8     2    29    1
     9    29    30   ar
    10    29    31   ar
    11    14    15    1
    12    17    18   ar
    13    18    19   ar
    14    19    20   ar
    15    20    21   ar
    16    21    22   ar
    17    15    16   ar
    18    16    17   ar
    19    17    22   ar
    20    22    23   ar
    21    23    24   ar
    22    24    15   ar
    23     4     5   ar
    24     5     9   ar
    25     9    10   ar
    26    10    11   ar
    27    11    12   ar
    28    12     4   ar
    29     1     2   ar
    30     2     6   ar
    31     6     7   ar
    32     7     8   ar
    33     8     3   ar
    34     3     1   ar
