@<TRIPOS>MOLECULE
No_3636-gen_results/8p0m/2024-11-26-14-13-15/
 18 18 0 0 0
SMALL
GASTEIGER

@<TRIPOS>ATOM
      1 F         -28.0727   -1.2542   28.5316 F       1  UNL1       -0.2000
      2 C         -27.3591   -0.3792   28.7224 C.ar    1  UNL1        0.1860
      3 C         -26.3323   -0.6441   29.4520 C.ar    1  UNL1        0.1785
      4 C         -25.2562    0.3203   29.7818 C.ar    1  UNL1        0.1052
      5 C         -25.4242    1.6275   29.2026 C.ar    1  UNL1        0.0827
      6 C         -26.5263    1.8254   28.4032 C.ar    1  UNL1        0.0820
      7 C         -27.4513    0.8601   28.1355 C.ar    1  UNL1        0.0995
      8 CL        -28.7231    1.2293   27.1156 Cl      1  UNL1       -0.0789
      9 CL        -24.2454    2.7844   29.5879 Cl      1  UNL1       -0.0803
     10 O         -26.0653   -1.8325   30.0866 O.3     1  UNL1       -0.4648
     11 C         -24.8822   -2.4935   29.8108 C.3     1  UNL1        0.2662
     12 C         -25.0602   -3.7943   29.1260 C.2     1  UNL1        0.2168
     13 C         -23.8948   -4.3563   28.6165 C.2     1  UNL1        0.3054
     14 F         -24.1426   -5.4444   28.0436 F       1  UNL1       -0.1698
     15 F         -22.8329   -3.7500   28.5290 F       1  UNL1       -0.1698
     16 CL        -23.8919    0.0397   30.8054 Cl      1  UNL1       -0.0781
     17 CL        -26.8590    3.4576   27.8414 Cl      1  UNL1       -0.0804
     18 F         -26.1929   -4.2323   29.1083 F       1  UNL1       -0.2001
@<TRIPOS>BOND
     1     1     2    1
     2     7     8    1
     3     5     9    1
     4     3    10    1
     5    10    11    1
     6    11    12    1
     7    12    13    2
     8    13    14    1
     9    13    15    1
    10     4    16    1
    11     6    17    1
    12    12    18    1
    13     2     3   ar
    14     3     4   ar
    15     4     5   ar
    16     5     6   ar
    17     6     7   ar
    18     7     2   ar
