@<TRIPOS>MOLECULE
No_3637-gen_results/8p0m/2024-11-26-14-13-15/
 24 27 0 0 0
SMALL
GASTEIGER

@<TRIPOS>ATOM
      1 C         -28.0162   -0.8135   28.8779 C.ar    1  UNL1        0.0029
      2 C         -28.4690   -0.7850   29.8287 C.ar    1  UNL1        0.0001
      3 C         -27.1356    0.2359   28.5352 C.ar    1  UNL1        0.0352
      4 C         -26.8745    1.2825   29.3982 C.ar    1  UNL1       -0.0084
      5 C         -27.5070    1.2380   30.6295 C.ar    1  UNL1       -0.0036
      6 C         -28.3269    0.1637   30.9240 C.ar    1  UNL1       -0.0003
      7 C         -26.4110    0.3070   27.2192 C.2     1  UNL1        0.1916
      8 C         -25.6218    1.4685   26.9657 C.2     1  UNL1        0.0208
      9 C         -24.6222    1.4841   26.1826 C.2     1  UNL1       -0.0011
     10 C         -23.7507    2.7452   26.1118 C.2     1  UNL1       -0.0045
     11 C         -24.1488    3.8497   26.9086 C.2     1  UNL1       -0.0216
     12 C         -25.5358    2.8667   27.7387 C.3     1  UNL1        0.0523
     13 C         -26.1532    3.4811   28.7192 C.3     1  UNL1        0.0453
     14 C         -26.0608    2.6030   29.1913 C.3     1  UNL1        0.1303
     15 C         -27.3768    3.9890   28.2266 C.ar    1  UNL1       -0.0210
     16 C         -28.2106    4.5157   28.7408 C.ar    1  UNL1       -0.0042
     17 C         -27.7302    3.6988   26.7760 C.ar    1  UNL1       -0.0042
     18 C         -29.5558    4.8564   28.3975 C.ar    1  UNL1       -0.0003
     19 C         -28.9969    4.0530   26.2847 C.ar    1  UNL1       -0.0003
     20 C         -29.8643    4.6642   27.0791 C.ar    1  UNL1       -0.0000
     21 C         -24.9661    2.5450   30.4204 C.2     1  UNL1        0.3687
     22 O         -25.0555    1.8194   31.2867 O.co2   1  UNL1       -0.2453
     23 O         -26.0760   -0.6932   26.6659 O.2     1  UNL1       -0.2869
     24 O         -23.8300    2.9980   30.0503 O.co2   1  UNL1       -0.2453
@<TRIPOS>BOND
     1     3     7    1
     2     7     8    1
     3     8     9    2
     4     9    10    1
     5    10    11    2
     6     8    12    1
     7    11    12    1
     8    12    13    1
     9     4    14    1
    10    13    14    1
    11    13    15    1
    12    14    21    1
    13    21    22   ar
    14     7    23    2
    15    21    24   ar
    16     1     2   ar
    17     2     6   ar
    18     6     5   ar
    19     5     4   ar
    20     4     3   ar
    21     3     1   ar
    22    15    16   ar
    23    16    18   ar
    24    18    20   ar
    25    20    19   ar
    26    19    17   ar
    27    17    15   ar
