@<TRIPOS>MOLECULE
No_3638-gen_results/8p0m/2024-11-26-14-13-15/
 24 25 0 0 0
SMALL
GASTEIGER

@<TRIPOS>ATOM
      1 C         -28.0162   -0.8135   28.8779 C.3     1  UNL1        0.1079
      2 C         -27.0636   -0.1189   28.6079 C.ar    1  UNL1       -0.0073
      3 C         -26.8756    1.1325   28.9134 C.ar    1  UNL1        0.0721
      4 C         -25.6883    1.9515   28.5672 C.ar    1  UNL1        0.0100
      5 C         -24.6394    1.2834   27.8753 C.ar    1  UNL1        0.0716
      6 C         -24.8068   -0.0513   27.6040 C.ar    1  UNL1        0.0035
      7 C         -25.9019   -0.7670   27.9511 C.ar    1  UNL1       -0.0037
      8 C         -28.0678   -1.4475   30.2707 C.2     1  UNL1        0.2350
      9 CL        -29.3548   -2.4005   30.8831 Cl      1  UNL1       -0.0425
     10 C         -23.4501    2.0040   27.4694 C.3     1  UNL1        0.4186
     11 F         -22.5137    1.5004   27.3383 F       1  UNL1       -0.1659
     12 F         -23.3130    3.1041   28.3541 F       1  UNL1       -0.1659
     13 F         -23.7891    2.7681   26.3429 F       1  UNL1       -0.1659
     14 O         -27.0008   -1.4530   31.0126 O.2     1  UNL1       -0.2785
     15 C         -27.9029    1.9308   29.6372 C.2     1  UNL1        0.3412
     16 O         -28.0847    2.9265   29.4988 O.2     1  UNL1       -0.2449
     17 O         -28.8201    1.0795   30.2528 O.3     1  UNL1       -0.4404
     18 C         -29.9237    1.8076   30.8417 C.3     1  UNL1        0.2354
     19 C         -31.0757    0.9842   30.8320 C.ar    1  UNL1        0.0213
     20 C         -32.1533    1.6186   31.0708 C.ar    1  UNL1       -0.0007
     21 C         -33.4093    0.9610   31.0439 C.ar    1  UNL1       -0.0002
     22 C         -33.3916   -0.4165   30.6885 C.ar    1  UNL1       -0.0000
     23 C         -32.2228   -1.0425   30.3456 C.ar    1  UNL1       -0.0002
     24 C         -31.0365   -0.3111   30.3802 C.ar    1  UNL1       -0.0007
@<TRIPOS>BOND
     1     1     8    1
     2     8     9    1
     3     5    10    1
     4    10    11    1
     5    10    12    1
     6    10    13    1
     7     8    14    2
     8     3    15    1
     9    15    16    2
    10    15    17    1
    11    17    18    1
    12    18    19    1
    13     1     2    1
    14     2     3   ar
    15     3     4   ar
    16     4     5   ar
    17     5     6   ar
    18     6     7   ar
    19     7     2   ar
    20    19    20   ar
    21    20    21   ar
    22    21    22   ar
    23    22    23   ar
    24    23    24   ar
    25    24    19   ar
