@<TRIPOS>MOLECULE
No_3639-gen_results/8p0m/2024-11-26-14-13-15/
 24 26 0 0 0
SMALL
GASTEIGER

@<TRIPOS>ATOM
      1 C         -28.0162   -0.8135   28.8779 C.ar    1  UNL1        0.0336
      2 C         -28.4690   -0.7850   29.8287 C.ar    1  UNL1        0.1450
      3 C         -26.5042   -0.7777   28.8766 C.ar    1  UNL1       -0.0148
      4 C         -25.8103   -0.8531   30.1028 C.ar    1  UNL1       -0.0037
      5 C         -27.9906   -0.8916   31.2257 C.ar    1  UNL1        0.0375
      6 C         -26.6042   -0.8676   31.2652 C.ar    1  UNL1        0.0028
      7 O         -29.9385   -0.8194   29.8358 O.3     1  UNL1       -0.4535
      8 C         -30.5356   -0.1119   28.9448 C.ar    1  UNL1        0.1453
      9 C         -31.4501   -0.5434   28.1111 C.ar    1  UNL1        0.0375
     10 C         -31.7759   -0.2280   27.2086 C.ar    1  UNL1        0.0031
     11 C         -31.3722    1.1250   26.6759 C.ar    1  UNL1        0.0002
     12 C         -30.4374    1.7418   27.4456 C.ar    1  UNL1        0.0031
     13 C         -29.9032    1.0960   28.5505 C.ar    1  UNL1        0.0375
     14 C         -25.6285   -0.7192   27.6583 C.3     1  UNL1        0.0527
     15 C         -25.2284    0.6455   27.3100 C.ar    1  UNL1       -0.0178
     16 C         -25.5316    1.0971   26.0690 C.ar    1  UNL1       -0.0039
     17 C         -25.0926    2.3354   25.6980 C.ar    1  UNL1       -0.0003
     18 C         -24.3323    3.1539   26.6520 C.ar    1  UNL1       -0.0000
     19 C         -23.9857    2.6350   27.8488 C.ar    1  UNL1       -0.0003
     20 C         -24.4186    1.3706   28.2021 C.ar    1  UNL1       -0.0039
     21 C         -31.9653    1.7615   25.4858 C.2     1  UNL1        0.0000
     22 C         -31.9635    1.2140   24.3997 C.2     1  UNL1        0.0000
     23 C         -31.4492   -0.1102   24.2495 C.2     1  UNL1        0.0000
     24 C         -31.8104   -1.1533   25.0363 C.2     1  UNL1        0.0000
@<TRIPOS>BOND
     1     2     7    1
     2     7     8    1
     3     3    14    1
     4    14    15    1
     5    11    21    1
     6    21    22    2
     7    22    23    1
     8    23    24    2
     9    15    16   ar
    10    16    17   ar
    11    17    18   ar
    12    18    19   ar
    13    19    20   ar
    14    20    15   ar
    15     8     9   ar
    16     9    10   ar
    17    10    11   ar
    18    11    12   ar
    19    12    13   ar
    20    13     8   ar
    21     1     2   ar
    22     2     5   ar
    23     5     6   ar
    24     6     4   ar
    25     4     3   ar
    26     3     1   ar
