@<TRIPOS>MOLECULE
No_364-gen_results/8p0m/2024-11-26-14-13-15/
 8 8 0 0 0
SMALL
GASTEIGER

@<TRIPOS>ATOM
      1 O         -28.1229   -1.3353   28.4874 O.2     1  UNL1       -0.2589
      2 C         -27.4806   -0.4044   28.7094 C.2     1  UNL1        0.3087
      3 C         -26.3804   -0.0867   27.9395 C.1     1  UNL1       -0.0010
      4 N         -27.6665    0.4468   29.8988 N.am    1  UNL1       -0.1896
      5 C         -25.1773   -0.4388   28.3946 C.1     1  UNL1       -0.0550
      6 C         -24.7583    0.2226   29.6633 C.2     1  UNL1        0.0469
      7 C         -25.5825    0.3858   30.8268 C.2     1  UNL1        0.0060
      8 C         -26.8288    0.6387   30.8746 C.3     1  UNL1        0.1428
@<TRIPOS>BOND
     1     1     2    2
     2     2     3    1
     3     2     4   am
     4     3     5    3
     5     5     6    1
     6     6     7    2
     7     4     8    1
     8     7     8    1
