@<TRIPOS>MOLECULE
No_3641-gen_results/8p0m/2024-11-26-14-13-15/
 35 39 0 0 0
SMALL
GASTEIGER

@<TRIPOS>ATOM
      1 C         -28.0162   -0.8135   28.8779 C.ar    1  UNL1        0.0310
      2 C         -28.4690   -0.7850   29.8287 C.ar    1  UNL1        0.0226
      3 C         -28.1960    0.3478   28.0550 C.ar    1  UNL1        0.1402
      4 C         -29.0191    1.3501   28.3782 C.ar    1  UNL1        0.0310
      5 C         -29.4107    0.1803   30.3782 C.ar    1  UNL1        0.1272
      6 C         -29.6059    1.2495   29.6193 C.ar    1  UNL1        0.0226
      7 F         -27.5401    0.3372   26.8421 F       1  UNL1       -0.2042
      8 S         -30.1234   -0.0575   31.9740 S.O2    1  UNL1        0.0928
      9 O         -30.0501    0.8166   32.6994 O.2     1  UNL1       -0.1483
     10 O         -29.4579   -1.3263   32.4054 O.2     1  UNL1       -0.1483
     11 N         -31.6522   -0.4874   31.5411 N.pl3   1  UNL1       -0.0965
     12 C         -32.4060   -1.1609   31.9166 C.ar    1  UNL1        0.0910
     13 C         -33.1169   -1.9593   31.5292 C.ar    1  UNL1        0.0180
     14 C         -34.1052   -2.8391   32.1779 C.ar    1  UNL1        0.0014
     15 C         -34.2431   -2.6251   33.5598 C.ar    1  UNL1        0.0001
     16 C         -33.4767   -1.7057   34.1820 C.ar    1  UNL1        0.0014
     17 C         -32.5623   -0.9244   33.5157 C.ar    1  UNL1        0.0180
     18 C         -35.2535   -3.4563   34.2480 C.ar    1  UNL1        0.0002
     19 C         -35.9615   -4.2556   33.7804 C.ar    1  UNL1        0.0013
     20 C         -36.6927   -4.9102   34.0729 C.ar    1  UNL1        0.0150
     21 C         -37.0056   -4.8560   35.5877 C.ar    1  UNL1        0.0560
     22 C         -36.2911   -3.9989   36.2909 C.ar    1  UNL1        0.0690
     23 C         -35.3557   -3.2170   35.6963 C.ar    1  UNL1        0.0058
     24 C         -36.3671   -3.6771   37.7633 C.2     1  UNL1        0.2702
     25 N         -37.0996   -4.1339   38.5973 N.am    1  UNL1       -0.1741
     26 O         -35.4323   -2.9700   38.3082 O.2     1  UNL1       -0.2680
     27 C         -38.2108   -4.9881   38.2099 C.ar    1  UNL1        0.0872
     28 C         -38.9607   -5.4355   39.3487 C.ar    1  UNL1        0.0179
     29 C         -40.0337   -6.2080   39.1715 C.ar    1  UNL1        0.0014
     30 C         -40.3885   -6.5864   37.8346 C.ar    1  UNL1        0.0014
     31 C         -39.6622   -6.1514   36.7741 C.ar    1  UNL1        0.0162
     32 C         -38.5721   -5.3022   36.9738 C.ar    1  UNL1        0.0671
     33 N         -37.8870   -5.0293   35.9012 N.pl3   1  UNL1       -0.2858
     34 C         -38.9353   -5.1589   34.7195 C.3     1  UNL1        0.0956
     35 C         -39.5145   -3.9726   34.3138 C.3     1  UNL1        0.0236
@<TRIPOS>BOND
     1     3     7    1
     2     5     8    1
     3     8     9    2
     4     8    10    2
     5     8    11    1
     6    11    12    1
     7    15    18    1
     8    22    24    1
     9    24    25   am
    10    24    26    2
    11    25    27    1
    12    21    33    1
    13    32    33    1
    14    33    34    1
    15    34    35    1
    16    12    13   ar
    17    13    14   ar
    18    14    15   ar
    19    15    16   ar
    20    16    17   ar
    21    17    12   ar
    22    18    19   ar
    23    19    20   ar
    24    20    21   ar
    25    21    22   ar
    26    22    23   ar
    27    23    18   ar
    28     1     2   ar
    29     2     5   ar
    30     5     6   ar
    31     6     4   ar
    32     4     3   ar
    33     3     1   ar
    34    27    28   ar
    35    28    29   ar
    36    29    30   ar
    37    30    31   ar
    38    31    32   ar
    39    32    27   ar
