@<TRIPOS>MOLECULE
No_3642-gen_results/8p0m/2024-11-26-14-13-15/
 13 14 0 0 0
SMALL
GASTEIGER

@<TRIPOS>ATOM
      1 C         -28.0162   -0.8135   28.8779 C.ar    1  UNL1        0.0000
      2 C         -27.0636   -0.1189   28.6079 C.ar    1  UNL1        0.0001
      3 C         -25.7923   -0.4302   29.0761 C.ar    1  UNL1        0.0000
      4 C         -25.5756   -1.5654   29.9363 C.ar    1  UNL1        0.0000
      5 C         -26.7354   -2.3004   30.2173 C.ar    1  UNL1        0.0000
      6 C         -27.9184   -1.9537   29.7629 C.ar    1  UNL1        0.0000
      7 C         -27.1057    1.1023   27.7593 C.ar    1  UNL1        0.0022
      8 C         -27.8576    1.5309   27.2156 C.ar    1  UNL1        0.0001
      9 C         -28.0992    2.2992   26.4302 C.ar    1  UNL1        0.0023
     10 C         -26.9543    3.1837   26.0254 C.ar    1  UNL1        0.0296
     11 C         -25.7574    2.8807   26.5755 C.ar    1  UNL1        0.1401
     12 C         -25.7339    1.7924   27.4542 C.ar    1  UNL1        0.0296
     13 F         -24.6588    3.5565   26.3499 F       1  UNL1       -0.2042
@<TRIPOS>BOND
     1     2     7    1
     2    11    13    1
     3     1     2   ar
     4     2     3   ar
     5     3     4   ar
     6     4     5   ar
     7     5     6   ar
     8     6     1   ar
     9     7     8   ar
    10     8     9   ar
    11     9    10   ar
    12    10    11   ar
    13    11    12   ar
    14    12     7   ar
