@<TRIPOS>MOLECULE
No_3643-gen_results/8p0m/2024-11-26-14-13-15/
 17 18 0 0 0
SMALL
GASTEIGER

@<TRIPOS>ATOM
      1 C         -28.0162   -0.8135   28.8779 C.ar    1  UNL1        0.0046
      2 C         -28.4690   -0.7850   29.8287 C.ar    1  UNL1        0.0536
      3 C         -26.5042   -0.7777   28.8766 C.ar    1  UNL1        0.0040
      4 C         -25.8103   -0.8531   30.1028 C.ar    1  UNL1        0.0476
      5 C         -27.9906   -0.8916   31.2257 C.ar    1  UNL1        0.0046
      6 C         -26.6042   -0.8676   31.2652 C.ar    1  UNL1        0.0040
      7 C         -24.3894   -0.8049   30.1638 C.2     1  UNL1        0.2416
      8 N         -23.7687   -1.1336   31.0449 N.2     1  UNL1       -0.1156
      9 F         -23.7677   -0.4348   29.0961 F       1  UNL1       -0.1815
     10 C         -30.0875   -0.8219   29.8526 C.2     1  UNL1        0.2490
     11 O         -30.6857   -0.0832   29.1368 O.2     1  UNL1       -0.2699
     12 N         -30.7439   -1.6842   30.6982 N.am    1  UNL1       -0.2761
     13 C         -31.7025   -2.1349   30.6264 C.3     1  UNL1        0.0937
     14 C         -32.1758   -2.9788   31.4361 C.3     1  UNL1        0.0216
     15 C         -31.2847   -3.2989   32.5123 C.3     1  UNL1        0.0035
     16 C         -30.0581   -2.8952   32.6934 C.3     1  UNL1        0.0216
     17 C         -29.6928   -2.0686   31.7333 C.3     1  UNL1        0.0937
@<TRIPOS>BOND
     1     4     7    1
     2     7     8    2
     3     7     9    1
     4     2    10    1
     5    10    11    2
     6    10    12   am
     7    12    13    1
     8    14    15    1
     9    12    17    1
    10    16    17    1
    11    13    14    1
    12    15    16    1
    13     1     2   ar
    14     2     5   ar
    15     5     6   ar
    16     6     4   ar
    17     4     3   ar
    18     3     1   ar
