@<TRIPOS>MOLECULE
No_3644-gen_results/8p0m/2024-11-26-14-13-15/
 19 20 0 0 0
SMALL
GASTEIGER

@<TRIPOS>ATOM
      1 C         -28.0162   -0.8135   28.8779 C.3     1  UNL1        0.0970
      2 C         -28.4690   -0.7850   29.8287 C.3     1  UNL1        0.0431
      3 N         -28.3026    0.2475   28.0344 N.am    1  UNL1       -0.2599
      4 C         -29.5669    0.6259   27.7714 C.2     1  UNL1        0.3075
      5 C         -30.0167   -0.7032   29.9032 C.3     1  UNL1        0.0968
      6 N         -30.3548    0.3995   29.0137 N.am    1  UNL1       -0.2622
      7 C         -27.3412    0.4137   26.8682 C.3     1  UNL1        0.1218
      8 C         -26.2997    1.4342   27.2248 C.ar    1  UNL1        0.0007
      9 C         -25.1548    1.4907   26.4586 C.ar    1  UNL1       -0.0024
     10 C         -24.0234    2.2936   26.8467 C.ar    1  UNL1        0.0029
     11 C         -23.6395    2.4371   27.8672 C.ar    1  UNL1        0.0375
     12 C         -24.7260    2.3219   28.9143 C.ar    1  UNL1        0.1452
     13 C         -25.7325    1.2394   28.7461 C.ar    1  UNL1        0.0349
     14 C         -31.6312    1.0525   29.1491 C.3     1  UNL1        0.1164
     15 O         -29.9218    1.3165   26.9407 O.2     1  UNL1       -0.2523
     16 O         -25.3674    3.5457   29.1124 O.3     1  UNL1       -0.4508
     17 C         -25.9954    4.2243   28.5071 C.2     1  UNL1        0.1750
     18 C         -25.9965    5.4460   28.8607 C.2     1  UNL1        0.0148
     19 C         -26.4863    6.5021   27.9779 C.3     1  UNL1        0.0341
@<TRIPOS>BOND
     1     1     2    1
     2     1     3    1
     3     3     4   am
     4     2     5    1
     5     4     6   am
     6     5     6    1
     7     3     7    1
     8     7     8    1
     9     6    14    1
    10     4    15    2
    11    12    16    1
    12    16    17    1
    13    17    18    2
    14    18    19    1
    15     8     9   ar
    16     9    10   ar
    17    10    11   ar
    18    11    12   ar
    19    12    13   ar
    20    13     8   ar
