@<TRIPOS>MOLECULE
No_3645-gen_results/8p0m/2024-11-26-14-13-15/
 17 18 0 0 0
SMALL
GASTEIGER

@<TRIPOS>ATOM
      1 C         -28.0162   -0.8135   28.8779 C.ar    1  UNL1        0.0231
      2 C         -27.0636   -0.1189   28.6079 C.ar    1  UNL1        0.0707
      3 N         -26.9849    0.5973   27.5218 N.pl3   1  UNL1       -0.2128
      4 C         -27.9930   -1.5759   30.1509 C.ar    1  UNL1        0.0811
      5 C         -26.8106   -1.6889   30.8356 C.ar    1  UNL1        0.0067
      6 C         -25.6676   -1.0633   30.4296 C.ar    1  UNL1        0.0015
      7 C         -25.7501   -0.2429   29.2785 C.ar    1  UNL1        0.0165
      8 C         -27.9486    1.1848   26.9881 C.ar    1  UNL1        0.0665
      9 C         -29.0904    1.1992   27.5182 C.ar    1  UNL1        0.0162
     10 C         -30.1375    1.7640   26.7873 C.ar    1  UNL1        0.0013
     11 C         -29.9113    2.3608   25.5474 C.ar    1  UNL1       -0.0002
     12 C         -27.7234    1.8061   25.6702 C.ar    1  UNL1       -0.0066
     13 C         -28.6869    2.3844   24.9632 C.ar    1  UNL1       -0.0030
     14 C         -29.2202   -2.2956   30.5673 C.2     1  UNL1        0.3878
     15 O         -29.2629   -3.4871   30.6250 O.co2   1  UNL1       -0.2406
     16 O         -30.2627   -1.6253   30.8502 O.co2   1  UNL1       -0.2406
     17 C         -26.3422    1.7369   25.1396 C.3     1  UNL1        0.0324
@<TRIPOS>BOND
     1     3     8    1
     2     4    14    1
     3    14    15   ar
     4    14    16   ar
     5    12    17    1
     6     3     2    1
     7     1     2   ar
     8     2     7   ar
     9     7     6   ar
    10     6     5   ar
    11     5     4   ar
    12     4     1   ar
    13     8     9   ar
    14     9    10   ar
    15    10    11   ar
    16    11    13   ar
    17    13    12   ar
    18    12     8   ar
