@<TRIPOS>MOLECULE
No_3646-gen_results/8p0m/2024-11-26-14-13-15/
 11 11 0 0 0
SMALL
GASTEIGER

@<TRIPOS>ATOM
      1 O         -28.1229   -1.3353   28.4874 O.co2   1  UNL1       -0.2430
      2 C         -28.5208   -0.4363   29.0779 C.2     1  UNL1        0.3913
      3 O         -27.9150    0.0780   30.0386 O.co2   1  UNL1       -0.2430
      4 C         -29.6198    0.3211   28.3438 C.3     1  UNL1        0.2176
      5 C         -29.4989    1.4633   28.2304 C.3     1  UNL1        0.0413
      6 O         -30.6641   -0.4449   28.0362 O.3     1  UNL1       -0.3451
      7 C         -30.3383    2.1907   27.3212 C.3     1  UNL1        0.0032
      8 C         -31.5687    1.9822   27.3596 C.3     1  UNL1        0.0026
      9 C         -31.9202    0.7317   26.8795 C.3     1  UNL1        0.0297
     10 C         -31.8089   -0.3597   27.7109 C.3     1  UNL1        0.1427
     11 C         -32.4707    0.5275   25.5445 C.3     1  UNL1        0.0026
@<TRIPOS>BOND
     1     1     2   ar
     2     2     3   ar
     3     2     4    1
     4     4     5    1
     5     4     6    1
     6     5     7    1
     7     7     8    1
     8     8     9    1
     9     6    10    1
    10     9    10    1
    11     9    11    1
