@<TRIPOS>MOLECULE
No_3647-gen_results/8p0m/2024-11-26-14-13-15/
 21 22 0 0 0
SMALL
GASTEIGER

@<TRIPOS>ATOM
      1 C         -28.0162   -0.8135   28.8779 C.ar    1  UNL1       -0.0026
      2 C         -28.4690   -0.7850   29.8287 C.ar    1  UNL1       -0.0007
      3 C         -26.5042   -0.7777   28.8766 C.ar    1  UNL1       -0.0003
      4 C         -25.8103   -0.8531   30.1028 C.ar    1  UNL1       -0.0000
      5 C         -27.9906   -0.8916   31.2257 C.ar    1  UNL1       -0.0026
      6 C         -26.6042   -0.8676   31.2652 C.ar    1  UNL1       -0.0003
      7 C         -24.3894   -0.8049   30.1638 C.ar    1  UNL1       -0.0000
      8 C         -23.7660   -0.9500   31.0679 C.ar    1  UNL1       -0.0000
      9 C         -23.6669   -0.5949   28.8837 C.ar    1  UNL1       -0.0000
     10 C         -22.2646   -0.4068   28.9326 C.ar    1  UNL1        0.0000
     11 C         -22.2701   -0.8431   31.2960 C.ar    1  UNL1        0.0000
     12 C         -21.5958   -0.5414   30.1031 C.ar    1  UNL1        0.0000
     13 C         -30.0892   -0.7796   29.8440 C.3     1  UNL1        0.1386
     14 N         -30.6985    0.2902   30.2610 N.pl3   1  UNL1       -0.2315
     15 C         -30.2018    1.2614   30.6106 C.2     1  UNL1        0.0805
     16 C         -30.2943    2.4408   30.7944 C.2     1  UNL1        0.0174
     17 C         -31.6293    3.0177   30.5704 C.2     1  UNL1        0.0014
     18 C         -31.9500    4.3363   30.7246 C.2     1  UNL1       -0.0003
     19 C         -33.2525    4.8074   30.5191 C.2     1  UNL1       -0.0046
     20 C         -34.2028    3.8595   30.0865 C.2     1  UNL1       -0.0258
     21 C         -33.8719    2.5560   29.9042 C.3     1  UNL1        0.0307
@<TRIPOS>BOND
     1     4     7    1
     2     2    13    1
     3    13    14    1
     4    14    15    1
     5    15    16    2
     6    16    17    1
     7    17    18    2
     8    18    19    1
     9    19    20    2
    10    20    21    1
    11     7     8   ar
    12     8    11   ar
    13    11    12   ar
    14    12    10   ar
    15    10     9   ar
    16     9     7   ar
    17     1     2   ar
    18     2     5   ar
    19     5     6   ar
    20     6     4   ar
    21     4     3   ar
    22     3     1   ar
