@<TRIPOS>MOLECULE
No_3649-gen_results/8p0m/2024-11-26-14-13-15/
 22 24 0 0 0
SMALL
GASTEIGER

@<TRIPOS>ATOM
      1 C         -28.0162   -0.8135   28.8779 C.ar    1  UNL1        0.0435
      2 C         -27.0636   -0.1190   28.6079 C.ar    1  UNL1        0.1390
      3 C         -25.7923   -0.4302   29.0761 C.ar    1  UNL1        0.0349
      4 C         -24.5456    0.3494   28.8225 C.ar    1  UNL1        0.0165
      5 C         -23.2409    0.0217   29.3323 C.ar    1  UNL1        0.0011
      6 C         -28.1914   -1.2584   30.0884 C.ar    1  UNL1        0.0828
      7 C         -26.9910   -1.6815   30.8192 C.ar    1  UNL1        0.0068
      8 C         -25.6985   -1.1664   30.3669 C.ar    1  UNL1        0.0033
      9 C         -22.1119    0.6649   28.8308 C.ar    1  UNL1        0.0032
     10 C         -22.0831    1.5286   27.7731 C.ar    1  UNL1        0.0384
     11 C         -24.5040    1.2240   27.6434 C.ar    1  UNL1        0.0922
     12 C         -23.3238    1.8178   27.2050 C.ar    1  UNL1        0.1559
     13 C         -29.4130   -1.9806   30.5937 C.2     1  UNL1        0.3879
     14 O         -29.7168   -1.8840   31.8174 O.co2   1  UNL1       -0.2406
     15 O         -30.1326   -2.5943   29.8071 O.co2   1  UNL1       -0.2406
     16 O         -23.3683    2.7140   26.1825 O.3     1  UNL1       -0.4498
     17 C         -24.6067    3.1919   25.9195 C.2     1  UNL1        0.1786
     18 O         -26.9981    0.5978   27.3969 O.3     1  UNL1       -0.4747
     19 C         -26.3289    1.3955   26.8770 C.3     1  UNL1        0.1912
     20 CL        -24.1266    1.1449   26.6197 Cl      1  UNL1       -0.0791
     21 C         -26.1399    2.5138   26.0994 C.2     1  UNL1        0.0572
     22 C         -27.1389    2.1373   27.0618 C.3     1  UNL1        0.0524
@<TRIPOS>BOND
     1     3     4    1
     2     6    13    1
     3    13    14   ar
     4    13    15   ar
     5    12    16    1
     6    16    17    1
     7     2    18    1
     8    18    19    1
     9    11    20    1
    10    17    21    2
    11    19    21    1
    12    19    22    1
    13     1     2   ar
    14     2     3   ar
    15     3     8   ar
    16     8     7   ar
    17     7     6   ar
    18     6     1   ar
    19     4     5   ar
    20     5     9   ar
    21     9    10   ar
    22    10    12   ar
    23    12    11   ar
    24    11     4   ar
