@<TRIPOS>MOLECULE
No_3650-gen_results/8p0m/2024-11-26-14-13-15/
 13 14 0 0 0
SMALL
GASTEIGER

@<TRIPOS>ATOM
      1 C         -28.0162   -0.8135   28.8779 C.ar    1  UNL1        0.0015
      2 C         -28.4690   -0.7850   29.8287 C.ar    1  UNL1        0.0177
      3 C         -26.5455   -0.8762   28.8500 C.ar    1  UNL1        0.0000
      4 C         -25.8041   -1.0324   30.0571 C.ar    1  UNL1        0.0000
      5 C         -27.9437   -0.9869   31.2075 C.ar    1  UNL1        0.0015
      6 C         -26.5825   -1.0386   31.2231 C.ar    1  UNL1        0.0000
      7 C         -30.0606   -0.7371   29.9024 C.ar    1  UNL1        0.0822
      8 N         -30.6056   -0.0348   29.0093 N.ar    1  UNL1       -0.2340
      9 C         -31.5026    0.4445   28.7787 C.ar    1  UNL1        0.1383
     10 C         -32.5059    0.5478   29.7679 C.ar    1  UNL1        0.0308
     11 C         -32.1313   -0.2219   30.9222 C.ar    1  UNL1        0.0040
     12 C         -30.8076   -0.7472   31.1701 C.ar    1  UNL1        0.0192
     13 CL        -32.0052    1.1821   27.2869 Cl      1  UNL1       -0.0613
@<TRIPOS>BOND
     1     2     7    1
     2     9    13    1
     3     1     2   ar
     4     2     5   ar
     5     5     6   ar
     6     6     4   ar
     7     4     3   ar
     8     3     1   ar
     9     7     8   ar
    10     8     9   ar
    11     9    10   ar
    12    10    11   ar
    13    11    12   ar
    14    12     7   ar
