@<TRIPOS>MOLECULE
No_3651-gen_results/8p0m/2024-11-26-14-13-15/
 30 33 0 0 0
SMALL
GASTEIGER

@<TRIPOS>ATOM
      1 C         -28.0162   -0.8135   28.8779 C.3     1  UNL1        0.1119
      2 C         -27.0636   -0.1190   28.6079 C.2     1  UNL1        0.2338
      3 N         -25.8176   -0.3427   29.0488 N.am    1  UNL1       -0.2566
      4 C         -24.6757    0.3814   28.7496 C.ar    1  UNL1        0.0539
      5 C         -23.4276    0.0095   29.2601 C.ar    1  UNL1        0.0149
      6 C         -22.2341    0.6752   28.9665 C.ar    1  UNL1        0.0013
      7 C         -22.2074    1.6474   27.9672 C.ar    1  UNL1        0.0001
      8 C         -23.4333    2.0438   27.4220 C.ar    1  UNL1        0.0013
      9 C         -24.6468    1.3668   27.7395 C.ar    1  UNL1        0.0149
     10 C         -29.2727   -0.1537   29.0735 C.ar    1  UNL1       -0.0133
     11 C         -30.3539   -0.8144   29.6696 C.ar    1  UNL1       -0.0037
     12 C         -31.6395   -0.3373   29.5903 C.ar    1  UNL1        0.0040
     13 C         -31.8067    0.9724   29.0673 C.ar    1  UNL1        0.0522
     14 C         -30.7917    1.6520   28.5132 C.ar    1  UNL1        0.0125
     15 C         -29.4824    1.0730   28.4394 C.ar    1  UNL1       -0.0053
     16 O         -27.1385    1.0322   27.8652 O.2     1  UNL1       -0.2742
     17 C         -25.5803   -1.4734   29.9506 C.3     1  UNL1        0.1200
     18 C         -33.2005    1.5475   29.1239 C.2     1  UNL1        0.2504
     19 O         -34.1609    1.0855   28.9056 O.2     1  UNL1       -0.2699
     20 N         -33.1455    2.8082   29.8520 N.am    1  UNL1       -0.2541
     21 C         -34.3609    3.5344   30.0175 C.3     1  UNL1        0.0959
     22 C         -34.1318    4.6704   30.4250 C.3     1  UNL1        0.0217
     23 C         -32.8717    5.2677   30.7403 C.3     1  UNL1        0.0061
     24 C         -31.7332    4.4623   30.5030 C.3     1  UNL1        0.0511
     25 C         -31.8791    3.2448   30.0336 C.3     1  UNL1        0.1951
     26 C         -31.1546    2.8284   27.7985 C.3     1  UNL1        0.1578
     27 O         -31.0305    3.4282   28.8405 O.3     1  UNL1       -0.3316
     28 C         -30.0028    3.2749   26.8568 C.2     1  UNL1       -0.0131
     29 C         -29.2677    4.4377   27.0052 C.2     1  UNL1       -0.0064
     30 C         -29.7422    2.4882   25.6517 C.3     1  UNL1        0.0291
@<TRIPOS>BOND
     1     1     2    1
     2     2     3   am
     3     3     4    1
     4     2    16    2
     5     3    17    1
     6    13    18    1
     7    18    19    2
     8    18    20   am
     9    20    21    1
    10    22    23    1
    11    20    25    1
    12    24    25    1
    13    14    26    1
    14    25    27    1
    15    26    27    1
    16    26    28    1
    17    28    29    2
    18    28    30    1
    19     1    10    1
    20    21    22    1
    21    23    24    1
    22    10    11   ar
    23    11    12   ar
    24    12    13   ar
    25    13    14   ar
    26    14    15   ar
    27    15    10   ar
    28     4     5   ar
    29     5     6   ar
    30     6     7   ar
    31     7     8   ar
    32     8     9   ar
    33     9     4   ar
