@<TRIPOS>MOLECULE
No_3652-gen_results/8p0m/2024-11-26-14-13-15/
 16 17 0 0 0
SMALL
GASTEIGER

@<TRIPOS>ATOM
      1 C         -28.0162   -0.8135   28.8779 C.ar    1  UNL1        0.0026
      2 C         -28.4690   -0.7850   29.8287 C.ar    1  UNL1        0.0795
      3 C         -26.5042   -0.7777   28.8766 C.ar    1  UNL1       -0.0176
      4 C         -25.6540   -0.6597   27.7191 C.3     1  UNL1        0.0526
      5 C         -27.9180   -0.9374   31.1824 C.ar    1  UNL1        0.0066
      6 C         -26.5423   -0.9399   31.2606 C.ar    1  UNL1       -0.0001
      7 C         -25.7832   -0.8935   30.1201 C.ar    1  UNL1       -0.0039
      8 C         -25.2134    0.6923   27.3830 C.ar    1  UNL1       -0.0178
      9 C         -23.9202    0.9215   27.7697 C.ar    1  UNL1       -0.0039
     10 C         -23.2576    2.1194   27.2629 C.ar    1  UNL1       -0.0003
     11 C         -23.9322    2.9640   26.4349 C.ar    1  UNL1       -0.0000
     12 C         -25.8566    1.4747   26.4320 C.ar    1  UNL1       -0.0039
     13 C         -25.2193    2.6095   25.9797 C.ar    1  UNL1       -0.0003
     14 C         -30.0544   -0.7950   29.8430 C.2     1  UNL1        0.3877
     15 O         -30.7381   -1.5979   30.3042 O.co2   1  UNL1       -0.2406
     16 O         -30.5125   -0.0097   28.8735 O.co2   1  UNL1       -0.2406
@<TRIPOS>BOND
     1     3     4    1
     2     4     8    1
     3     2    14    1
     4    14    15   ar
     5    14    16   ar
     6     1     2   ar
     7     2     5   ar
     8     5     6   ar
     9     6     7   ar
    10     7     3   ar
    11     3     1   ar
    12     8     9   ar
    13     9    10   ar
    14    10    11   ar
    15    11    13   ar
    16    13    12   ar
    17    12     8   ar
