@<TRIPOS>MOLECULE
No_3653-gen_results/8p0m/2024-11-26-14-13-15/
 15 15 0 0 0
SMALL
GASTEIGER

@<TRIPOS>ATOM
      1 C         -28.0162   -0.8135   28.8779 C.ar    1  UNL1       -0.0003
      2 C         -28.4690   -0.7850   29.8287 C.ar    1  UNL1       -0.0000
      3 C         -26.5042   -0.7777   28.8766 C.ar    1  UNL1       -0.0036
      4 C         -25.8103   -0.8531   30.1028 C.ar    1  UNL1       -0.0121
      5 C         -27.9906   -0.8916   31.2257 C.ar    1  UNL1       -0.0003
      6 C         -26.6042   -0.8676   31.2652 C.ar    1  UNL1       -0.0036
      7 C         -24.3894   -0.8049   30.1638 C.3     1  UNL1        0.0924
      8 C         -23.8172    0.4762   29.9118 C.2     1  UNL1       -0.0187
      9 C         -22.5010    0.5449   29.4097 C.2     1  UNL1       -0.0125
     10 C         -21.7696   -0.6524   29.2129 C.3     1  UNL1        0.1205
     11 C         -23.6812   -1.3591   31.3252 C.3     1  UNL1        0.0165
     12 C         -23.9090   -1.7904   28.9731 C.2     1  UNL1        0.1799
     13 CL        -22.0416   -2.0549   29.0662 Cl      1  UNL1       -0.1086
     14 C         -24.5905   -2.6362   28.3462 C.2     1  UNL1        0.0410
     15 O         -24.0153   -0.7427   28.0388 O.2     1  UNL1       -0.2907
@<TRIPOS>BOND
     1     4     7    1
     2     7     8    1
     3     8     9    2
     4     9    10    1
     5     7    11    1
     6     7    12    1
     7    10    13    1
     8    12    14    2
     9    12    15    1
    10     1     2   ar
    11     2     5   ar
    12     5     6   ar
    13     6     4   ar
    14     4     3   ar
    15     3     1   ar
