@<TRIPOS>MOLECULE
No_3654-gen_results/8p0m/2024-11-26-14-13-15/
 11 11 0 0 0
SMALL
GASTEIGER

@<TRIPOS>ATOM
      1 CL        -28.1493   -0.8198   28.9079 Cl      1  UNL1       -0.0466
      2 C         -27.8339    0.4961   29.0598 C.3     1  UNL1        0.3339
      3 F         -27.7903    1.1418   28.0451 F       1  UNL1       -0.1864
      4 C         -28.6323    1.2373   30.1065 C.3     1  UNL1        0.1096
      5 F         -26.5233    0.5319   29.5428 F       1  UNL1       -0.1864
      6 C         -28.9103    2.3709   29.9539 C.ar    1  UNL1       -0.0154
      7 C         -29.6960    3.1653   29.8945 C.ar    1  UNL1       -0.0040
      8 C         -30.0400    4.2622   29.6968 C.ar    1  UNL1       -0.0003
      9 C         -28.9022    5.1879   29.3697 C.ar    1  UNL1       -0.0000
     10 C         -27.6419    4.5407   29.3144 C.ar    1  UNL1       -0.0003
     11 C         -27.5710    3.2071   29.5954 C.ar    1  UNL1       -0.0040
@<TRIPOS>BOND
     1     1     2    1
     2     2     3    1
     3     2     4    1
     4     2     5    1
     5     4     6    1
     6     6     7   ar
     7     7     8   ar
     8     8     9   ar
     9     9    10   ar
    10    10    11   ar
    11    11     6   ar
