@<TRIPOS>MOLECULE
No_3656-gen_results/8p0m/2024-11-26-14-13-15/
 17 18 0 0 0
SMALL
GASTEIGER

@<TRIPOS>ATOM
      1 C         -28.0162   -0.8135   28.8779 C.ar    1  UNL1        0.0369
      2 C         -27.0636   -0.1189   28.6079 C.ar    1  UNL1        0.1391
      3 C         -26.8756    1.1325   28.9134 C.ar    1  UNL1        0.0369
      4 C         -27.9014    1.8066   29.6436 C.ar    1  UNL1        0.0031
      5 C         -29.0458   -0.2316   29.7181 C.ar    1  UNL1        0.0031
      6 C         -28.9402    1.0517   30.0597 C.ar    1  UNL1        0.0002
      7 O         -25.9795   -0.6907   27.8753 O.3     1  UNL1       -0.4707
      8 C         -24.9341   -1.2498   28.6642 C.3     1  UNL1        0.2315
      9 C         -24.7306   -0.8600   29.8157 C.2     1  UNL1        0.0165
     10 C         -23.7095   -0.3760   30.3304 C.2     1  UNL1       -0.0190
     11 C         -22.6305    0.1103   29.4281 C.3     1  UNL1        0.0914
     12 C         -22.2231    0.8410   28.6802 C.ar    1  UNL1        0.1435
     13 N         -21.1410    0.8277   27.9531 N.ar    1  UNL1       -0.2288
     14 N         -23.2489    1.7423   28.0908 N.ar    1  UNL1       -0.2288
     15 C         -22.9226    2.4896   26.9772 C.ar    1  UNL1        0.1019
     16 C         -21.8206    2.2191   26.2785 C.ar    1  UNL1        0.0413
     17 C         -20.8469    1.4421   26.8567 C.ar    1  UNL1        0.1019
@<TRIPOS>BOND
     1     2     7    1
     2     7     8    1
     3     8     9    1
     4     9    10    2
     5    10    11    1
     6    11    12    1
     7     1     2   ar
     8     2     3   ar
     9     3     4   ar
    10     4     6   ar
    11     6     5   ar
    12     5     1   ar
    13    12    13   ar
    14    13    17   ar
    15    17    16   ar
    16    16    15   ar
    17    15    14   ar
    18    14    12   ar
