@<TRIPOS>MOLECULE
No_3657-gen_results/8p0m/2024-11-26-14-13-15/
 33 36 0 0 0
SMALL
GASTEIGER

@<TRIPOS>ATOM
      1 C         -28.0162   -0.8135   28.8779 C.ar    1  UNL1        0.0410
      2 C         -27.0636   -0.1190   28.6079 C.ar    1  UNL1        0.1410
      3 C         -26.9287    1.1713   29.0083 C.ar    1  UNL1        0.0305
      4 C         -25.7702    2.0341   28.6884 C.ar    1  UNL1        0.0390
      5 C         -24.7141    1.4431   27.9188 C.ar    1  UNL1        0.0327
      6 C         -23.5566    2.1673   27.5933 C.ar    1  UNL1        0.1403
      7 C         -28.6748   -0.6676   29.8717 C.ar    1  UNL1        0.0599
      8 C         -28.7144    0.6146   30.5584 C.ar    1  UNL1        0.0115
      9 C         -27.7333    1.5221   30.1662 C.ar    1  UNL1        0.0032
     10 C         -25.7176    3.4200   28.8867 C.ar    1  UNL1        0.1456
     11 C         -24.6846    4.2309   28.3057 C.ar    1  UNL1        0.0398
     12 C         -23.5974    3.5595   27.6856 C.ar    1  UNL1        0.0328
     13 F         -26.1965   -0.4465   27.5380 F       1  UNL1       -0.2041
     14 CL        -29.9662   -1.7826   30.3913 Cl      1  UNL1       -0.0822
     15 F         -22.5697    1.6796   26.9027 F       1  UNL1       -0.2042
     16 O         -26.6964    4.0102   29.5429 O.3     1  UNL1       -0.4504
     17 C         -26.7078    5.4353   29.5603 C.ar    1  UNL1        0.1795
     18 C         -27.5520    6.0204   28.7701 C.ar    1  UNL1        0.0407
     19 C         -27.3629    7.3093   28.4490 C.ar    1  UNL1        0.0033
     20 C         -26.5141    8.2092   29.2089 C.ar    1  UNL1        0.0033
     21 C         -25.6640    7.5466   30.1680 C.ar    1  UNL1        0.0407
     22 C         -25.7042    6.1664   30.2688 C.ar    1  UNL1        0.1795
     23 O         -25.0569    5.4682   31.1814 O.3     1  UNL1       -0.4507
     24 C         -25.4077    5.5908   32.4811 C.ar    1  UNL1        0.1419
     25 C         -26.5361    4.8257   32.9527 C.ar    1  UNL1        0.0372
     26 C         -26.6646    4.7342   34.2760 C.ar    1  UNL1        0.0031
     27 C         -25.9653    5.5644   35.1813 C.ar    1  UNL1       -0.0001
     28 C         -24.9038    6.3271   34.6972 C.ar    1  UNL1       -0.0007
     29 C         -24.5816    6.3209   33.3635 C.ar    1  UNL1        0.0237
     30 C         -23.6887    7.2317   32.8611 C.3     1  UNL1        0.1434
     31 C         -22.2437    6.9071   33.2084 C.2     1  UNL1        0.3693
     32 O         -21.7873    7.6433   34.1362 O.co2   1  UNL1       -0.2453
     33 O         -21.7262    5.8044   32.8978 O.co2   1  UNL1       -0.2453
@<TRIPOS>BOND
     1     3     4    1
     2     2    13    1
     3     7    14    1
     4     6    15    1
     5    10    16    1
     6    16    17    1
     7    22    23    1
     8    23    24    1
     9    29    30    1
    10    30    31    1
    11    31    32   ar
    12    31    33   ar
    13     4     5   ar
    14     5     6   ar
    15     6    12   ar
    16    12    11   ar
    17    11    10   ar
    18    10     4   ar
    19    24    25   ar
    20    25    26   ar
    21    26    27   ar
    22    27    28   ar
    23    28    29   ar
    24    29    24   ar
    25     1     2   ar
    26     2     3   ar
    27     3     9   ar
    28     9     8   ar
    29     8     7   ar
    30     7     1   ar
    31    17    18   ar
    32    18    19   ar
    33    19    20   ar
    34    20    21   ar
    35    21    22   ar
    36    22    17   ar
