@<TRIPOS>MOLECULE
No_3658-gen_results/8p0m/2024-11-26-14-13-15/
 13 14 0 0 0
SMALL
GASTEIGER

@<TRIPOS>ATOM
      1 C         -28.0162   -0.8135   28.8779 C.ar    1  UNL1        0.0375
      2 C         -28.4690   -0.7850   29.8287 C.ar    1  UNL1        0.0031
      3 C         -26.5455   -0.8762   28.8500 C.ar    1  UNL1        0.1453
      4 C         -25.8041   -1.0324   30.0571 C.ar    1  UNL1        0.0375
      5 C         -26.5373   -1.0386   31.2171 C.ar    1  UNL1        0.0031
      6 C         -27.8929   -0.9601   31.1743 C.ar    1  UNL1        0.0002
      7 O         -25.8001   -0.8259   27.7108 O.3     1  UNL1       -0.4535
      8 C         -25.7838    0.3630   27.0424 C.ar    1  UNL1        0.1453
      9 C         -24.5590    0.8791   26.9823 C.ar    1  UNL1        0.0375
     10 C         -24.3298    2.0878   26.2065 C.ar    1  UNL1        0.0031
     11 C         -26.7360    0.6347   26.1154 C.ar    1  UNL1        0.0375
     12 C         -26.6239    1.7683   25.3473 C.ar    1  UNL1        0.0031
     13 C         -25.3751    2.5314   25.3870 C.ar    1  UNL1        0.0002
@<TRIPOS>BOND
     1     3     7    1
     2     7     8    1
     3     1     2   ar
     4     2     6   ar
     5     6     5   ar
     6     5     4   ar
     7     4     3   ar
     8     3     1   ar
     9     8     9   ar
    10     9    10   ar
    11    10    13   ar
    12    13    12   ar
    13    12    11   ar
    14    11     8   ar
