@<TRIPOS>MOLECULE
No_3659-gen_results/8p0m/2024-11-26-14-13-15/
 10 11 0 0 0
SMALL
GASTEIGER

@<TRIPOS>ATOM
      1 N         -28.0544   -1.0498   28.7246 N.ar    1  UNL1       -0.2251
      2 C         -26.9659   -0.4722   28.7709 C.ar    1  UNL1        0.1623
      3 C         -26.5486    0.3876   27.8310 C.ar    1  UNL1        0.0359
      4 C         -27.4665    0.7388   26.8314 C.ar    1  UNL1        0.0046
      5 C         -28.6992    0.2175   26.8921 C.ar    1  UNL1        0.0208
      6 C         -29.0128   -0.5588   27.9370 C.ar    1  UNL1        0.1006
      7 N         -25.9571   -0.8486   29.7128 N.ar    1  UNL1       -0.2251
      8 C         -24.6752   -0.4656   29.6015 C.ar    1  UNL1        0.1006
      9 C         -24.3298    0.5546   28.6742 C.ar    1  UNL1        0.0208
     10 C         -25.1547    0.9359   27.7238 C.ar    1  UNL1        0.0046
@<TRIPOS>BOND
     1     1     2   ar
     2     3     4   ar
     3     4     5   ar
     4     5     6   ar
     5     6     1   ar
     6     2     3   ar
     7     3    10   ar
     8    10     9   ar
     9     9     8   ar
    10     8     7   ar
    11     7     2   ar
