@<TRIPOS>MOLECULE
No_366-gen_results/8p0m/2024-11-26-14-13-15/
 34 39 0 0 0
SMALL
GASTEIGER

@<TRIPOS>ATOM
      1 C         -28.0162   -0.8135   28.8779 C.ar    1  UNL1        0.0821
      2 C         -27.0636   -0.1189   28.6079 C.ar    1  UNL1       -0.0055
      3 C         -25.7647   -0.3897   29.0360 C.ar    1  UNL1       -0.0026
      4 C         -24.5516    0.4058   28.7646 C.ar    1  UNL1       -0.0003
      5 C         -23.2300    0.1178   29.2575 C.ar    1  UNL1       -0.0000
      6 C         -27.8275   -1.9081   29.8661 C.ar    1  UNL1        0.1522
      7 C         -26.5727   -2.3160   30.2643 C.ar    1  UNL1        0.0382
      8 C         -25.4305   -1.5200   29.9226 C.ar    1  UNL1        0.0028
      9 C         -23.1525   -1.1087   29.9673 C.ar    1  UNL1        0.0000
     10 C         -24.1863   -1.8860   30.3270 C.ar    1  UNL1        0.0001
     11 C         -24.6420    1.6131   27.8853 C.ar    1  UNL1       -0.0000
     12 C         -24.8756    2.7342   28.4772 C.ar    1  UNL1       -0.0000
     13 C         -25.0629    3.9288   27.7022 C.ar    1  UNL1       -0.0000
     14 C         -24.8630    3.8236   26.2898 C.ar    1  UNL1        0.0000
     15 C         -24.6114    1.6888   26.5020 C.ar    1  UNL1       -0.0000
     16 C         -24.6254    2.6788   25.7383 C.ar    1  UNL1       -0.0000
     17 O         -28.9207   -2.6702   30.1842 O.3     1  UNL1       -0.4694
     18 C         -29.2586   -2.8301   31.5340 C.3     1  UNL1        0.2319
     19 C         -29.7835   -1.7719   32.1432 C.2     1  UNL1        0.0237
     20 C         -30.1135   -0.7561   31.5114 C.2     1  UNL1        0.0346
     21 C         -30.3569   -0.6370   30.2208 C.2     1  UNL1        0.1532
     22 C         -30.1532   -0.8362   29.1757 C.2     1  UNL1        0.1028
     23 N         -29.2331   -0.3423   28.6896 N.pl3   1  UNL1       -0.2813
     24 C         -29.2525    0.7144   27.7589 C.3     1  UNL1        0.0961
     25 C         -28.1068    0.9882   27.2881 C.3     1  UNL1        0.0265
     26 C         -27.0358    0.9095   27.6223 C.3     1  UNL1        0.0295
     27 O         -31.4083    0.1134   30.5686 O.2     1  UNL1       -0.4701
     28 C         -29.5000    0.5715   32.0828 C.ar    1  UNL1        0.0028
     29 C         -32.5365   -0.1571   30.5812 C.3     1  UNL1        0.2525
     30 C         -29.0116    0.5821   33.3128 C.ar    1  UNL1        0.0001
     31 C         -28.6521    1.7795   33.9595 C.ar    1  UNL1        0.0000
     32 C         -28.6508    2.9649   33.2558 C.ar    1  UNL1        0.0000
     33 C         -29.1842    2.9857   31.9601 C.ar    1  UNL1        0.0000
     34 C         -29.6283    1.8226   31.4255 C.ar    1  UNL1        0.0001
@<TRIPOS>BOND
     1     4    11    1
     2     6    17    1
     3    17    18    1
     4    18    19    1
     5    19    20    2
     6    20    21    1
     7    21    22    2
     8     1    23    1
     9    22    23    1
    10    23    24    1
    11     2    26    1
    12    25    26    1
    13    21    27    1
    14    20    28    1
    15    27    29    1
    16    25    24    1
    17     3     4   ar
    18     4     5   ar
    19     5     9   ar
    20     9    10   ar
    21    10     8   ar
    22    28    30   ar
    23    30    31   ar
    24    31    32   ar
    25    32    33   ar
    26    33    34   ar
    27    34    28   ar
    28    11    12   ar
    29    12    13   ar
    30    13    14   ar
    31    14    16   ar
    32    16    15   ar
    33    15    11   ar
    34     1     6   ar
    35     6     7   ar
    36     7     8   ar
    37     8     3   ar
    38     3     2   ar
    39     2     1   ar
