@<TRIPOS>MOLECULE
No_3660-gen_results/8p0m/2024-11-26-14-13-15/
 16 18 0 0 0
SMALL
GASTEIGER

@<TRIPOS>ATOM
      1 C         -28.0162   -0.8135   28.8779 C.ar    1  UNL1       -0.0000
      2 C         -27.0636   -0.1189   28.6079 C.ar    1  UNL1       -0.0006
      3 C         -25.7923   -0.4302   29.0761 C.ar    1  UNL1       -0.0079
      4 C         -25.5756   -1.5654   29.9363 C.ar    1  UNL1       -0.0225
      5 C         -26.7354   -2.3004   30.2173 C.ar    1  UNL1       -0.0043
      6 C         -27.9184   -1.9537   29.7629 C.ar    1  UNL1       -0.0003
      7 C         -27.3243    1.0850   27.8190 C.ar    1  UNL1       -0.0000
      8 C         -26.2674    1.9087   27.5697 C.ar    1  UNL1       -0.0003
      9 C         -24.8868    1.5477   28.0393 C.ar    1  UNL1       -0.0043
     10 C         -24.6633    0.4445   28.8042 C.ar    1  UNL1       -0.0228
     11 C         -23.2951    0.1642   29.2505 C.3     1  UNL1        0.0223
     12 C         -22.9939   -0.0274   30.4982 C.3     1  UNL1        0.0047
     13 C         -22.2132    0.2521   28.3042 C.3     1  UNL1        0.0044
     14 C         -20.9155   -0.0306   28.7324 C.3     1  UNL1        0.0003
     15 C         -24.0133   -0.0870   31.5641 C.3     1  UNL1        0.0050
     16 C         -24.7322   -1.4329   31.4038 C.3     1  UNL1        0.0264
@<TRIPOS>BOND
     1    10    11    1
     2    11    12    1
     3    11    13    1
     4    13    14    1
     5    12    15    1
     6     4    16    1
     7    15    16    1
     8     1     2   ar
     9     3     4   ar
    10     4     5   ar
    11     5     6   ar
    12     6     1   ar
    13     2     3   ar
    14     3    10   ar
    15    10     9   ar
    16     9     8   ar
    17     8     7   ar
    18     7     2   ar
