@<TRIPOS>MOLECULE
No_3661-gen_results/8p0m/2024-11-26-14-13-15/
 17 18 0 0 0
SMALL
GASTEIGER

@<TRIPOS>ATOM
      1 C         -28.0162   -0.8135   28.8779 C.2     1  UNL1        0.0907
      2 C         -27.0636   -0.1189   28.6079 C.2     1  UNL1       -0.0204
      3 C         -26.9716    0.7139   27.5060 C.3     1  UNL1        0.0286
      4 C         -25.8206    1.4910   27.1160 C.3     1  UNL1        0.0304
      5 C         -24.6562    1.4242   27.9180 C.ar    1  UNL1       -0.0255
      6 C         -23.4598    2.1165   27.6160 C.ar    1  UNL1       -0.0046
      7 C         -22.3449    1.9937   28.4413 C.ar    1  UNL1       -0.0003
      8 C         -22.3657    0.9905   29.4427 C.ar    1  UNL1       -0.0003
      9 C         -23.4794    0.3053   29.7917 C.ar    1  UNL1       -0.0043
     10 C         -24.6337    0.4667   29.0059 C.ar    1  UNL1       -0.0220
     11 C         -25.7698   -0.2579   29.3337 C.3     1  UNL1        0.0495
     12 N         -28.7107   -0.5725   30.0093 N.2     1  UNL1       -0.2430
     13 C         -28.5487    0.4082   30.6767 C.2     1  UNL1        0.0989
     14 C         -28.8603    1.0035   31.6329 C.2     1  UNL1        0.0206
     15 C         -28.7876    1.8223   32.2785 C.2     1  UNL1        0.0016
     16 C         -27.7527    2.8397   31.9295 C.2     1  UNL1        0.0000
     17 C         -27.0400    2.4611   30.7793 C.2     1  UNL1        0.0000
@<TRIPOS>BOND
     1     1     2    2
     2     2     3    1
     3     3     4    1
     4     4     5    1
     5     2    11    1
     6    10    11    1
     7     1    12    1
     8    12    13    2
     9    13    14    1
    10    14    15    2
    11    15    16    1
    12    16    17    2
    13     5     6   ar
    14     6     7   ar
    15     7     8   ar
    16     8     9   ar
    17     9    10   ar
    18    10     5   ar
