@<TRIPOS>MOLECULE
No_3662-gen_results/8p0m/2024-11-26-14-13-15/
 19 20 0 0 0
SMALL
GASTEIGER

@<TRIPOS>ATOM
      1 C         -28.0162   -0.8135   28.8779 C.3     1  UNL1        0.0423
      2 C         -27.0636   -0.1190   28.6079 C.ar    1  UNL1       -0.0208
      3 C         -26.8756    1.1325   28.9134 C.ar    1  UNL1       -0.0043
      4 C         -25.6883    1.9515   28.5672 C.ar    1  UNL1        0.0035
      5 C         -24.6394    1.2834   27.8753 C.ar    1  UNL1        0.0714
      6 C         -24.8181   -0.0802   27.6166 C.ar    1  UNL1        0.0035
      7 C         -25.9311   -0.7717   27.9696 C.ar    1  UNL1       -0.0043
      8 C         -28.0898   -1.4945   30.2341 C.3     1  UNL1        0.0619
      9 N         -29.1804   -2.2676   30.5988 N.3     1  UNL1       -0.2736
     10 C         -23.4421    1.9624   27.4776 C.3     1  UNL1        0.4186
     11 F         -22.4576    1.4945   27.6189 F       1  UNL1       -0.1659
     12 F         -23.4604    3.2355   28.1028 F       1  UNL1       -0.1659
     13 F         -23.6283    2.3972   26.1689 F       1  UNL1       -0.1659
     14 C         -29.0826   -3.5450   30.8859 C.3     1  UNL1        0.0721
     15 C         -30.4465   -1.6901   30.7053 C.3     1  UNL1        0.0721
     16 C         -31.4852   -2.4785   30.7011 C.3     1  UNL1        0.0174
     17 C         -30.1435   -4.4703   30.8316 C.3     1  UNL1        0.0174
     18 C         -31.3867   -3.8643   30.9357 C.3     1  UNL1        0.0029
     19 C         -27.0119   -1.3142   31.1778 C.3     1  UNL1        0.0177
@<TRIPOS>BOND
     1     1     8    1
     2     8     9    1
     3     5    10    1
     4    10    11    1
     5    10    12    1
     6    10    13    1
     7     9    14    1
     8     9    15    1
     9    16    18    1
    10    17    18    1
    11     8    19    1
    12     1     2    1
    13    14    17    1
    14    16    15    1
    15     2     3   ar
    16     3     4   ar
    17     4     5   ar
    18     5     6   ar
    19     6     7   ar
    20     7     2   ar
