@<TRIPOS>MOLECULE
No_3663-gen_results/8p0m/2024-11-26-14-13-15/
 8 8 0 0 0
SMALL
GASTEIGER

@<TRIPOS>ATOM
      1 C         -28.0162   -0.8135   28.8779 C.1     1  UNL1        0.1246
      2 C         -27.0636   -0.1189   28.6079 C.2     1  UNL1        0.0304
      3 C         -25.7647   -0.3897   29.0360 C.3     1  UNL1        0.0329
      4 C         -24.5516    0.4058   28.7646 C.3     1  UNL1        0.0051
      5 C         -24.6957    1.4480   27.7988 C.3     1  UNL1        0.0007
      6 C         -25.9755    1.7250   27.3077 C.3     1  UNL1        0.0051
      7 C         -27.0718    1.0134   27.6535 C.3     1  UNL1        0.0329
      8 O         -27.9267   -1.8420   29.7139 O.2     1  UNL1       -0.2318
@<TRIPOS>BOND
     1     1     2    2
     2     2     3    1
     3     3     4    1
     4     4     5    1
     5     5     6    1
     6     2     7    1
     7     6     7    1
     8     1     8    2
