@<TRIPOS>MOLECULE
No_3664-gen_results/8p0m/2024-11-26-14-13-15/
 21 22 0 0 0
SMALL
GASTEIGER

@<TRIPOS>ATOM
      1 C         -28.0162   -0.8135   28.8779 C.3     1  UNL1        0.1342
      2 C         -27.0636   -0.1189   28.6079 C.ar    1  UNL1        0.0052
      3 C         -27.0010    0.6913   27.4910 C.ar    1  UNL1        0.0787
      4 C         -25.8548    1.4825   27.0830 C.ar    1  UNL1        0.0208
      5 C         -24.6901    1.4526   27.8807 C.ar    1  UNL1        0.0481
      6 C         -24.7379    0.6010   29.0416 C.ar    1  UNL1        0.0143
      7 C         -25.8234   -0.1688   29.3887 C.ar    1  UNL1       -0.0011
      8 N         -28.7568   -0.5479   30.0191 N.am    1  UNL1       -0.2137
      9 C         -28.9317    0.3890   30.5031 C.1     1  UNL1        0.0114
     10 C         -29.3215    1.0528   31.2089 C.1     1  UNL1       -0.0440
     11 N         -23.6003    2.1933   27.6098 N.pl3   1  UNL1       -0.3041
     12 C         -23.4165    2.6588   26.3214 C.3     1  UNL1        0.1122
     13 C         -22.3559    2.0189   28.3045 C.3     1  UNL1        0.1122
     14 C         -29.3109   -1.8989   30.6093 C.2     1  UNL1        0.2408
     15 C         -30.1744    0.5118   32.3436 C.2     1  UNL1        0.0468
     16 C         -30.4253   -0.8610   32.5185 C.2     1  UNL1       -0.0076
     17 C         -30.0563   -1.9077   31.8030 C.3     1  UNL1        0.1129
     18 O         -28.9771   -2.9444   30.0966 O.2     1  UNL1       -0.2736
     19 C         -28.2611    0.8027   26.8279 C.2     1  UNL1        0.3875
     20 O         -29.1496    1.3651   27.2335 O.co2   1  UNL1       -0.2406
     21 O         -28.3366    0.0405   25.6398 O.co2   1  UNL1       -0.2406
@<TRIPOS>BOND
     1     1     2    1
     2     1     8    1
     3     8     9    1
     4     9    10    3
     5     5    11    1
     6    11    12    1
     7    11    13    1
     8     8    14   am
     9    10    15    1
    10    15    16    2
    11    14    17    1
    12    16    17    1
    13    14    18    2
    14     3    19    1
    15    19    20   ar
    16    19    21   ar
    17     2     3   ar
    18     3     4   ar
    19     4     5   ar
    20     5     6   ar
    21     6     7   ar
    22     7     2   ar
