@<TRIPOS>MOLECULE
No_3665-gen_results/8p0m/2024-11-26-14-13-15/
 8 8 0 0 0
SMALL
GASTEIGER

@<TRIPOS>ATOM
      1 C         -28.0162   -0.8135   28.8779 C.ar    1  UNL1        0.0123
      2 C         -27.0636   -0.1189   28.6079 C.ar    1  UNL1        0.0123
      3 C         -25.7647   -0.3897   29.0360 C.ar    1  UNL1        0.0577
      4 C         -25.5296   -1.5302   29.9014 C.ar    1  UNL1        0.0123
      5 C         -26.6888   -2.2893   30.1810 C.ar    1  UNL1        0.0123
      6 C         -27.8727   -1.9508   29.7373 C.ar    1  UNL1        0.0577
      7 CL        -24.3819    0.5593   28.6789 Cl      1  UNL1       -0.0822
      8 CL        -29.2227   -2.9314   30.2023 Cl      1  UNL1       -0.0822
@<TRIPOS>BOND
     1     3     7    1
     2     6     8    1
     3     1     2   ar
     4     2     3   ar
     5     3     4   ar
     6     4     5   ar
     7     5     6   ar
     8     6     1   ar
