@<TRIPOS>MOLECULE
No_3666-gen_results/8p0m/2024-11-26-14-13-15/
 15 16 0 0 0
SMALL
GASTEIGER

@<TRIPOS>ATOM
      1 C         -28.0162   -0.8135   28.8779 C.ar    1  UNL1        0.0411
      2 C         -27.0636   -0.1190   28.6079 C.ar    1  UNL1        0.1424
      3 C         -25.7647   -0.3897   29.0360 C.ar    1  UNL1        0.0453
      4 C         -25.5296   -1.5302   29.9014 C.ar    1  UNL1        0.0046
      5 C         -26.6888   -2.2893   30.1810 C.ar    1  UNL1        0.0116
      6 C         -27.8727   -1.9508   29.7373 C.ar    1  UNL1        0.0599
      7 C         -24.5491    0.4100   28.7341 C.ar    1  UNL1        0.0880
      8 N         -24.4645    1.1820   27.7527 N.ar    1  UNL1       -0.2110
      9 C         -23.3426    1.7966   27.4071 C.ar    1  UNL1        0.2566
     10 N         -22.2034    1.5776   28.0955 N.ar    1  UNL1       -0.2096
     11 C         -23.2828    0.2005   29.4313 C.ar    1  UNL1        0.0400
     12 C         -22.1443    0.8344   29.0920 C.ar    1  UNL1        0.1035
     13 N         -23.3378    2.7000   26.3579 N.pl3   1  UNL1       -0.0860
     14 CL        -29.2405   -2.9022   30.1836 Cl      1  UNL1       -0.0822
     15 F         -27.1562    0.9555   27.7584 F       1  UNL1       -0.2041
@<TRIPOS>BOND
     1     3     7    1
     2     9    13    1
     3     6    14    1
     4     2    15    1
     5     7     8   ar
     6     8     9   ar
     7     9    10   ar
     8    10    12   ar
     9    12    11   ar
    10    11     7   ar
    11     1     2   ar
    12     2     3   ar
    13     3     4   ar
    14     4     5   ar
    15     5     6   ar
    16     6     1   ar
