@<TRIPOS>MOLECULE
No_3667-gen_results/8p0m/2024-11-26-14-13-15/
 21 23 0 0 0
SMALL
GASTEIGER

@<TRIPOS>ATOM
      1 C         -28.0162   -0.8135   28.8779 C.ar    1  UNL1       -0.0043
      2 C         -28.4690   -0.7850   29.8287 C.ar    1  UNL1       -0.0003
      3 C         -27.1356    0.2359   28.5352 C.ar    1  UNL1       -0.0222
      4 C         -26.8745    1.2825   29.3982 C.ar    1  UNL1       -0.0043
      5 C         -28.3613    0.1987   30.9244 C.ar    1  UNL1       -0.0000
      6 C         -27.5277    1.2234   30.6356 C.ar    1  UNL1       -0.0003
      7 C         -26.3987    0.2949   27.2279 C.3     1  UNL1        0.0265
      8 C         -25.0392    0.2356   27.3538 C.3     1  UNL1        0.0083
      9 C         -26.8419    1.2723   26.2572 C.3     1  UNL1        0.0270
     10 C         -24.2362    1.2186   27.7916 C.3     1  UNL1        0.0441
     11 C         -24.4862    2.4106   26.8550 C.3     1  UNL1        0.0040
     12 C         -25.3981    2.5711   26.1549 C.3     1  UNL1        0.0048
     13 C         -22.9340    1.1167   28.3722 C.3     1  UNL1        0.2166
     14 F         -22.0915    1.8693   27.9399 F       1  UNL1       -0.2248
     15 BR        -22.6222   -0.0284   29.7128 Br      1  UNL1       -0.0430
     16 C         -27.1321    0.9075   25.2800 C.2     1  UNL1        0.0099
     17 C         -26.9790   -0.3991   24.8496 C.1     1  UNL1       -0.0168
     18 N         -27.6341   -0.7777   23.6243 N.2     1  UNL1       -0.2290
     19 C         -28.0049    1.5459   24.2757 C.3     1  UNL1        0.0583
     20 C         -28.3677    0.3801   23.3898 C.3     1  UNL1        0.1404
     21 C         -27.8689    2.3370   26.9369 C.3     1  UNL1        0.0050
@<TRIPOS>BOND
     1     3     7    1
     2     7     8    1
     3     7     9    1
     4    10    11    1
     5     9    12    1
     6    10    13    1
     7    13    14    1
     8    13    15    1
     9     9    16    1
    10    16    17    2
    11    17    18    2
    12    16    19    1
    13    18    20    1
    14    19    20    1
    15     9    21    1
    16     8    10    1
    17    11    12    1
    18     1     2   ar
    19     2     5   ar
    20     5     6   ar
    21     6     4   ar
    22     4     3   ar
    23     3     1   ar
