@<TRIPOS>MOLECULE
No_3668-gen_results/8p0m/2024-11-26-14-13-15/
 21 22 0 0 0
SMALL
GASTEIGER

@<TRIPOS>ATOM
      1 C         -28.0162   -0.8135   28.8779 C.ar    1  UNL1        0.0922
      2 C         -27.0636   -0.1189   28.6079 C.ar    1  UNL1        0.0145
      3 C         -26.9716    0.7139   27.5060 C.ar    1  UNL1        0.0011
      4 C         -28.1053    0.7744   26.6421 C.ar    1  UNL1        0.0070
      5 C         -29.2041    0.1179   27.0477 C.ar    1  UNL1        0.1068
      6 C         -29.2127   -0.6088   28.1281 C.ar    1  UNL1        0.1632
      7 C         -25.7106    1.4519   27.1380 C.ar    1  UNL1        0.0023
      8 C         -25.3772    2.0455   26.1737 C.ar    1  UNL1        0.0001
      9 C         -24.0750    2.7193   25.9782 C.ar    1  UNL1        0.0023
     10 C         -23.0770    2.4988   26.9483 C.ar    1  UNL1        0.0296
     11 C         -23.3639    1.6220   28.0103 C.ar    1  UNL1        0.1401
     12 C         -24.6236    1.0878   28.1748 C.ar    1  UNL1        0.0296
     13 F         -22.3822    1.4672   28.8736 F       1  UNL1       -0.2042
     14 C         -30.4150    0.2562   26.1887 C.3     1  UNL1        0.4214
     15 F         -30.9997   -0.7806   26.1038 F       1  UNL1       -0.1657
     16 F         -31.2289    1.2041   26.6644 F       1  UNL1       -0.1657
     17 F         -30.0888    0.6081   24.9253 F       1  UNL1       -0.1657
     18 CL        -28.1346   -1.7732   30.3079 Cl      1  UNL1       -0.0791
     19 O         -30.3320   -1.2759   28.4738 O.3     1  UNL1       -0.4157
     20 C         -30.4292   -1.7719   29.7692 C.2     1  UNL1        0.4230
     21 O         -31.6664   -2.2290   30.0552 O.2     1  UNL1       -0.2371
@<TRIPOS>BOND
     1     3     7    1
     2    11    13    1
     3     5    14    1
     4    14    15    1
     5    14    16    1
     6    14    17    1
     7     1    18    1
     8     6    19    1
     9    19    20    1
    10    20    21    2
    11     1     2   ar
    12     2     3   ar
    13     3     4   ar
    14     4     5   ar
    15     5     6   ar
    16     6     1   ar
    17     7     8   ar
    18     8     9   ar
    19     9    10   ar
    20    10    11   ar
    21    11    12   ar
    22    12     7   ar
