@<TRIPOS>MOLECULE
No_3669-gen_results/8p0m/2024-11-26-14-13-15/
 17 18 0 0 0
SMALL
GASTEIGER

@<TRIPOS>ATOM
      1 C         -28.0162   -0.8135   28.8779 C.ar    1  UNL1        0.0111
      2 C         -27.0636   -0.1190   28.6079 C.ar    1  UNL1        0.0577
      3 C         -26.9287    1.1713   29.0083 C.ar    1  UNL1        0.0111
      4 C         -27.9560    1.7411   29.7840 C.ar    1  UNL1       -0.0018
      5 C         -29.0569   -0.3271   29.7466 C.ar    1  UNL1       -0.0018
      6 C         -28.9828    0.9722   30.1516 C.ar    1  UNL1       -0.0043
      7 CL        -25.7249   -0.7275   27.6731 Cl      1  UNL1       -0.0822
      8 C         -30.0821    1.5088   31.0097 C.3     1  UNL1        0.0954
      9 N         -30.8731    2.1086   30.7318 N.pl3   1  UNL1       -0.3026
     10 C         -30.9449    2.7715   29.5850 C.2     1  UNL1        0.0587
     11 C         -32.1229    3.6349   29.2996 C.2     1  UNL1        0.0125
     12 C         -32.2623    2.1075   31.2073 C.3     1  UNL1        0.1171
     13 C         -32.9386    3.0856   30.4032 C.3     1  UNL1        0.1353
     14 C         -29.1142    2.2002   32.1166 C.3     1  UNL1        0.0263
     15 N         -33.6186    4.1516   31.1576 N.pl3   1  UNL1       -0.2318
     16 C         -34.7647    4.3925   31.3146 C.2     1  UNL1        0.0805
     17 C         -35.2176    5.5198   32.1447 C.2     1  UNL1        0.0188
@<TRIPOS>BOND
     1     2     7    1
     2     6     8    1
     3     8     9    1
     4     9    10    1
     5    10    11    2
     6     9    12    1
     7    11    13    1
     8    12    13    1
     9     8    14    1
    10    13    15    1
    11    15    16    1
    12    16    17    2
    13     1     2   ar
    14     2     3   ar
    15     3     4   ar
    16     4     6   ar
    17     6     5   ar
    18     5     1   ar
