@<TRIPOS>MOLECULE
No_367-gen_results/8p0m/2024-11-26-14-13-15/
 16 17 0 0 0
SMALL
GASTEIGER

@<TRIPOS>ATOM
      1 C         -28.0162   -0.8135   28.8779 C.ar    1  UNL1        0.0014
      2 C         -28.4690   -0.7850   29.8287 C.ar    1  UNL1        0.0107
      3 C         -27.0871    0.2903   28.6377 C.ar    1  UNL1        0.0387
      4 C         -26.7676    1.0274   29.4716 C.ar    1  UNL1        0.0032
      5 C         -29.4593   -1.9217   30.2024 C.3     1  UNL1        0.2086
      6 C         -27.3079    1.0334   30.7802 C.ar    1  UNL1       -0.0001
      7 C         -28.2256   -0.0215   31.0470 C.ar    1  UNL1       -0.0017
      8 O         -29.9014   -1.8474   31.4731 O.3     1  UNL1       -0.2152
      9 C         -26.3741    0.3458   27.2383 C.2     1  UNL1        0.1955
     10 C         -25.2296    0.9112   27.0527 C.ar    1  UNL1        0.0390
     11 C         -24.6180    1.2356   25.9427 C.ar    1  UNL1        0.0032
     12 C         -23.3481    1.9119   25.7990 C.ar    1  UNL1        0.0001
     13 C         -22.6965    2.1874   27.0566 C.ar    1  UNL1        0.0000
     14 C         -24.2388    1.3270   28.1474 C.ar    1  UNL1        0.0032
     15 C         -23.1449    1.7097   28.0710 C.ar    1  UNL1        0.0001
     16 O         -27.0236   -0.0621   26.2249 O.2     1  UNL1       -0.2866
@<TRIPOS>BOND
     1     2     5    1
     2     5     8    1
     3     3     9    1
     4     9    10    1
     5     9    16    2
     6    10    11   ar
     7    11    12   ar
     8    12    13   ar
     9    13    15   ar
    10    15    14   ar
    11    14    10   ar
    12     1     2   ar
    13     2     7   ar
    14     7     6   ar
    15     6     4   ar
    16     4     3   ar
    17     3     1   ar
