@<TRIPOS>MOLECULE
No_3670-gen_results/8p0m/2024-11-26-14-13-15/
 17 19 0 0 0
SMALL
GASTEIGER

@<TRIPOS>ATOM
      1 C         -28.0162   -0.8135   28.8779 C.ar    1  UNL1        0.0192
      2 C         -27.0636   -0.1189   28.6079 C.ar    1  UNL1        0.0015
      3 C         -27.0010    0.6913   27.4910 C.ar    1  UNL1        0.0001
      4 C         -28.1373    0.7363   26.6350 C.ar    1  UNL1        0.0027
      5 C         -29.2360    0.0765   27.0690 C.ar    1  UNL1        0.0313
      6 C         -29.2177   -0.6429   28.1747 C.ar    1  UNL1        0.0842
      7 C         -30.4152    0.1590   26.1820 C.ar    1  UNL1        0.0625
      8 N         -31.3727   -0.5052   26.4854 N.ar    1  UNL1       -0.2283
      9 C         -30.3727    0.9171   24.9425 C.3     1  UNL1        0.0522
     10 C         -25.8844   -0.2978   29.5952 C.ar    1  UNL1        0.0000
     11 C         -25.1393    0.6952   30.0252 C.ar    1  UNL1        0.0000
     12 C         -23.9319    0.4985   30.7924 C.ar    1  UNL1        0.0000
     13 C         -23.6150   -0.8413   31.1403 C.ar    1  UNL1        0.0000
     14 C         -25.4053   -1.6375   29.8692 C.ar    1  UNL1        0.0000
     15 C         -24.3115   -1.8524   30.6230 C.ar    1  UNL1        0.0000
     16 C         -31.6974   -1.1749   27.4588 C.ar    1  UNL1        0.1985
     17 N         -30.7214   -1.2639   28.4082 N.ar    1  UNL1       -0.2240
@<TRIPOS>BOND
     1     7     9    1
     2     2    10    1
     3     1     2   ar
     4     2     3   ar
     5     3     4   ar
     6     4     5   ar
     7     6     1   ar
     8     5     6   ar
     9     6    17   ar
    10    17    16   ar
    11    16     8   ar
    12     8     7   ar
    13     7     5   ar
    14    10    11   ar
    15    11    12   ar
    16    12    13   ar
    17    13    15   ar
    18    15    14   ar
    19    14    10   ar
