@<TRIPOS>MOLECULE
No_3671-gen_results/8p0m/2024-11-26-14-13-15/
 27 30 0 0 0
SMALL
GASTEIGER

@<TRIPOS>ATOM
      1 C         -28.0162   -0.8135   28.8779 C.ar    1  UNL1        0.1362
      2 C         -28.4690   -0.7850   29.8287 C.ar    1  UNL1        0.0293
      3 C         -26.5042   -0.7777   28.8766 C.ar    1  UNL1        0.0076
      4 C         -25.6540   -0.6597   27.7191 C.3     1  UNL1        0.0547
      5 C         -27.9180   -0.9374   31.1824 C.ar    1  UNL1        0.0020
      6 C         -26.5423   -0.9399   31.2606 C.ar    1  UNL1       -0.0025
      7 C         -25.7832   -0.8935   30.1201 C.ar    1  UNL1       -0.0000
      8 C         -25.9259    0.2819   26.7445 C.2     1  UNL1       -0.0156
      9 C         -24.9904    0.6776   25.8676 C.2     1  UNL1       -0.0039
     10 C         -24.1885    1.6080   25.8479 C.2     1  UNL1       -0.0003
     11 C         -23.3296    2.0084   26.8161 C.2     1  UNL1       -0.0000
     12 C         -22.6795    1.5091   27.7087 C.2     1  UNL1       -0.0000
     13 C         -23.2732    0.8124   28.6634 C.2     1  UNL1       -0.0003
     14 C         -22.3745    0.2660   29.7630 C.2     1  UNL1       -0.0023
     15 C         -23.1040   -0.5037   30.7060 C.2     1  UNL1        0.0028
     16 C         -27.1990    0.9315   26.6659 C.ar    1  UNL1        0.0238
     17 C         -27.3757    1.9794   25.9855 C.ar    1  UNL1        0.0019
     18 C         -28.7125    2.6140   25.8761 C.ar    1  UNL1        0.0001
     19 C         -29.7506    2.0493   26.4634 C.ar    1  UNL1        0.0023
     20 C         -29.5658    0.8772   27.1233 C.ar    1  UNL1        0.0296
     21 C         -28.3604    0.3156   27.2873 C.ar    1  UNL1        0.1398
     22 F         -28.4040   -0.8826   26.6406 F       1  UNL1       -0.2042
     23 F         -28.0484   -1.9262   28.3294 F       1  UNL1       -0.2045
     24 C         -22.0873   -0.9153   31.7801 C.2     1  UNL1        0.0151
     25 C         -22.8725   -1.5677   32.8405 C.2     1  UNL1        0.0805
     26 N         -24.2283   -1.4491   32.7473 N.pl3   1  UNL1       -0.2292
     27 C         -24.3264   -0.6062   31.2211 C.3     1  UNL1        0.1367
@<TRIPOS>BOND
     1     3     4    1
     2     4     8    1
     3     8     9    2
     4     9    10    1
     5    10    11    2
     6    11    12    1
     7    12    13    2
     8    13    14    1
     9    14    15    2
    10     8    16    1
    11    21    22    1
    12     1    23    1
    13    15    24    1
    14    24    25    2
    15    25    26    1
    16     7    27    1
    17    15    27    1
    18    26    27    1
    19     1     2   ar
    20     2     5   ar
    21     5     6   ar
    22     6     7   ar
    23     7     3   ar
    24     3     1   ar
    25    16    17   ar
    26    17    18   ar
    27    18    19   ar
    28    19    20   ar
    29    20    21   ar
    30    21    16   ar
