@<TRIPOS>MOLECULE
No_3672-gen_results/8p0m/2024-11-26-14-13-15/
 11 11 0 0 0
SMALL
GASTEIGER

@<TRIPOS>ATOM
      1 F         -28.0727   -1.2542   28.5316 F       1  UNL1       -0.1697
      2 C         -27.3591   -0.3792   28.7224 C.3     1  UNL1        0.4017
      3 F         -27.7576    0.4972   29.4008 F       1  UNL1       -0.1697
      4 C         -26.7330    0.0958   27.4286 C.3     1  UNL1        0.1297
      5 F         -26.2524   -0.9752   29.3977 F       1  UNL1       -0.1697
      6 C         -25.3766    0.4068   27.4015 C.ar    1  UNL1       -0.0137
      7 C         -24.7467    1.2807   26.4249 C.ar    1  UNL1       -0.0040
      8 C         -23.3585    1.5669   26.5601 C.ar    1  UNL1       -0.0003
      9 C         -22.5786    1.0420   27.5992 C.ar    1  UNL1       -0.0000
     10 C         -23.2112    0.1529   28.5133 C.ar    1  UNL1       -0.0003
     11 C         -24.5470   -0.1642   28.4114 C.ar    1  UNL1       -0.0040
@<TRIPOS>BOND
     1     1     2    1
     2     2     3    1
     3     2     4    1
     4     2     5    1
     5     4     6    1
     6     6     7   ar
     7     7     8   ar
     8     8     9   ar
     9     9    10   ar
    10    10    11   ar
    11    11     6   ar
