@<TRIPOS>MOLECULE
No_3673-gen_results/8p0m/2024-11-26-14-13-15/
 17 18 0 0 0
SMALL
GASTEIGER

@<TRIPOS>ATOM
      1 O         -28.1229   -1.3353   28.4874 O.2     1  UNL1       -0.2742
      2 C         -27.4806   -0.4044   28.7094 C.2     1  UNL1        0.2330
      3 C         -26.3804   -0.0867   27.9394 C.3     1  UNL1        0.0989
      4 N         -27.6664    0.4468   29.8988 N.am    1  UNL1       -0.2558
      5 C         -25.1773   -0.4388   28.3946 C.ar    1  UNL1       -0.0178
      6 C         -26.5259    0.6036   26.6867 C.3     1  UNL1        0.0138
      7 C         -24.8099   -1.1180   29.5646 C.ar    1  UNL1       -0.0041
      8 C         -28.7694    0.1525   30.7242 C.3     1  UNL1        0.1201
      9 C         -23.5473   -1.4995   29.8975 C.ar    1  UNL1       -0.0003
     10 C         -22.5110   -0.8915   29.1449 C.ar    1  UNL1       -0.0003
     11 C         -22.7033   -0.0226   28.0922 C.ar    1  UNL1       -0.0046
     12 C         -23.9963    0.1988   27.7089 C.ar    1  UNL1       -0.0257
     13 C         -24.2549    1.0156   26.6080 C.3     1  UNL1        0.0261
     14 C         -25.5034    1.2281   26.0889 C.3     1  UNL1        0.0055
     15 C         -26.8405    1.5334   30.2058 C.2     1  UNL1        0.0630
     16 C         -26.0899    1.4237   31.2152 C.2     1  UNL1       -0.0097
     17 C         -26.4493    1.2202   32.4615 C.3     1  UNL1        0.0321
@<TRIPOS>BOND
     1     1     2    2
     2     2     3    1
     3     2     4   am
     4     3     5    1
     5     3     6    1
     6     4     8    1
     7    12    13    1
     8     6    14    1
     9    13    14    1
    10     4    15    1
    11    15    16    2
    12    16    17    1
    13     5     7   ar
    14     7     9   ar
    15     9    10   ar
    16    10    11   ar
    17    11    12   ar
    18    12     5   ar
