@<TRIPOS>MOLECULE
No_3674-gen_results/8p0m/2024-11-26-14-13-15/
 21 23 0 0 0
SMALL
GASTEIGER

@<TRIPOS>ATOM
      1 C         -28.0162   -0.8135   28.8779 C.ar    1  UNL1       -0.0003
      2 C         -28.4690   -0.7850   29.8287 C.ar    1  UNL1       -0.0000
      3 C         -26.5042   -0.7777   28.8766 C.ar    1  UNL1       -0.0026
      4 C         -25.8103   -0.8531   30.1028 C.ar    1  UNL1       -0.0024
      5 C         -27.9906   -0.8916   31.2257 C.ar    1  UNL1       -0.0003
      6 C         -26.6042   -0.8676   31.2652 C.ar    1  UNL1       -0.0026
      7 C         -24.3894   -0.8049   30.1638 C.3     1  UNL1        0.1178
      8 N         -23.8670    0.4584   29.9140 N.pl3   1  UNL1       -0.3018
      9 C         -22.6980    0.6174   29.2056 C.3     1  UNL1        0.1110
     10 C         -24.4125    1.5972   30.4969 C.ar    1  UNL1        0.0525
     11 C         -22.7120    1.1303   27.9340 C.3     1  UNL1        0.0972
     12 C         -24.7585    1.7940   31.6254 C.ar    1  UNL1        0.0147
     13 C         -25.2892    3.1039   32.1380 C.ar    1  UNL1        0.0013
     14 C         -25.3782    4.1052   31.2009 C.ar    1  UNL1        0.0002
     15 C         -25.1628    3.8327   29.8682 C.ar    1  UNL1        0.0058
     16 C         -24.5742    2.6748   29.4718 C.ar    1  UNL1        0.0683
     17 C         -24.0081    2.6280   28.1545 C.2     1  UNL1        0.2659
     18 C         -21.6206    1.9966   27.4346 C.3     1  UNL1        0.0235
     19 O         -24.2196    3.2102   27.1977 O.2     1  UNL1       -0.2683
     20 C         -23.5194    0.5182   26.8951 C.3     1  UNL1        0.0235
     21 N         -23.3929    1.8724   27.7711 N.am    1  UNL1       -0.2033
@<TRIPOS>BOND
     1     4     7    1
     2     7     8    1
     3     8     9    1
     4     8    10    1
     5     9    11    1
     6    16    17    1
     7    11    18    1
     8    17    19    2
     9    11    20    1
    10    11    21    1
    11    17    21   am
    12     1     2   ar
    13     2     5   ar
    14     5     6   ar
    15     6     4   ar
    16     4     3   ar
    17     3     1   ar
    18    10    12   ar
    19    12    13   ar
    20    13    14   ar
    21    14    15   ar
    22    15    16   ar
    23    16    10   ar
