@<TRIPOS>MOLECULE
No_3677-gen_results/8p0m/2024-11-26-14-13-15/
 19 21 0 0 0
SMALL
GASTEIGER

@<TRIPOS>ATOM
      1 C         -28.0162   -0.8135   28.8779 C.ar    1  UNL1        0.0000
      2 C         -28.4690   -0.7850   29.8287 C.ar    1  UNL1        0.0000
      3 C         -27.1356    0.2359   28.5352 C.ar    1  UNL1        0.0002
      4 C         -26.8745    1.2825   29.3982 C.ar    1  UNL1        0.0000
      5 C         -27.5070    1.2380   30.6295 C.ar    1  UNL1        0.0000
      6 C         -28.3293    0.1745   30.9350 C.ar    1  UNL1        0.0000
      7 C         -26.4077    0.3070   27.2259 C.ar    1  UNL1        0.0064
      8 C         -25.0105    0.3902   27.3228 C.ar    1  UNL1        0.0002
      9 C         -27.0459    0.3288   26.0049 C.ar    1  UNL1        0.0798
     10 C         -26.2970    0.2704   24.8501 C.ar    1  UNL1        0.0066
     11 C         -24.2723    0.2925   28.5637 C.ar    1  UNL1        0.0000
     12 C         -22.9366    0.5915   28.5060 C.ar    1  UNL1        0.0000
     13 C         -24.8848    0.3375   24.8953 C.ar    1  UNL1        0.0002
     14 C         -24.2446    0.3871   26.1037 C.ar    1  UNL1        0.0000
     15 C         -22.3894    1.3977   27.5369 C.ar    1  UNL1        0.0000
     16 C         -22.9546    1.0838   26.2240 C.ar    1  UNL1        0.0000
     17 C         -28.4853    0.1474   25.9320 C.2     1  UNL1        0.3878
     18 O         -29.0174    1.0856   25.6192 O.co2   1  UNL1       -0.2406
     19 O         -29.0753   -0.9106   26.2640 O.co2   1  UNL1       -0.2406
@<TRIPOS>BOND
     1     3     7    1
     2     9    17    1
     3    17    18   ar
     4    17    19   ar
     5     7     8   ar
     6    14    13   ar
     7    13    10   ar
     8    10     9   ar
     9     9     7   ar
    10     1     2   ar
    11     2     6   ar
    12     6     5   ar
    13     5     4   ar
    14     4     3   ar
    15     3     1   ar
    16     8    11   ar
    17    11    12   ar
    18    12    15   ar
    19    15    16   ar
    20    16    14   ar
    21    14     8   ar
