@<TRIPOS>MOLECULE
No_3678-gen_results/8p0m/2024-11-26-14-13-15/
 23 25 0 0 0
SMALL
GASTEIGER

@<TRIPOS>ATOM
      1 C         -28.0162   -0.8135   28.8779 C.ar    1  UNL1        0.0054
      2 C         -27.0636   -0.1190   28.6079 C.ar    1  UNL1        0.0115
      3 C         -25.7647   -0.3897   29.0360 C.ar    1  UNL1        0.0577
      4 C         -25.5296   -1.5302   29.9014 C.ar    1  UNL1        0.0115
      5 C         -26.6888   -2.2893   30.1810 C.ar    1  UNL1        0.0054
      6 C         -27.8727   -1.9508   29.7373 C.ar    1  UNL1        0.0551
      7 CL        -24.3819    0.5593   28.6789 Cl      1  UNL1       -0.0822
      8 C         -29.0263   -2.8156   30.1581 C.2     1  UNL1        0.2651
      9 N         -30.2057   -2.2721   30.2644 N.am    1  UNL1       -0.1968
     10 O         -28.8635   -4.0272   30.4461 O.2     1  UNL1       -0.2684
     11 C         -31.3783   -3.0558   30.6349 C.3     1  UNL1        0.1418
     12 C         -32.4378   -2.7266   29.9728 C.ar    1  UNL1       -0.0006
     13 C         -33.1791   -3.2429   29.3682 C.ar    1  UNL1       -0.0026
     14 C         -34.3521   -2.7726   28.5277 C.ar    1  UNL1       -0.0003
     15 C         -34.5320   -1.3959   28.5438 C.ar    1  UNL1       -0.0000
     16 C         -33.6834   -0.6034   29.2131 C.ar    1  UNL1       -0.0003
     17 C         -32.6122   -1.1250   29.9013 C.ar    1  UNL1       -0.0026
     18 C         -33.8800    0.8760   29.2081 C.ar    1  UNL1       -0.0000
     19 C         -33.4458    1.8188   29.1257 C.ar    1  UNL1       -0.0000
     20 C         -33.9436    3.1609   29.2205 C.ar    1  UNL1       -0.0000
     21 C         -35.3123    3.2267   29.3122 C.ar    1  UNL1        0.0000
     22 C         -36.0257    2.1082   29.3916 C.ar    1  UNL1       -0.0000
     23 C         -35.4628    0.8952   29.3885 C.ar    1  UNL1       -0.0000
@<TRIPOS>BOND
     1     3     7    1
     2     6     8    1
     3     8     9   am
     4     8    10    2
     5     9    11    1
     6    11    12    1
     7    16    18    1
     8    12    13   ar
     9    13    14   ar
    10    14    15   ar
    11    15    16   ar
    12    16    17   ar
    13    17    12   ar
    14     1     2   ar
    15     2     3   ar
    16     3     4   ar
    17     4     5   ar
    18     5     6   ar
    19     6     1   ar
    20    18    19   ar
    21    19    20   ar
    22    20    21   ar
    23    21    22   ar
    24    22    23   ar
    25    23    18   ar
