@<TRIPOS>MOLECULE
No_3679-gen_results/8p0m/2024-11-26-14-13-15/
 22 22 0 0 0
SMALL
GASTEIGER

@<TRIPOS>ATOM
      1 C         -28.0162   -0.8135   28.8779 C.2     1  UNL1        0.2554
      2 C         -27.0636   -0.1189   28.6079 C.ar    1  UNL1        0.0603
      3 C         -26.9287    1.1713   29.0083 C.ar    1  UNL1        0.0841
      4 C         -25.7702    2.0341   28.6884 C.ar    1  UNL1        0.0106
      5 C         -24.7141    1.4431   27.9188 C.ar    1  UNL1        0.0716
      6 C         -24.8590    0.0783   27.5836 C.ar    1  UNL1        0.0040
      7 C         -25.9647   -0.6606   27.9164 C.ar    1  UNL1        0.0047
      8 N         -27.9821   -1.6367   30.0748 N.am    1  UNL1       -0.2156
      9 O         -29.0318   -0.7819   28.3705 O.2     1  UNL1       -0.2695
     10 C         -26.7801   -1.8128   30.9272 C.3     1  UNL1        0.1236
     11 C         -29.0920   -2.4628   30.4942 C.2     1  UNL1        0.3352
     12 C         -23.5119    2.1523   27.5469 C.3     1  UNL1        0.4186
     13 F         -23.2669    2.8961   28.1817 F       1  UNL1       -0.1659
     14 F         -23.6728    2.6178   26.2259 F       1  UNL1       -0.1659
     15 F         -22.4493    1.2595   27.3559 F       1  UNL1       -0.1659
     16 C         -29.6526   -2.2011   31.7245 C.2     1  UNL1        0.4408
     17 O         -29.0724   -1.2852   32.2405 O.co2   1  UNL1       -0.2354
     18 O         -30.6323   -2.8804   32.0432 O.co2   1  UNL1       -0.2354
     19 O         -29.2569   -3.5054   29.7991 O.2     1  UNL1       -0.2622
     20 C         -27.9146    1.9730   29.8176 C.2     1  UNL1        0.3879
     21 O         -27.8306    2.3495   30.7402 O.co2   1  UNL1       -0.2406
     22 O         -29.0690    2.0770   29.0486 O.co2   1  UNL1       -0.2406
@<TRIPOS>BOND
     1     1     2    1
     2     1     8   am
     3     1     9    2
     4     8    10    1
     5     8    11   am
     6     5    12    1
     7    12    13    1
     8    12    14    1
     9    12    15    1
    10    11    16    1
    11    16    17   ar
    12    16    18   ar
    13    11    19    2
    14     3    20    1
    15    20    21   ar
    16    20    22   ar
    17     2     3   ar
    18     3     4   ar
    19     4     5   ar
    20     5     6   ar
    21     6     7   ar
    22     7     2   ar
