@<TRIPOS>MOLECULE
No_368-gen_results/8p0m/2024-11-26-14-13-15/
 10 9 0 0 0
SMALL
GASTEIGER

@<TRIPOS>ATOM
      1 C         -28.0162   -0.8135   28.8779 C.3     1  UNL1        0.3546
      2 C         -27.0636   -0.1189   28.6079 C.3     1  UNL1        0.2492
      3 F         -27.0425    0.2440   27.4277 F       1  UNL1       -0.2263
      4 F         -29.0070   -0.5324   28.2228 F       1  UNL1       -0.1949
      5 F         -28.3547   -0.6248   30.2851 F       1  UNL1       -0.1949
      6 C         -25.7408   -0.0436   29.3160 C.2     1  UNL1        0.0143
      7 C         -25.6004   -0.0576   30.4516 C.2     1  UNL1       -0.0020
      8 C         -24.2584    0.1424   31.0966 C.2     1  UNL1       -0.0048
      9 C         -23.1769    0.3078   30.2544 C.2     1  UNL1       -0.0258
     10 C         -23.3587    0.3424   28.9024 C.3     1  UNL1        0.0307
@<TRIPOS>BOND
     1     1     2    1
     2     2     3    1
     3     1     4    1
     4     1     5    1
     5     2     6    1
     6     6     7    2
     7     7     8    1
     8     8     9    2
     9     9    10    1
