@<TRIPOS>MOLECULE
No_3680-gen_results/8p0m/2024-11-26-14-13-15/
 22 23 0 0 0
SMALL
GASTEIGER

@<TRIPOS>ATOM
      1 C         -28.0162   -0.8135   28.8779 C.ar    1  UNL1        0.0369
      2 C         -27.0636   -0.1189   28.6079 C.ar    1  UNL1        0.0030
      3 C         -25.7923   -0.4302   29.0761 C.ar    1  UNL1        0.0002
      4 C         -25.5756   -1.5654   29.9363 C.ar    1  UNL1        0.0031
      5 C         -26.7354   -2.3004   30.2173 C.ar    1  UNL1        0.0369
      6 C         -27.9184   -1.9537   29.7629 C.ar    1  UNL1        0.1386
      7 C         -27.1057    1.1023   27.7593 C.ar    1  UNL1        0.0000
      8 C         -27.8576    1.5309   27.2156 C.ar    1  UNL1       -0.0000
      9 C         -27.8433    2.7213   26.2861 C.ar    1  UNL1       -0.0001
     10 C         -26.6217    3.3253   26.0566 C.ar    1  UNL1        0.0039
     11 C         -25.4854    2.7960   26.6725 C.ar    1  UNL1        0.0714
     12 C         -25.6222    1.7365   27.5193 C.ar    1  UNL1        0.0039
     13 C         -24.1950    3.4456   26.4809 C.3     1  UNL1        0.4186
     14 F         -24.1329    4.6913   26.4395 F       1  UNL1       -0.1659
     15 F         -23.3591    3.1691   27.5816 F       1  UNL1       -0.1659
     16 F         -23.5223    2.8812   25.4488 F       1  UNL1       -0.1659
     17 O         -28.9815   -2.7233   30.1298 O.3     1  UNL1       -0.4751
     18 C         -30.1251   -2.1622   30.5084 C.3     1  UNL1        0.2100
     19 C         -31.1955   -2.8889   30.1083 C.3     1  UNL1        0.0730
     20 C         -31.2194   -4.1990   30.0931 C.2     1  UNL1       -0.0268
     21 C         -30.4519   -4.8377   30.9626 C.2     1  UNL1       -0.0302
     22 C         -30.3697   -6.3641   30.9861 C.3     1  UNL1        0.0303
@<TRIPOS>BOND
     1     2     7    1
     2    11    13    1
     3    13    14    1
     4    13    15    1
     5    13    16    1
     6     6    17    1
     7    17    18    1
     8    18    19    1
     9    19    20    1
    10    20    21    2
    11    21    22    1
    12     1     2   ar
    13     2     3   ar
    14     3     4   ar
    15     4     5   ar
    16     5     6   ar
    17     6     1   ar
    18     7     8   ar
    19     8     9   ar
    20     9    10   ar
    21    10    11   ar
    22    11    12   ar
    23    12     7   ar
