@<TRIPOS>MOLECULE
No_3681-gen_results/8p0m/2024-11-26-14-13-15/
 10 10 0 0 0
SMALL
GASTEIGER

@<TRIPOS>ATOM
      1 C         -28.0162   -0.8135   28.8779 C.ar    1  UNL1        0.0375
      2 C         -28.4690   -0.7850   29.8287 C.ar    1  UNL1        0.1454
      3 C         -27.0871    0.2903   28.6377 C.ar    1  UNL1        0.0031
      4 C         -26.0239    0.3644   29.2526 C.ar    1  UNL1        0.0002
      5 C         -27.5370   -0.6187   31.0883 C.ar    1  UNL1        0.0375
      6 C         -26.3844    0.1834   30.8012 C.ar    1  UNL1        0.0031
      7 O         -29.5100   -1.6195   30.2653 O.3     1  UNL1       -0.4508
      8 C         -30.7241   -1.2384   29.8510 C.2     1  UNL1        0.1750
      9 C         -31.0126   -0.2082   29.4039 C.2     1  UNL1        0.0148
     10 C         -32.3419    0.1301   28.8785 C.3     1  UNL1        0.0341
@<TRIPOS>BOND
     1     2     7    1
     2     7     8    1
     3     8     9    2
     4     9    10    1
     5     1     2   ar
     6     2     5   ar
     7     5     6   ar
     8     6     4   ar
     9     4     3   ar
    10     3     1   ar
