@<TRIPOS>MOLECULE
No_3683-gen_results/8p0m/2024-11-26-14-13-15/
 11 12 0 0 0
SMALL
GASTEIGER

@<TRIPOS>ATOM
      1 O         -28.1229   -1.3353   28.4874 O.2     1  UNL1       -0.2730
      2 C         -27.0637   -0.8242   28.8687 C.2     1  UNL1        0.2461
      3 C         -25.9464   -1.0396   28.8492 C.3     1  UNL1        0.1128
      4 C         -24.7602   -0.1562   29.1644 C.ar    1  UNL1       -0.0153
      5 C         -23.3890   -0.4551   29.0162 C.ar    1  UNL1       -0.0040
      6 N         -27.3395    0.3833   29.7633 N.am    1  UNL1       -0.2003
      7 C         -26.4205    1.2770   30.1889 C.3     1  UNL1        0.1412
      8 C         -25.0644    1.0553   29.9319 C.ar    1  UNL1       -0.0040
      9 C         -22.3605    0.0911   29.5905 C.ar    1  UNL1       -0.0003
     10 C         -22.7326    1.4294   30.2412 C.ar    1  UNL1       -0.0003
     11 C         -24.0013    1.7798   30.4432 C.ar    1  UNL1       -0.0029
@<TRIPOS>BOND
     1     1     2    2
     2     2     3    1
     3     3     4    1
     4     2     6   am
     5     7     8    1
     6     7     6    1
     7     4     5   ar
     8     5     9   ar
     9     9    10   ar
    10    10    11   ar
    11    11     8   ar
    12     8     4   ar
