@<TRIPOS>MOLECULE
No_3684-gen_results/8p0m/2024-11-26-14-13-15/
 35 39 0 0 0
SMALL
GASTEIGER

@<TRIPOS>ATOM
      1 C         -28.0162   -0.8135   28.8779 C.ar    1  UNL1        0.0178
      2 C         -27.0636   -0.1190   28.6079 C.ar    1  UNL1        0.0011
      3 C         -27.0010    0.6913   27.4910 C.ar    1  UNL1       -0.0030
      4 C         -28.1373    0.7363   26.6350 C.ar    1  UNL1       -0.0071
      5 C         -29.2360    0.0765   27.0690 C.ar    1  UNL1        0.0666
      6 C         -29.2177   -0.6429   28.1747 C.ar    1  UNL1        0.0852
      7 N         -30.3516    0.1564   26.2430 N.am    1  UNL1       -0.2397
      8 C         -30.2688    0.1234   24.9366 C.3     1  UNL1        0.1002
      9 C         -29.2051    0.9027   24.3928 C.3     1  UNL1        0.0267
     10 C         -27.9190    0.9038   25.1644 C.3     1  UNL1        0.0294
     11 C         -31.6615   -0.1869   26.8161 C.2     1  UNL1        0.3455
     12 O         -32.4411    0.5384   26.5439 O.2     1  UNL1       -0.2487
     13 N         -31.7196   -1.0228   27.9009 N.am    1  UNL1       -0.0879
     14 N         -30.4512   -1.1469   28.6566 N.pl3   1  UNL1       -0.1939
     15 C         -30.5817   -1.8991   29.9227 C.ar    1  UNL1        0.0717
     16 C         -30.6655   -1.1140   31.0286 C.ar    1  UNL1        0.0165
     17 C         -30.2383   -1.6395   32.1022 C.ar    1  UNL1        0.0011
     18 C         -30.0133   -3.0561   32.2245 C.ar    1  UNL1       -0.0025
     19 C         -29.8252   -3.7694   31.0298 C.ar    1  UNL1       -0.0011
     20 C         -30.0631   -3.1014   29.8044 C.ar    1  UNL1        0.0139
     21 C         -29.3697   -5.1596   31.0719 C.3     1  UNL1        0.1180
     22 N         -30.1920   -6.0745   31.4887 N.pl3   1  UNL1       -0.2996
     23 C         -30.0423   -6.6381   32.6389 C.ar    1  UNL1        0.0483
     24 C         -29.3002   -6.1566   33.6204 C.ar    1  UNL1        0.0145
     25 C         -29.2384   -6.8494   34.8914 C.ar    1  UNL1        0.0013
     26 C         -29.7678   -8.0691   34.9884 C.ar    1  UNL1        0.0001
     27 C         -30.7420   -7.8964   32.7968 C.ar    1  UNL1        0.0145
     28 C         -30.6033   -8.5718   34.0201 C.ar    1  UNL1        0.0013
     29 C         -31.2440   -6.3895   30.6067 C.3     1  UNL1        0.1177
     30 C         -31.5751   -5.6486   29.6935 C.2     1  UNL1       -0.0048
     31 C         -32.6337   -5.8009   29.0205 C.2     1  UNL1       -0.0029
     32 C         -33.0754   -4.8842   27.9177 C.2     1  UNL1       -0.0003
     33 C         -32.1354   -3.8769   27.6332 C.2     1  UNL1       -0.0000
     34 C         -32.6400   -3.0187   26.5523 C.2     1  UNL1       -0.0000
     35 C         -33.5923   -3.7349   25.7308 C.2     1  UNL1       -0.0000
@<TRIPOS>BOND
     1     5     7    1
     2     7     8    1
     3     8     9    1
     4     4    10    1
     5     9    10    1
     6     7    11   am
     7    11    12    2
     8    11    13   am
     9     6    14    1
    10    13    14    1
    11    14    15    1
    12    19    21    1
    13    21    22    1
    14    22    23    1
    15    22    29    1
    16    29    30    1
    17    30    31    2
    18    31    32    1
    19    32    33    2
    20    33    34    1
    21    34    35    2
    22    15    16   ar
    23    16    17   ar
    24    17    18   ar
    25    18    19   ar
    26    19    20   ar
    27    20    15   ar
    28     1     2   ar
    29     2     3   ar
    30     3     4   ar
    31     4     5   ar
    32     5     6   ar
    33     6     1   ar
    34    23    24   ar
    35    24    25   ar
    36    25    26   ar
    37    26    28   ar
    38    28    27   ar
    39    27    23   ar
