@<TRIPOS>MOLECULE
No_3685-gen_results/8p0m/2024-11-26-14-13-15/
 25 27 0 0 0
SMALL
GASTEIGER

@<TRIPOS>ATOM
      1 C         -28.0162   -0.8135   28.8779 C.ar    1  UNL1        0.0007
      2 C         -27.0636   -0.1189   28.6079 C.ar    1  UNL1       -0.0157
      3 C         -25.7923   -0.4302   29.0761 C.ar    1  UNL1       -0.0039
      4 C         -25.5756   -1.5654   29.9363 C.ar    1  UNL1       -0.0002
      5 C         -26.7354   -2.3004   30.2173 C.ar    1  UNL1        0.0045
      6 C         -27.9184   -1.9537   29.7629 C.ar    1  UNL1        0.0547
      7 C         -27.1057    1.1023   27.7593 C.3     1  UNL1        0.0747
      8 C         -26.7157    2.2350   27.9945 C.ar    1  UNL1       -0.0159
      9 C         -27.6805    0.8547   26.4259 C.3     1  UNL1        0.1467
     10 C         -26.0318    2.5935   29.1910 C.ar    1  UNL1       -0.0039
     11 C         -26.8615    3.3798   27.0755 C.ar    1  UNL1       -0.0039
     12 C         -26.3313    4.6513   27.4584 C.ar    1  UNL1       -0.0003
     13 C         -25.5953    3.9220   29.5939 C.ar    1  UNL1       -0.0003
     14 C         -25.7373    4.9604   28.6522 C.ar    1  UNL1       -0.0000
     15 N         -28.9206    1.0148   26.1262 N.3     1  UNL1       -0.2606
     16 CL        -26.7328    0.6799   25.1832 Cl      1  UNL1       -0.0963
     17 C         -29.8433    1.4093   26.9604 C.3     1  UNL1        0.0731
     18 C         -30.8185    1.8351   26.9602 C.3     1  UNL1        0.0174
     19 C         -31.3140    2.2226   25.6559 C.3     1  UNL1        0.0029
     20 C         -30.4350    1.9524   24.5534 C.3     1  UNL1        0.0174
     21 C         -29.2796    1.3415   24.7869 C.3     1  UNL1        0.0731
     22 C         -29.1164   -2.7126   30.1848 C.2     1  UNL1        0.2648
     23 O         -29.0385   -3.9468   30.3332 O.2     1  UNL1       -0.2684
     24 N         -30.2857   -2.1019   30.3974 N.am    1  UNL1       -0.1998
     25 C         -31.4042   -2.4808   30.6809 C.3     1  UNL1        0.1388
@<TRIPOS>BOND
     1     2     7    1
     2     7     8    1
     3     7     9    1
     4     9    15    1
     5     9    16    1
     6    15    17    1
     7    18    19    1
     8    15    21    1
     9    20    21    1
    10     6    22    1
    11    22    23    2
    12    22    24   am
    13    24    25    1
    14    17    18    1
    15    19    20    1
    16     8    10   ar
    17    10    13   ar
    18    13    14   ar
    19    14    12   ar
    20    12    11   ar
    21    11     8   ar
    22     1     2   ar
    23     2     3   ar
    24     3     4   ar
    25     4     5   ar
    26     5     6   ar
    27     6     1   ar
