@<TRIPOS>MOLECULE
No_3686-gen_results/8p0m/2024-11-26-14-13-15/
 32 35 0 0 0
SMALL
GASTEIGER

@<TRIPOS>ATOM
      1 C         -28.0162   -0.8135   28.8779 C.ar    1  UNL1        0.0061
      2 C         -28.4690   -0.7850   29.8287 C.ar    1  UNL1        0.0757
      3 C         -26.5455   -0.8762   28.8500 C.ar    1  UNL1       -0.0040
      4 C         -25.8041   -1.0324   30.0571 C.ar    1  UNL1       -0.0219
      5 C         -27.9437   -0.9869   31.2075 C.ar    1  UNL1        0.0061
      6 C         -26.5825   -1.0386   31.2231 C.ar    1  UNL1       -0.0040
      7 C         -30.0279   -0.6588   29.6965 C.2     1  UNL1        0.3425
      8 O         -30.7763   -1.4156   30.1892 O.2     1  UNL1       -0.2448
      9 O         -30.4606    0.5516   29.3639 O.3     1  UNL1       -0.4289
     10 C         -24.3713   -1.1188   30.0868 C.3     1  UNL1        0.0307
     11 C         -23.6901    0.1570   30.0926 C.3     1  UNL1        0.0267
     12 C         -23.2885    0.7872   28.9174 C.ar    1  UNL1       -0.0213
     13 C         -22.0040    0.6868   28.6066 C.ar    1  UNL1       -0.0042
     14 C         -24.2102    1.4481   28.1608 C.ar    1  UNL1        0.0071
     15 C         -23.7984    1.9005   26.8476 C.ar    1  UNL1        0.0574
     16 C         -21.4746    1.2797   27.4058 C.ar    1  UNL1        0.0005
     17 C         -22.3706    1.9654   26.6179 C.ar    1  UNL1        0.0114
     18 C         -23.6009    0.9196   31.3611 C.3     1  UNL1        0.0050
     19 CL        -24.8091    2.6621   25.7953 Cl      1  UNL1       -0.0823
     20 C         -31.4949    0.9647   29.1267 C.3     1  UNL1        0.2551
     21 C         -31.7538    1.2911   27.9471 C.ar    1  UNL1        0.0336
     22 C         -33.1039    1.7544   27.5308 C.ar    1  UNL1        0.0006
     23 C         -33.3686    2.0896   26.1889 C.ar    1  UNL1       -0.0002
     24 C         -31.0727    0.9127   26.7819 C.ar    1  UNL1        0.0006
     25 C         -31.2947    1.1795   25.4729 C.ar    1  UNL1       -0.0002
     26 C         -32.4915    1.7988   25.1832 C.ar    1  UNL1       -0.0000
     27 N         -31.6666    2.1639   30.0811 N.3     1  UNL1       -0.2364
     28 C         -32.5195    2.1340   31.2065 C.3     1  UNL1        0.0756
     29 C         -30.9717    3.3356   29.8242 C.3     1  UNL1        0.0756
     30 C         -31.1333    4.3900   30.5338 C.3     1  UNL1        0.0175
     31 C         -32.6846    3.2608   31.9561 C.3     1  UNL1        0.0175
     32 C         -31.9492    4.4132   31.6552 C.3     1  UNL1        0.0029
@<TRIPOS>BOND
     1     2     7    1
     2     7     8    2
     3     7     9    1
     4     4    10    1
     5    10    11    1
     6    11    12    1
     7    11    18    1
     8    15    19    1
     9     9    20    1
    10    20    27    1
    11    27    28    1
    12    27    29    1
    13    30    32    1
    14    31    32    1
    15    20    21    1
    16    28    31    1
    17    30    29    1
    18    21    22   ar
    19    22    23   ar
    20    23    26   ar
    21    26    25   ar
    22    25    24   ar
    23    24    21   ar
    24     1     2   ar
    25     2     5   ar
    26     5     6   ar
    27     6     4   ar
    28     4     3   ar
    29     3     1   ar
    30    12    13   ar
    31    13    16   ar
    32    16    17   ar
    33    17    15   ar
    34    15    14   ar
    35    14    12   ar
