@<TRIPOS>MOLECULE
No_3687-gen_results/8p0m/2024-11-26-14-13-15/
 35 38 0 0 0
SMALL
GASTEIGER

@<TRIPOS>ATOM
      1 C         -28.0162   -0.8135   28.8779 C.ar    1  UNL1        0.0369
      2 C         -27.0636   -0.1189   28.6079 C.ar    1  UNL1        0.0033
      3 C         -25.7923   -0.4302   29.0761 C.ar    1  UNL1        0.0046
      4 C         -24.5456    0.3494   28.8225 C.ar    1  UNL1        0.0539
      5 C         -23.2409    0.0217   29.3323 C.ar    1  UNL1        0.0045
      6 C         -27.8820   -1.8995   29.8633 C.ar    1  UNL1        0.1391
      7 C         -26.6526   -2.3141   30.3138 C.ar    1  UNL1        0.0369
      8 C         -25.5153   -1.5607   29.9787 C.ar    1  UNL1        0.0032
      9 C         -23.2072   -1.2289   30.0311 C.ar    1  UNL1        0.0001
     10 C         -24.2434   -1.9361   30.3879 C.ar    1  UNL1        0.0001
     11 C         -24.5886    1.5614   27.9544 C.2     1  UNL1        0.2525
     12 N         -24.8866    1.4562   26.7915 N.am    1  UNL1       -0.2571
     13 C         -24.2072    1.1018   25.8305 C.3     1  UNL1        0.1200
     14 C         -25.8923    2.4475   26.3455 C.2     1  UNL1        0.0319
     15 O         -24.4102    2.6263   28.6657 O.2     1  UNL1       -0.2696
     16 O         -29.0216   -2.5907   30.1601 O.3     1  UNL1       -0.4699
     17 C         -30.0877   -1.9475   30.6748 C.3     1  UNL1        0.2433
     18 C         -30.6776   -2.7028   31.6752 C.2     1  UNL1        0.2816
     19 O         -30.3364   -3.7491   32.0084 O.2     1  UNL1       -0.2694
     20 N         -32.0115   -2.3376   32.0129 N.am    1  UNL1       -0.2018
     21 C         -32.6019   -1.1021   31.6596 C.3     1  UNL1        0.1264
     22 C         -31.9826   -0.5939   30.5261 C.3     1  UNL1        0.1248
     23 C         -30.7220   -0.8588   30.0610 C.3     1  UNL1        0.0661
     24 C         -32.5710    0.7063   29.9570 C.2     1  UNL1        0.3187
     25 O         -33.2245    1.4028   30.4047 O.2     1  UNL1       -0.2500
     26 O         -31.9116    1.0108   28.8141 O.3     1  UNL1       -0.4435
     27 C         -32.6128    1.7733   27.8487 C.3     1  UNL1        0.2350
     28 C         -31.9766    1.8153   26.7741 C.ar    1  UNL1        0.0213
     29 C         -30.6552    1.5563   26.6469 C.ar    1  UNL1       -0.0007
     30 C         -30.1657    0.8185   25.5777 C.ar    1  UNL1       -0.0002
     31 C         -30.0868    1.1722   24.6049 C.ar    1  UNL1       -0.0000
     32 C         -31.1769    2.1798   24.1864 C.ar    1  UNL1       -0.0002
     33 C         -32.2817    2.3534   25.3824 C.ar    1  UNL1       -0.0007
     34 C         -25.7240    3.7046   26.5380 C.2     1  UNL1        0.0114
     35 C         -27.0998    1.9193   25.6995 C.3     1  UNL1        0.0475
@<TRIPOS>BOND
     1     4    11    1
     2    11    12   am
     3    12    13    1
     4    12    14    1
     5    11    15    2
     6     6    16    1
     7    16    17    1
     8    17    18    1
     9    18    19    2
    10    18    20   am
    11    20    21    1
    12    17    23    1
    13    22    23    1
    14    22    24    1
    15    24    25    2
    16    24    26    1
    17    26    27    1
    18    14    34    2
    19    14    35    1
    20    27    28    1
    21    22    21    1
    22    28    29   ar
    23    29    30   ar
    24    30    31   ar
    25    31    32   ar
    26    32    33   ar
    27    33    28   ar
    28     1     2   ar
    29     2     3   ar
    30     8     7   ar
    31     7     6   ar
    32     6     1   ar
    33     3     4   ar
    34     4     5   ar
    35     5     9   ar
    36     9    10   ar
    37    10     8   ar
    38     8     3   ar
