@<TRIPOS>MOLECULE
No_3689-gen_results/8p0m/2024-11-26-14-13-15/
 8 7 0 0 0
SMALL
GASTEIGER

@<TRIPOS>ATOM
      1 C         -28.0162   -0.8135   28.8779 C.2     1  UNL1       -0.0003
      2 C         -28.4690   -0.7850   29.8287 C.2     1  UNL1       -0.0000
      3 C         -26.5455   -0.8762   28.8500 C.2     1  UNL1       -0.0033
      4 C         -25.8974   -0.8267   29.8894 C.2     1  UNL1       -0.0087
      5 C         -27.9129   -0.8385   31.1942 C.2     1  UNL1       -0.0000
      6 C         -24.3990   -0.8610   29.9702 C.3     1  UNL1        0.1208
      7 C         -26.5235   -0.8574   31.1732 C.2     1  UNL1       -0.0000
      8 CL        -24.8944   -0.9346   29.5101 Cl      1  UNL1       -0.1085
@<TRIPOS>BOND
     1     1     2    2
     2     1     3    1
     3     3     4    2
     4     2     5    1
     5     4     6    1
     6     5     7    2
     7     6     8    1
