@<TRIPOS>MOLECULE
No_369-gen_results/8p0m/2024-11-26-14-13-15/
 16 17 0 0 0
SMALL
GASTEIGER

@<TRIPOS>ATOM
      1 C         -28.0162   -0.8135   28.8779 C.ar    1  UNL1        0.0114
      2 C         -27.0636   -0.1189   28.6079 C.ar    1  UNL1        0.0009
      3 C         -25.7923   -0.4302   29.0761 C.ar    1  UNL1        0.0023
      4 C         -24.5456    0.3494   28.8225 C.ar    1  UNL1        0.0305
      5 C         -23.2409    0.0217   29.3323 C.ar    1  UNL1        0.0024
      6 C         -27.8820   -1.8995   29.8633 C.ar    1  UNL1        0.0577
      7 C         -26.6706   -2.3272   30.3212 C.ar    1  UNL1        0.0114
      8 C         -25.5256   -1.5687   29.9818 C.ar    1  UNL1        0.0009
      9 C         -22.1698    0.7965   28.9549 C.ar    1  UNL1        0.0033
     10 C         -22.1316    1.7520   27.9916 C.ar    1  UNL1        0.0392
     11 C         -24.5371    1.3821   27.7945 C.ar    1  UNL1        0.1737
     12 C         -23.3474    2.0449   27.4322 C.ar    1  UNL1        0.1660
     13 CL        -29.2557   -2.8403   30.3436 Cl      1  UNL1       -0.0822
     14 O         -23.4582    2.9998   26.4732 O.3     1  UNL1       -0.4692
     15 C         -24.6339    2.7804   25.6838 C.3     1  UNL1        0.2526
     16 F         -25.5303    1.5697   27.0675 F       1  UNL1       -0.2010
@<TRIPOS>BOND
     1     3     4    1
     2     6    13    1
     3    12    14    1
     4    14    15    1
     5    11    16    1
     6     1     2   ar
     7     2     3   ar
     8     3     8   ar
     9     8     7   ar
    10     7     6   ar
    11     6     1   ar
    12     4     5   ar
    13     5     9   ar
    14     9    10   ar
    15    10    12   ar
    16    12    11   ar
    17    11     4   ar
