@<TRIPOS>MOLECULE
No_3690-gen_results/8p0m/2024-11-26-14-13-15/
 15 15 0 0 0
SMALL
GASTEIGER

@<TRIPOS>ATOM
      1 C         -28.0162   -0.8135   28.8779 C.ar    1  UNL1        0.0152
      2 C         -28.4690   -0.7850   29.8287 C.ar    1  UNL1        0.0576
      3 C         -27.1356    0.2359   28.5352 C.ar    1  UNL1        0.0722
      4 C         -26.8745    1.2825   29.3982 C.ar    1  UNL1        0.0078
      5 C         -27.5070    1.2380   30.6295 C.ar    1  UNL1        0.0722
      6 C         -28.3293    0.1745   30.9350 C.ar    1  UNL1        0.0152
      7 C         -26.4077    0.3070   27.2259 C.3     1  UNL1        0.4186
      8 F         -27.0192    0.0345   26.2763 F       1  UNL1       -0.1659
      9 F         -25.8064    1.5835   26.9975 F       1  UNL1       -0.1659
     10 F         -25.2041   -0.5047   27.3400 F       1  UNL1       -0.1659
     11 CL        -29.5027   -2.1946   30.3732 Cl      1  UNL1       -0.0823
     12 C         -27.2895    2.3567   31.6007 C.3     1  UNL1        0.4186
     13 F         -26.5170    2.1177   32.4888 F       1  UNL1       -0.1659
     14 F         -28.4934    2.7263   32.1598 F       1  UNL1       -0.1659
     15 F         -26.8756    3.4509   30.8660 F       1  UNL1       -0.1659
@<TRIPOS>BOND
     1     3     7    1
     2     7     8    1
     3     7     9    1
     4     7    10    1
     5     2    11    1
     6     5    12    1
     7    12    13    1
     8    12    14    1
     9    12    15    1
    10     1     2   ar
    11     2     6   ar
    12     6     5   ar
    13     5     4   ar
    14     4     3   ar
    15     3     1   ar
