@<TRIPOS>MOLECULE
No_3691-gen_results/8p0m/2024-11-26-14-13-15/
 15 16 0 0 0
SMALL
GASTEIGER

@<TRIPOS>ATOM
      1 C         -28.0162   -0.8135   28.8779 C.ar    1  UNL1        0.0376
      2 C         -28.4690   -0.7850   29.8287 C.ar    1  UNL1        0.1488
      3 C         -26.5042   -0.7777   28.8766 C.ar    1  UNL1        0.0031
      4 C         -25.8103   -0.8531   30.1028 C.ar    1  UNL1        0.0002
      5 C         -27.9906   -0.8916   31.2257 C.ar    1  UNL1        0.0376
      6 C         -26.6042   -0.8676   31.2652 C.ar    1  UNL1        0.0031
      7 O         -29.9385   -0.8194   29.8358 O.3     1  UNL1       -0.4210
      8 C         -30.5356   -0.1119   28.9448 C.2     1  UNL1        0.3457
      9 C         -31.4855    0.7958   29.2937 C.ar    1  UNL1        0.0760
     10 C         -31.8748    0.9675   30.4411 C.ar    1  UNL1        0.0065
     11 C         -32.8837    2.0078   30.8330 C.ar    1  UNL1        0.0002
     12 C         -33.4086    2.7320   29.7541 C.ar    1  UNL1        0.0000
     13 C         -32.0445    1.6148   28.2243 C.ar    1  UNL1        0.0065
     14 C         -32.9732    2.5543   28.5021 C.ar    1  UNL1        0.0002
     15 O         -30.3015   -0.4192   27.6829 O.2     1  UNL1       -0.2445
@<TRIPOS>BOND
     1     2     7    1
     2     7     8    1
     3     8     9    1
     4     8    15    2
     5     1     2   ar
     6     2     5   ar
     7     5     6   ar
     8     6     4   ar
     9     4     3   ar
    10     3     1   ar
    11     9    10   ar
    12    10    11   ar
    13    11    12   ar
    14    12    14   ar
    15    14    13   ar
    16    13     9   ar
