@<TRIPOS>MOLECULE
No_3692-gen_results/8p0m/2024-11-26-14-13-15/
 28 31 0 0 0
SMALL
GASTEIGER

@<TRIPOS>ATOM
      1 C         -28.0162   -0.8135   28.8779 C.ar    1  UNL1        0.0375
      2 C         -27.0636   -0.1190   28.6079 C.ar    1  UNL1        0.1453
      3 C         -26.9287    1.1713   29.0083 C.ar    1  UNL1        0.0375
      4 C         -27.9560    1.7411   29.7840 C.ar    1  UNL1        0.0031
      5 C         -29.0569   -0.3271   29.7466 C.ar    1  UNL1        0.0031
      6 C         -28.9828    0.9722   30.1516 C.ar    1  UNL1        0.0002
      7 O         -25.9911   -0.6119   27.8566 O.3     1  UNL1       -0.4535
      8 C         -24.6317   -0.3328   28.2530 C.ar    1  UNL1        0.1449
      9 C         -23.9205   -1.2516   28.9900 C.ar    1  UNL1        0.0375
     10 C         -24.0063    0.7971   27.6717 C.ar    1  UNL1        0.0309
     11 C         -22.6700    1.0498   28.0433 C.ar    1  UNL1        0.0027
     12 C         -21.9282    0.1942   28.7934 C.ar    1  UNL1        0.0002
     13 C         -22.5765   -1.0373   29.2118 C.ar    1  UNL1        0.0031
     14 C         -24.7073    1.8960   26.9370 C.2     1  UNL1       -0.0149
     15 C         -24.8301    1.9390   25.8621 C.2     1  UNL1       -0.0041
     16 C         -24.9774    3.1011   27.7699 C.3     1  UNL1        0.0527
     17 C         -25.3770    4.2850   27.2055 C.ar    1  UNL1       -0.0178
     18 C         -25.6796    5.3978   28.0128 C.ar    1  UNL1       -0.0036
     19 C         -25.9294    6.6732   27.3847 C.ar    1  UNL1       -0.0003
     20 C         -25.3370    6.8516   26.2045 C.ar    1  UNL1       -0.0000
     21 C         -24.5374    5.8798   25.6097 C.ar    1  UNL1       -0.0003
     22 C         -24.5641    4.5917   26.0789 C.ar    1  UNL1       -0.0039
     23 C         -26.3442    5.2031   29.3616 C.ar    1  UNL1       -0.0003
     24 C         -26.1407    6.2778   30.2953 C.ar    1  UNL1       -0.0000
     25 C         -26.7193    6.0122   31.4779 C.ar    1  UNL1       -0.0000
     26 C         -27.3502    4.8715   31.7616 C.ar    1  UNL1       -0.0000
     27 C         -27.4111    3.8815   30.8904 C.ar    1  UNL1       -0.0000
     28 C         -26.8581    4.0589   29.6424 C.ar    1  UNL1       -0.0000
@<TRIPOS>BOND
     1     2     7    1
     2     7     8    1
     3    10    14    1
     4    14    15    2
     5    14    16    1
     6    18    23    1
     7    16    17    1
     8    17    18   ar
     9    18    19   ar
    10    19    20   ar
    11    20    21   ar
    12    21    22   ar
    13    22    17   ar
    14    23    24   ar
    15    24    25   ar
    16    25    26   ar
    17    26    27   ar
    18    27    28   ar
    19    28    23   ar
    20     1     2   ar
    21     2     3   ar
    22     3     4   ar
    23     4     6   ar
    24     6     5   ar
    25     5     1   ar
    26     8     9   ar
    27     9    13   ar
    28    13    12   ar
    29    12    11   ar
    30    11    10   ar
    31    10     8   ar
