@<TRIPOS>MOLECULE
No_3693-gen_results/8p0m/2024-11-26-14-13-15/
 21 22 0 0 0
SMALL
GASTEIGER

@<TRIPOS>ATOM
      1 C         -28.0162   -0.8135   28.8779 C.ar    1  UNL1        0.0796
      2 C         -27.0636   -0.1189   28.6079 C.ar    1  UNL1        0.0066
      3 C         -26.9716    0.7139   27.5060 C.ar    1  UNL1        0.0000
      4 C         -28.1053    0.7744   26.6421 C.ar    1  UNL1       -0.0008
      5 C         -29.2008    0.1044   27.0527 C.ar    1  UNL1        0.0210
      6 C         -28.0219   -1.5899   30.0879 C.2     1  UNL1        0.3877
      7 C         -29.1640   -0.6394   28.1484 C.ar    1  UNL1        0.0058
      8 O         -28.8247   -1.8905   30.7103 O.co2   1  UNL1       -0.2406
      9 O         -26.8662   -2.4466   30.1323 O.co2   1  UNL1       -0.2406
     10 C         -30.3872    0.2006   26.1751 C.3     1  UNL1        0.2390
     11 BR        -30.5969    1.0736   25.5799 Br      1  UNL1       -0.0380
     12 F         -31.1367   -0.9009   26.3448 F       1  UNL1       -0.2198
     13 C         -25.6906    1.4253   27.1342 C.ar    1  UNL1        0.0002
     14 C         -25.4913    2.3579   26.3695 C.ar    1  UNL1        0.0000
     15 C         -24.2482    3.0278   26.1123 C.ar    1  UNL1        0.0002
     16 C         -23.0936    2.4597   26.7265 C.ar    1  UNL1        0.0066
     17 C         -23.2635    1.2997   27.5203 C.ar    1  UNL1        0.0798
     18 C         -24.5236    0.7942   27.7993 C.ar    1  UNL1        0.0066
     19 C         -22.0439    0.7843   28.1796 C.2     1  UNL1        0.3878
     20 O         -22.1791   -0.3165   28.8723 O.co2   1  UNL1       -0.2406
     21 O         -20.9302    1.3549   28.0550 O.co2   1  UNL1       -0.2406
@<TRIPOS>BOND
     1     1     6    1
     2     6     8   ar
     3     6     9   ar
     4     5    10    1
     5    10    11    1
     6    10    12    1
     7     3    13    1
     8    17    19    1
     9    19    20   ar
    10    19    21   ar
    11    13    14   ar
    12    14    15   ar
    13    15    16   ar
    14    16    17   ar
    15    17    18   ar
    16    18    13   ar
    17     1     2   ar
    18     2     3   ar
    19     3     4   ar
    20     4     5   ar
    21     5     7   ar
    22     7     1   ar
