@<TRIPOS>MOLECULE
No_3694-gen_results/8p0m/2024-11-26-14-13-15/
 27 30 0 0 0
SMALL
GASTEIGER

@<TRIPOS>ATOM
      1 C         -28.0162   -0.8135   28.8779 C.3     1  UNL1        0.1022
      2 C         -27.0636   -0.1190   28.6079 C.ar    1  UNL1        0.0279
      3 C         -27.0010    0.6913   27.4910 C.ar    1  UNL1        0.1360
      4 C         -25.8548    1.4825   27.0830 C.ar    1  UNL1        0.0366
      5 C         -24.6901    1.4526   27.8807 C.ar    1  UNL1        0.0031
      6 C         -24.7379    0.6010   29.0416 C.ar    1  UNL1        0.0030
      7 C         -25.8234   -0.1688   29.3887 C.ar    1  UNL1        0.0002
      8 N         -28.7568   -0.5479   30.0191 N.3     1  UNL1       -0.2689
      9 C         -29.7597   -1.3260   30.5171 C.3     1  UNL1        0.0724
     10 C         -30.3964   -0.9170   31.6880 C.3     1  UNL1        0.0174
     11 C         -28.2208    0.2085   30.9807 C.3     1  UNL1        0.0724
     12 C         -28.8605    0.6851   32.1335 C.3     1  UNL1        0.0174
     13 C         -29.9090    0.0183   32.5348 C.3     1  UNL1        0.0029
     14 C         -23.4877    2.1492   27.5324 C.ar    1  UNL1        0.0001
     15 C         -22.4282    2.1183   28.4197 C.ar    1  UNL1        0.0001
     16 C         -22.4788    1.1486   29.4364 C.ar    1  UNL1        0.0032
     17 C         -23.5642    0.5196   29.8495 C.ar    1  UNL1        0.0389
     18 O         -27.9393    0.8214   26.5966 O.3     1  UNL1       -0.4717
     19 C         -28.3833    1.9199   26.1505 C.3     1  UNL1        0.2525
     20 C         -23.5851   -0.2990   31.0809 C.2     1  UNL1        0.1955
     21 C         -23.9910   -0.1721   32.1461 C.ar    1  UNL1        0.0390
     22 C         -25.0541    0.8810   32.4404 C.ar    1  UNL1        0.0032
     23 C         -25.6592    0.9745   33.7020 C.ar    1  UNL1        0.0001
     24 C         -25.4887   -0.0754   34.5964 C.ar    1  UNL1        0.0000
     25 C         -24.6084   -1.1554   34.3314 C.ar    1  UNL1        0.0001
     26 C         -23.9193   -1.2326   33.1668 C.ar    1  UNL1        0.0032
     27 O         -23.0704   -1.5012   30.7013 O.2     1  UNL1       -0.2866
@<TRIPOS>BOND
     1     1     2    1
     2     1     8    1
     3     8     9    1
     4     8    11    1
     5    10    13    1
     6    12    13    1
     7     3    18    1
     8    18    19    1
     9    17    20    1
    10    20    21    1
    11    20    27    2
    12     9    10    1
    13    12    11    1
    14     2     3   ar
    15     3     4   ar
    16     4     5   ar
    17     6     7   ar
    18     7     2   ar
    19     5     6   ar
    20     6    17   ar
    21    17    16   ar
    22    16    15   ar
    23    15    14   ar
    24    14     5   ar
    25    21    22   ar
    26    22    23   ar
    27    23    24   ar
    28    24    25   ar
    29    25    26   ar
    30    26    21   ar
