@<TRIPOS>MOLECULE
No_3696-gen_results/8p0m/2024-11-26-14-13-15/
 13 13 0 0 0
SMALL
GASTEIGER

@<TRIPOS>ATOM
      1 C         -28.0162   -0.8135   28.8779 C.ar    1  UNL1       -0.0028
      2 C         -28.4690   -0.7850   29.8287 C.ar    1  UNL1       -0.0003
      3 C         -27.0871    0.2903   28.6377 C.ar    1  UNL1       -0.0034
      4 C         -26.8317    1.2487   29.5869 C.ar    1  UNL1       -0.0028
      5 C         -28.3914    0.0801   31.0065 C.ar    1  UNL1       -0.0000
      6 C         -27.4940    1.1521   30.7841 C.ar    1  UNL1       -0.0003
      7 C         -26.3109    0.3918   27.3640 C.3     1  UNL1        0.1240
      8 CL        -26.9409    0.7578   26.1764 Cl      1  UNL1       -0.1053
      9 C         -24.8951    0.0885   27.4901 C.2     1  UNL1       -0.0059
     10 C         -24.3580   -0.8091   28.3342 C.2     1  UNL1       -0.0034
     11 C         -22.9415   -0.7997   28.5922 C.2     1  UNL1       -0.0049
     12 C         -22.2048    0.3511   28.1674 C.2     1  UNL1       -0.0258
     13 C         -22.8376    1.3689   27.4115 C.3     1  UNL1        0.0307
@<TRIPOS>BOND
     1     3     7    1
     2     7     8    1
     3     7     9    1
     4     9    10    2
     5    10    11    1
     6    11    12    2
     7    12    13    1
     8     1     2   ar
     9     2     5   ar
    10     5     6   ar
    11     6     4   ar
    12     4     3   ar
    13     3     1   ar
