@<TRIPOS>MOLECULE
No_3697-gen_results/8p0m/2024-11-26-14-13-15/
 24 26 0 0 0
SMALL
GASTEIGER

@<TRIPOS>ATOM
      1 C         -28.0162   -0.8135   28.8779 C.ar    1  UNL1        0.0063
      2 C         -28.4690   -0.7850   29.8287 C.ar    1  UNL1        0.0798
      3 C         -26.5042   -0.7777   28.8766 C.ar    1  UNL1       -0.0040
      4 C         -25.8103   -0.8531   30.1028 C.ar    1  UNL1       -0.0209
      5 C         -27.9906   -0.8916   31.2257 C.ar    1  UNL1        0.0063
      6 C         -26.6042   -0.8676   31.2652 C.ar    1  UNL1       -0.0040
      7 C         -24.3894   -0.8049   30.1638 C.3     1  UNL1        0.0451
      8 C         -23.8172    0.4762   29.9117 C.3     1  UNL1        0.1059
      9 C         -22.5010    0.5449   29.4097 C.3     1  UNL1        0.0303
     10 C         -21.7696   -0.6524   29.2129 C.3     1  UNL1        0.0893
     11 C         -23.6939   -1.8206   29.2518 C.3     1  UNL1        0.0932
     12 N         -22.3271   -1.7235   29.1652 N.3     1  UNL1       -0.2177
     13 C         -23.8472   -1.2619   31.6585 C.3     1  UNL1        0.0064
     14 C         -24.4306    1.7362   30.3423 C.2     1  UNL1        0.3210
     15 O         -24.9117    2.4961   29.4288 O.3     1  UNL1       -0.4282
     16 O         -24.5512    2.0076   31.6251 O.2     1  UNL1       -0.2497
     17 C         -30.0778   -0.8397   29.8057 C.2     1  UNL1        0.3878
     18 O         -30.5043   -0.4029   28.8412 O.co2   1  UNL1       -0.2406
     19 O         -30.7565   -1.2584   30.7913 O.co2   1  UNL1       -0.2406
     20 C         -24.9461    2.4084   28.2045 C.2     1  UNL1        0.1303
     21 C         -25.6894    1.9531   27.3880 C.2     1  UNL1        0.0331
     22 C         -25.4920    1.8842   26.0137 C.2     1  UNL1       -0.0013
     23 C         -24.2437    2.4525   25.5615 C.2     1  UNL1       -0.0181
     24 C         -23.7440    2.9354   27.3628 C.3     1  UNL1        0.0906
@<TRIPOS>BOND
     1     4     7    1
     2     7     8    1
     3     9    10    1
     4     7    11    1
     5    11    12    1
     6     7    13    1
     7     8    14    1
     8    14    15    1
     9    14    16    2
    10     2    17    1
    11    17    18   ar
    12    17    19   ar
    13    15    20    1
    14    20    21    2
    15    21    22    1
    16    22    23    2
    17    20    24    1
    18    23    24    1
    19     8     9    1
    20    10    12    1
    21     1     2   ar
    22     2     5   ar
    23     5     6   ar
    24     6     4   ar
    25     4     3   ar
    26     3     1   ar
