@<TRIPOS>MOLECULE
No_3698-gen_results/8p0m/2024-11-26-14-13-15/
 12 12 0 0 0
SMALL
GASTEIGER

@<TRIPOS>ATOM
      1 O         -28.1229   -1.3353   28.4874 O.2     1  UNL1       -0.2684
      2 C         -27.4806   -0.4044   28.7094 C.2     1  UNL1        0.2650
      3 C         -26.3804   -0.0867   27.9394 C.2     1  UNL1        0.0595
      4 N         -27.6664    0.4468   29.8988 N.am    1  UNL1       -0.1998
      5 C         -26.4086    0.8567   26.8802 C.2     1  UNL1        0.0047
      6 C         -27.5818    1.4877   26.5909 C.ar    1  UNL1        0.0001
      7 C         -27.5795    2.3020   25.4187 C.ar    1  UNL1        0.0000
      8 C         -28.7504    2.9809   25.0766 C.ar    1  UNL1        0.0000
      9 C         -29.9521    2.7840   25.7825 C.ar    1  UNL1        0.0000
     10 C         -29.8961    1.9351   26.8988 C.ar    1  UNL1        0.0000
     11 C         -28.7907    1.3370   27.2512 C.ar    1  UNL1        0.0000
     12 C         -28.0354    0.0739   30.8797 C.3     1  UNL1        0.1388
@<TRIPOS>BOND
     1     1     2    2
     2     2     3    1
     3     2     4   am
     4     3     5    2
     5     5     6    1
     6     4    12    1
     7     6     7   ar
     8     7     8   ar
     9     8     9   ar
    10     9    10   ar
    11    10    11   ar
    12    11     6   ar
