@<TRIPOS>MOLECULE
No_3699-gen_results/8p0m/2024-11-26-14-13-15/
 21 22 0 0 0
SMALL
GASTEIGER

@<TRIPOS>ATOM
      1 C         -28.0162   -0.8135   28.8779 C.ar    1  UNL1        0.0114
      2 C         -28.4690   -0.7850   29.8287 C.ar    1  UNL1        0.0577
      3 C         -26.5042   -0.7777   28.8766 C.ar    1  UNL1        0.0005
      4 C         -25.8103   -0.8531   30.1028 C.ar    1  UNL1       -0.0042
      5 C         -27.9906   -0.8916   31.2257 C.ar    1  UNL1        0.0114
      6 C         -24.3976   -0.8364   30.1775 C.2     1  UNL1       -0.0261
      7 C         -26.5754   -0.8899   31.2661 C.ar    1  UNL1        0.0005
      8 C         -23.6362   -0.9045   29.1560 C.2     1  UNL1       -0.0300
      9 C         -22.3345   -0.3811   29.1423 C.3     1  UNL1        0.0304
     10 C         -21.8837    0.6212   28.7109 C.3     1  UNL1        0.0304
     11 C         -22.7465    1.6442   28.1367 C.2     1  UNL1       -0.0300
     12 C         -23.8792    1.6111   27.7624 C.2     1  UNL1       -0.0260
     13 C         -24.5543    2.7534   27.2288 C.3     1  UNL1        0.0520
     14 C         -25.5011    3.2817   27.4224 C.ar    1  UNL1       -0.0178
     15 C         -26.3029    2.7513   28.5140 C.ar    1  UNL1       -0.0039
     16 C         -27.6031    3.2687   28.7525 C.ar    1  UNL1       -0.0003
     17 C         -27.9706    4.3483   28.0319 C.ar    1  UNL1       -0.0000
     18 C         -27.2886    4.9416   27.0553 C.ar    1  UNL1       -0.0003
     19 C         -26.0665    4.4392   26.7265 C.ar    1  UNL1       -0.0039
     20 C         -23.8434   -0.7652   31.5491 C.3     1  UNL1        0.0307
     21 CL        -30.3059   -0.8203   29.8070 Cl      1  UNL1       -0.0822
@<TRIPOS>BOND
     1     4     6    1
     2     6     8    2
     3     8     9    1
     4     9    10    1
     5    10    11    1
     6    11    12    2
     7    12    13    1
     8     6    20    1
     9     2    21    1
    10    13    14    1
    11    14    15   ar
    12    15    16   ar
    13    16    17   ar
    14    17    18   ar
    15    18    19   ar
    16    19    14   ar
    17     1     2   ar
    18     2     5   ar
    19     5     7   ar
    20     7     4   ar
    21     4     3   ar
    22     3     1   ar
