@<TRIPOS>MOLECULE
No_37-gen_results/8p0m/2024-11-26-14-13-15/
 20 22 0 0 0
SMALL
GASTEIGER

@<TRIPOS>ATOM
      1 C         -28.0162   -0.8135   28.8779 C.ar    1  UNL1       -0.0039
      2 C         -28.4690   -0.7850   29.8287 C.ar    1  UNL1       -0.0003
      3 C         -26.5455   -0.8762   28.8500 C.ar    1  UNL1       -0.0178
      4 C         -25.8041   -1.0324   30.0571 C.ar    1  UNL1       -0.0036
      5 C         -26.5373   -1.0386   31.2171 C.ar    1  UNL1       -0.0003
      6 C         -27.8843   -0.9532   31.1862 C.ar    1  UNL1       -0.0000
      7 C         -24.3655   -1.1134   30.0483 C.ar    1  UNL1       -0.0003
      8 C         -23.7447   -1.3690   30.8125 C.ar    1  UNL1       -0.0000
      9 C         -24.2830   -1.3527   32.2016 C.ar    1  UNL1       -0.0000
     10 C         -25.7049   -1.1940   32.3752 C.ar    1  UNL1       -0.0000
     11 C         -25.9216   -0.6471   27.5329 C.3     1  UNL1        0.0526
     12 C         -25.7794    0.7284   27.1000 C.ar    1  UNL1       -0.0178
     13 C         -24.9004    1.0086   26.0988 C.ar    1  UNL1       -0.0039
     14 C         -24.6558    2.3464   25.6612 C.ar    1  UNL1       -0.0003
     15 C         -25.1665    3.3901   26.4695 C.ar    1  UNL1       -0.0000
     16 C         -25.9763    3.1047   27.5569 C.ar    1  UNL1       -0.0006
     17 C         -26.2323    1.7641   27.9612 C.ar    1  UNL1       -0.0039
     18 C         -26.3927    4.2965   28.3845 C.2     1  UNL1       -0.0046
     19 C         -27.6031    4.3431   28.7136 C.2     1  UNL1       -0.0258
     20 C         -28.0859    5.4432   29.5463 C.3     1  UNL1        0.0307
@<TRIPOS>BOND
     1     3    11    1
     2    11    12    1
     3    16    18    1
     4    18    19    2
     5    19    20    1
     6    12    13   ar
     7    13    14   ar
     8    14    15   ar
     9    15    16   ar
    10    16    17   ar
    11    17    12   ar
    12     5    10   ar
    13    10     9   ar
    14     9     8   ar
    15     8     7   ar
    16     7     4   ar
    17     1     2   ar
    18     2     6   ar
    19     6     5   ar
    20     5     4   ar
    21     4     3   ar
    22     3     1   ar
