@<TRIPOS>MOLECULE
No_370-gen_results/8p0m/2024-11-26-14-13-15/
 14 15 0 0 0
SMALL
GASTEIGER

@<TRIPOS>ATOM
      1 C         -28.0162   -0.8135   28.8779 C.ar    1  UNL1        0.0111
      2 C         -28.4690   -0.7850   29.8287 C.ar    1  UNL1        0.0008
      3 C         -26.5455   -0.8762   28.8500 C.ar    1  UNL1        0.0540
      4 C         -25.8041   -1.0324   30.0571 C.ar    1  UNL1       -0.0072
      5 C         -26.5373   -1.0386   31.2171 C.ar    1  UNL1       -0.0031
      6 C         -27.8843   -0.9532   31.1862 C.ar    1  UNL1       -0.0003
      7 C         -24.3555   -1.1121   30.0346 C.3     1  UNL1        0.0535
      8 C         -23.6610    0.1027   29.8448 C.ar    1  UNL1       -0.0178
      9 C         -23.9525    1.2330   30.4520 C.ar    1  UNL1       -0.0039
     10 C         -22.5070    0.1052   28.9319 C.ar    1  UNL1       -0.0039
     11 C         -22.0627    1.2509   28.2955 C.ar    1  UNL1       -0.0003
     12 C         -23.6270    2.5259   29.8947 C.ar    1  UNL1       -0.0003
     13 C         -22.5208    2.5083   28.8759 C.ar    1  UNL1       -0.0000
     14 CL        -25.6114   -0.7413   27.3768 Cl      1  UNL1       -0.0826
@<TRIPOS>BOND
     1     4     7    1
     2     7     8    1
     3     3    14    1
     4     1     2   ar
     5     2     6   ar
     6     6     5   ar
     7     5     4   ar
     8     4     3   ar
     9     3     1   ar
    10     8     9   ar
    11     9    12   ar
    12    12    13   ar
    13    13    11   ar
    14    11    10   ar
    15    10     8   ar
