@<TRIPOS>MOLECULE
No_3701-gen_results/8p0m/2024-11-26-14-13-15/
 10 10 0 0 0
SMALL
GASTEIGER

@<TRIPOS>ATOM
      1 C         -28.0162   -0.8135   28.8779 C.ar    1  UNL1        0.0361
      2 C         -27.0636   -0.1190   28.6079 C.ar    1  UNL1        0.1518
      3 N         -26.9515    1.1286   28.9566 N.ar    1  UNL1       -0.2274
      4 C         -29.1088   -0.2102   29.6318 C.ar    1  UNL1        0.0045
      5 C         -29.0881    1.0629   29.9416 C.ar    1  UNL1        0.0208
      6 C         -27.9547    1.7679   29.5913 C.ar    1  UNL1        0.1004
      7 N         -25.9044   -0.6219   27.9793 N.pl3   1  UNL1       -0.1932
      8 C         -24.8371    0.1382   27.5376 C.2     1  UNL1        0.0828
      9 C         -23.6063   -0.1974   27.5076 C.2     1  UNL1       -0.0079
     10 C         -23.1113   -0.8389   28.7301 C.3     1  UNL1        0.0321
@<TRIPOS>BOND
     1     2     7    1
     2     7     8    1
     3     8     9    2
     4     9    10    1
     5     1     2   ar
     6     2     3   ar
     7     3     6   ar
     8     6     5   ar
     9     5     4   ar
    10     4     1   ar
