@<TRIPOS>MOLECULE
No_3703-gen_results/8p0m/2024-11-26-14-13-15/
 30 32 0 0 0
SMALL
GASTEIGER

@<TRIPOS>ATOM
      1 C         -28.0162   -0.8135   28.8779 C.ar    1  UNL1        0.0361
      2 C         -27.0636   -0.1190   28.6079 C.ar    1  UNL1        0.1403
      3 C         -25.7923   -0.4302   29.0761 C.ar    1  UNL1        0.0276
      4 C         -25.5756   -1.5654   29.9363 C.ar    1  UNL1        0.0024
      5 C         -26.7354   -2.3004   30.2173 C.ar    1  UNL1        0.0066
      6 C         -27.9184   -1.9537   29.7629 C.ar    1  UNL1        0.0779
      7 C         -29.0732   -2.7835   30.1783 C.2     1  UNL1        0.3415
      8 O         -29.0022   -3.9850   30.2347 O.2     1  UNL1       -0.2449
      9 O         -30.1809   -2.1900   30.4596 O.3     1  UNL1       -0.4443
     10 F         -27.1197    0.9971   27.8655 F       1  UNL1       -0.2042
     11 C         -24.5273    0.3488   28.7361 C.ar    1  UNL1        0.0044
     12 C         -23.3316   -0.0628   29.2273 C.ar    1  UNL1        0.0002
     13 C         -22.1431    0.6933   28.7856 C.ar    1  UNL1        0.0023
     14 C         -22.1781    1.5994   27.7783 C.ar    1  UNL1        0.0296
     15 C         -23.4490    1.9308   27.2240 C.ar    1  UNL1        0.1401
     16 C         -24.5761    1.3204   27.7282 C.ar    1  UNL1        0.0297
     17 F         -23.5086    2.9226   26.3661 F       1  UNL1       -0.2042
     18 C         -31.1248   -2.6532   31.1405 C.3     1  UNL1        0.1955
     19 C         -31.1346   -2.6122   32.4554 C.3     1  UNL1        0.0746
     20 C         -30.6714   -1.3767   32.8947 C.ar    1  UNL1       -0.0182
     21 C         -31.1289   -0.2227   32.5156 C.ar    1  UNL1       -0.0041
     22 C         -30.5972    1.0385   32.9329 C.ar    1  UNL1       -0.0003
     23 C         -29.5622    1.0475   33.8807 C.ar    1  UNL1       -0.0000
     24 C         -29.0748   -0.1733   34.3953 C.ar    1  UNL1       -0.0003
     25 C         -29.6009   -1.3149   33.7938 C.ar    1  UNL1       -0.0041
     26 C         -31.4773   -3.9986   30.5157 C.2     1  UNL1        0.0170
     27 C         -32.3826   -4.5151   30.8664 C.2     1  UNL1       -0.0013
     28 C         -32.9093   -5.4124   30.6460 C.2     1  UNL1       -0.0048
     29 C         -34.1264   -6.0138   31.2912 C.2     1  UNL1       -0.0258
     30 C         -34.7117   -7.1954   30.9753 C.3     1  UNL1        0.0307
@<TRIPOS>BOND
     1     6     7    1
     2     7     8    2
     3     7     9    1
     4     2    10    1
     5     3    11    1
     6    15    17    1
     7     9    18    1
     8    18    19    1
     9    19    20    1
    10    18    26    1
    11    26    27    2
    12    27    28    1
    13    28    29    2
    14    29    30    1
    15    11    12   ar
    16    12    13   ar
    17    13    14   ar
    18    14    15   ar
    19    15    16   ar
    20    16    11   ar
    21     1     2   ar
    22     2     3   ar
    23     3     4   ar
    24     4     5   ar
    25     5     6   ar
    26     6     1   ar
    27    20    21   ar
    28    21    22   ar
    29    22    23   ar
    30    23    24   ar
    31    24    25   ar
    32    25    20   ar
