@<TRIPOS>MOLECULE
No_3704-gen_results/8p0m/2024-11-26-14-13-15/
 25 26 0 0 0
SMALL
GASTEIGER

@<TRIPOS>ATOM
      1 CL        -28.1493   -0.8198   28.9079 Cl      1  UNL1       -0.0822
      2 C         -28.5324   -0.0471   29.7727 C.ar    1  UNL1        0.0577
      3 C         -27.6024    0.7852   30.3185 C.ar    1  UNL1        0.0114
      4 C         -27.9264    1.8091   31.3693 C.ar    1  UNL1        0.0007
      5 C         -29.2820    1.8300   31.7435 C.ar    1  UNL1       -0.0008
      6 C         -30.1642    1.0016   31.2423 C.ar    1  UNL1        0.0007
      7 C         -29.8161    0.0491   30.2948 C.ar    1  UNL1        0.0114
      8 C         -29.2201    2.9705   32.7473 C.2     1  UNL1        0.0194
      9 C         -28.8837    3.9298   32.9634 C.2     1  UNL1        0.2185
     10 C         -28.3481    4.8963   32.9143 C.2     1  UNL1        0.1746
     11 C         -27.5652    6.0326   32.6507 C.2     1  UNL1        0.0115
     12 C         -30.2780    2.5516   33.9400 C.3     1  UNL1        0.0345
     13 C         -27.0427    6.4388   31.4629 C.3     1  UNL1        0.0545
     14 C         -27.2268    5.8785   30.2932 C.ar    1  UNL1       -0.0200
     15 C         -26.4973    6.2683   29.1534 C.ar    1  UNL1       -0.0042
     16 C         -26.3398    5.3549   28.0884 C.ar    1  UNL1       -0.0003
     17 C         -27.0583    4.1731   28.1490 C.ar    1  UNL1       -0.0003
     18 C         -27.9503    3.9204   29.2051 C.ar    1  UNL1       -0.0029
     19 C         -27.9343    4.7607   30.3179 C.ar    1  UNL1       -0.0043
     20 C         -29.2166    4.8695   30.6855 C.3     1  UNL1        0.1383
     21 N         -29.9784    5.7108   29.7259 N.pl3   1  UNL1       -0.2315
     22 C         -31.3008    5.9886   29.8246 C.2     1  UNL1        0.0805
     23 C         -31.8179    6.7180   28.8206 C.2     1  UNL1        0.0188
     24 F         -28.6327    5.4080   33.9450 F       1  UNL1       -0.2011
     25 O         -28.3677    3.6623   34.0322 O.2     1  UNL1       -0.2845
@<TRIPOS>BOND
     1     1     2    1
     2     5     8    1
     3     8     9    2
     4     9    10    1
     5    10    11    2
     6     8    12    1
     7    11    13    1
     8    13    14    1
     9    19    20    1
    10    20    21    1
    11    21    22    1
    12    22    23    2
    13    10    24    1
    14     9    25    1
    15     2     3   ar
    16     3     4   ar
    17     4     5   ar
    18     5     6   ar
    19     6     7   ar
    20     7     2   ar
    21    14    15   ar
    22    15    16   ar
    23    16    17   ar
    24    17    18   ar
    25    18    19   ar
    26    19    14   ar
