@<TRIPOS>MOLECULE
No_3705-gen_results/8p0m/2024-11-26-14-13-15/
 14 14 0 0 0
SMALL
GASTEIGER

@<TRIPOS>ATOM
      1 C         -28.0162   -0.8135   28.8779 C.ar    1  UNL1        0.0550
      2 C         -28.4690   -0.7850   29.8287 C.2     1  UNL1        0.2648
      3 C         -28.1816    0.4277   28.1134 C.ar    1  UNL1        0.0043
      4 C         -27.4498    0.6435   26.8500 C.ar    1  UNL1       -0.0024
      5 C         -26.1815    0.0357   26.7145 C.ar    1  UNL1        0.0001
      6 C         -25.7800   -0.9326   27.6938 C.ar    1  UNL1       -0.0024
      7 C         -26.5568   -1.2134   28.7413 C.ar    1  UNL1        0.0043
      8 N         -29.6101   -0.2783   30.1938 N.am    1  UNL1       -0.1998
      9 O         -28.2441   -1.9032   30.7503 O.2     1  UNL1       -0.2684
     10 C         -30.4977   -0.5751   31.3388 C.3     1  UNL1        0.1388
     11 C         -25.2993    0.3244   25.5922 C.3     1  UNL1        0.1490
     12 N         -24.5765    1.3650   25.3349 N.pl3   1  UNL1       -0.1841
     13 C         -23.7722    1.9181   26.3235 C.1     1  UNL1        0.0320
     14 C         -24.3010    2.2414   27.5952 C.1     1  UNL1        0.0087
@<TRIPOS>BOND
     1     1     2    1
     2     2     8   am
     3     2     9    2
     4     8    10    1
     5     5    11    1
     6    11    12    1
     7    12    13    1
     8    13    14    3
     9     1     3   ar
    10     3     4   ar
    11     4     5   ar
    12     5     6   ar
    13     6     7   ar
    14     7     1   ar
