@<TRIPOS>MOLECULE
No_3707-gen_results/8p0m/2024-11-26-14-13-15/
 13 14 0 0 0
SMALL
GASTEIGER

@<TRIPOS>ATOM
      1 C         -28.0162   -0.8135   28.8779 C.ar    1  UNL1        0.0296
      2 C         -28.4690   -0.7850   29.8287 C.ar    1  UNL1        0.0023
      3 C         -26.5455   -0.8762   28.8500 C.ar    1  UNL1        0.1401
      4 C         -25.8041   -1.0324   30.0571 C.ar    1  UNL1        0.0275
      5 C         -26.5373   -1.0386   31.2171 C.ar    1  UNL1        0.0022
      6 C         -27.8843   -0.9532   31.1862 C.ar    1  UNL1        0.0001
      7 C         -24.3555   -1.1121   30.0346 C.ar    1  UNL1        0.0022
      8 C         -23.7079   -1.1920   30.8827 C.ar    1  UNL1        0.0001
      9 C         -22.1991   -1.0954   30.9345 C.ar    1  UNL1        0.0000
     10 C         -21.6564   -0.8348   29.7237 C.ar    1  UNL1        0.0000
     11 C         -22.4112   -0.6494   28.5512 C.ar    1  UNL1        0.0000
     12 C         -23.8549   -0.7781   28.7009 C.ar    1  UNL1        0.0001
     13 F         -25.8849   -0.8531   27.7454 F       1  UNL1       -0.2042
@<TRIPOS>BOND
     1     4     7    1
     2     3    13    1
     3     1     2   ar
     4     2     6   ar
     5     6     5   ar
     6     5     4   ar
     7     4     3   ar
     8     3     1   ar
     9     7     8   ar
    10     8     9   ar
    11     9    10   ar
    12    10    11   ar
    13    11    12   ar
    14    12     7   ar
