@<TRIPOS>MOLECULE
No_3709-gen_results/8p0m/2024-11-26-14-13-15/
 13 14 0 0 0
SMALL
GASTEIGER

@<TRIPOS>ATOM
      1 C         -28.0162   -0.8135   28.8779 C.ar    1  UNL1        0.0000
      2 C         -27.0636   -0.1189   28.6079 C.ar    1  UNL1        0.0000
      3 C         -26.9287    1.1713   29.0083 C.ar    1  UNL1        0.0002
      4 C         -25.7702    2.0341   28.6884 C.ar    1  UNL1        0.0066
      5 C         -24.7141    1.4431   27.9188 C.ar    1  UNL1        0.0798
      6 C         -24.8590    0.0783   27.5836 C.ar    1  UNL1        0.0066
      7 C         -25.9647   -0.6606   27.9164 C.ar    1  UNL1        0.0002
      8 C         -28.6510   -0.6086   30.2543 C.ar    1  UNL1        0.0000
      9 C         -28.9359    0.6863   30.5312 C.ar    1  UNL1        0.0000
     10 C         -27.8080    1.6040   30.1303 C.ar    1  UNL1        0.0000
     11 C         -23.5671    2.1807   27.4594 C.2     1  UNL1        0.3878
     12 O         -22.4198    1.8091   27.6813 O.co2   1  UNL1       -0.2406
     13 O         -23.8251    3.2598   26.7660 O.co2   1  UNL1       -0.2406
@<TRIPOS>BOND
     1     5    11    1
     2    11    12   ar
     3    11    13   ar
     4     3     4   ar
     5     4     5   ar
     6     5     6   ar
     7     6     7   ar
     8     7     2   ar
     9     1     2   ar
    10     2     3   ar
    11     3    10   ar
    12    10     9   ar
    13     9     8   ar
    14     8     1   ar
