@<TRIPOS>MOLECULE
No_371-gen_results/8p0m/2024-11-26-14-13-15/
 14 14 0 0 0
SMALL
GASTEIGER

@<TRIPOS>ATOM
      1 C         -28.0162   -0.8135   28.8779 C.ar    1  UNL1       -0.0034
      2 C         -27.0636   -0.1190   28.6079 C.ar    1  UNL1       -0.0178
      3 C         -26.9716    0.7139   27.5060 C.ar    1  UNL1       -0.0034
      4 C         -28.1053    0.7744   26.6421 C.ar    1  UNL1        0.0064
      5 C         -29.2008    0.1044   27.0527 C.ar    1  UNL1        0.0345
      6 C         -29.2096   -0.6029   28.1853 C.ar    1  UNL1        0.0064
      7 BR        -30.7000    0.2517   25.9564 Br      1  UNL1       -0.0490
      8 C         -25.6957   -0.2353   29.4191 C.3     1  UNL1        0.0523
      9 C         -24.9699    0.7769   29.7609 C.2     1  UNL1       -0.0214
     10 C         -23.7189    0.8762   28.9036 C.2     1  UNL1       -0.0042
     11 C         -23.1806    2.0640   28.4560 C.2     1  UNL1       -0.0003
     12 C         -21.9958    1.9614   27.6045 C.2     1  UNL1       -0.0000
     13 C         -21.4161    0.9156   27.7145 C.2     1  UNL1       -0.0000
     14 C         -21.6197   -0.2220   28.4171 C.2     1  UNL1       -0.0000
@<TRIPOS>BOND
     1     5     7    1
     2     2     8    1
     3     8     9    1
     4     9    10    2
     5    10    11    1
     6    11    12    2
     7    12    13    1
     8    13    14    2
     9     1     2   ar
    10     2     3   ar
    11     3     4   ar
    12     4     5   ar
    13     5     6   ar
    14     6     1   ar
