@<TRIPOS>MOLECULE
No_3710-gen_results/8p0m/2024-11-26-14-13-15/
 18 21 0 0 0
SMALL
GASTEIGER

@<TRIPOS>ATOM
      1 CL        -28.1493   -0.8198   28.9079 Cl      1  UNL1       -0.0826
      2 C         -27.8339    0.4961   29.0598 C.ar    1  UNL1        0.0534
      3 C         -27.6022    1.0128   30.2974 C.ar    1  UNL1        0.0110
      4 C         -27.1699    2.3964   30.5338 C.ar    1  UNL1        0.0002
      5 C         -26.9133    3.1828   29.3680 C.ar    1  UNL1       -0.0076
      6 C         -26.4454    4.5053   29.4808 C.ar    1  UNL1       -0.0181
      7 C         -26.1618    4.9962   30.8041 C.ar    1  UNL1       -0.0039
      8 C         -26.3580    4.1920   31.9306 C.ar    1  UNL1       -0.0003
      9 C         -26.8159    2.9100   31.7920 C.ar    1  UNL1       -0.0000
     10 C         -27.6214    1.4101   27.9165 C.ar    1  UNL1       -0.0152
     11 C         -27.1438    2.7333   28.0856 C.ar    1  UNL1       -0.0219
     12 C         -26.1094    5.4387   28.4223 C.3     1  UNL1        0.0520
     13 C         -25.5478    4.9475   27.2155 C.2     1  UNL1       -0.0257
     14 C         -25.8788    3.8601   26.4322 C.2     1  UNL1       -0.0263
     15 C         -26.3333    2.7732   27.0113 C.3     1  UNL1        0.0439
     16 C         -26.5743    1.7276   25.9785 C.3     1  UNL1        0.0124
     17 C         -26.0312    1.2330   24.9365 C.3     1  UNL1        0.0010
     18 C         -27.4949    0.7631   26.7467 C.3     1  UNL1        0.0275
@<TRIPOS>BOND
     1     1     2    1
     2     6    12    1
     3    12    13    1
     4    13    14    2
     5    11    15    1
     6    14    15    1
     7    15    16    1
     8    16    17    1
     9    10    18    1
    10    16    18    1
    11     2     3   ar
    12     3     4   ar
    13     5    11   ar
    14    11    10   ar
    15    10     2   ar
    16     4     5   ar
    17     5     6   ar
    18     6     7   ar
    19     7     8   ar
    20     8     9   ar
    21     9     4   ar
