@<TRIPOS>MOLECULE
No_3711-gen_results/8p0m/2024-11-26-14-13-15/
 35 39 0 0 0
SMALL
GASTEIGER

@<TRIPOS>ATOM
      1 C         -28.0162   -0.8135   28.8779 C.ar    1  UNL1        0.0065
      2 C         -27.0636   -0.1190   28.6079 C.ar    1  UNL1        0.0002
      3 C         -25.7923   -0.4302   29.0761 C.ar    1  UNL1        0.0000
      4 C         -24.5456    0.3494   28.8225 C.ar    1  UNL1        0.0008
      5 C         -23.2409    0.0217   29.3323 C.ar    1  UNL1        0.0001
      6 C         -22.1362    0.7695   29.0059 C.ar    1  UNL1        0.0009
      7 C         -27.9050   -1.8984   29.8729 C.ar    1  UNL1        0.0760
      8 C         -26.6795   -2.3145   30.3184 C.ar    1  UNL1        0.0065
      9 C         -25.5203   -1.5564   29.9775 C.ar    1  UNL1        0.0002
     10 C         -22.1253    1.7361   28.0244 C.ar    1  UNL1        0.0114
     11 C         -24.5436    1.3861   27.7916 C.ar    1  UNL1        0.0114
     12 C         -23.3374    2.0469   27.4517 C.ar    1  UNL1        0.0577
     13 C         -29.0591   -2.7218   30.2950 C.2     1  UNL1        0.3457
     14 O         -30.1366   -2.3241   30.1734 O.3     1  UNL1       -0.4210
     15 O         -28.8231   -4.0086   30.5631 O.2     1  UNL1       -0.2445
     16 CL        -23.4688    3.2343   26.2047 Cl      1  UNL1       -0.0822
     17 C         -31.3113   -3.1211   30.3902 C.ar    1  UNL1        0.1485
     18 C         -31.5566   -3.4790   31.5273 C.ar    1  UNL1        0.0376
     19 C         -32.7547   -4.2705   31.8649 C.ar    1  UNL1        0.0028
     20 C         -33.6256   -4.4865   30.8406 C.ar    1  UNL1       -0.0034
     21 C         -32.1734   -3.2749   29.2911 C.ar    1  UNL1        0.0340
     22 C         -33.3083   -4.0075   29.5344 C.ar    1  UNL1       -0.0113
     23 C         -34.2665   -4.2336   28.4236 C.3     1  UNL1        0.0668
     24 C         -35.0957   -3.2771   28.1157 C.ar    1  UNL1       -0.0143
     25 C         -34.1388   -5.4026   27.6674 C.ar    1  UNL1       -0.0143
     26 C         -35.2219   -2.0200   28.7475 C.ar    1  UNL1       -0.0036
     27 C         -36.1460   -1.0484   28.3200 C.ar    1  UNL1       -0.0003
     28 C         -36.9229   -1.3791   27.2329 C.ar    1  UNL1       -0.0000
     29 C         -35.9526   -3.4271   26.9714 C.ar    1  UNL1       -0.0036
     30 C         -36.8551   -2.5085   26.5552 C.ar    1  UNL1       -0.0003
     31 C         -33.0137   -6.2369   27.9060 C.ar    1  UNL1       -0.0036
     32 C         -32.8548   -7.3573   27.0606 C.ar    1  UNL1       -0.0003
     33 C         -33.6441   -7.5022   26.0220 C.ar    1  UNL1       -0.0000
     34 C         -34.7240   -6.6187   25.7597 C.ar    1  UNL1       -0.0003
     35 C         -34.9370   -5.5689   26.5773 C.ar    1  UNL1       -0.0036
@<TRIPOS>BOND
     1     3     4    1
     2     7    13    1
     3    13    14    1
     4    13    15    2
     5    12    16    1
     6    14    17    1
     7    22    23    1
     8    23    24    1
     9    23    25    1
    10    17    18   ar
    11    18    19   ar
    12    19    20   ar
    13    20    22   ar
    14    22    21   ar
    15    21    17   ar
    16     1     2   ar
    17     2     3   ar
    18     3     9   ar
    19     9     8   ar
    20     8     7   ar
    21     7     1   ar
    22    24    26   ar
    23    26    27   ar
    24    27    28   ar
    25    28    30   ar
    26    30    29   ar
    27    29    24   ar
    28     4     5   ar
    29     5     6   ar
    30     6    10   ar
    31    10    12   ar
    32    12    11   ar
    33    11     4   ar
    34    25    31   ar
    35    31    32   ar
    36    32    33   ar
    37    33    34   ar
    38    34    35   ar
    39    35    25   ar
