@<TRIPOS>MOLECULE
No_3712-gen_results/8p0m/2024-11-26-14-13-15/
 20 21 0 0 0
SMALL
GASTEIGER

@<TRIPOS>ATOM
      1 C         -28.0162   -0.8135   28.8779 C.3     1  UNL1        0.1418
      2 C         -27.0636   -0.1190   28.6079 C.ar    1  UNL1       -0.0006
      3 C         -26.9287    1.1713   29.0083 C.ar    1  UNL1       -0.0026
      4 C         -25.7702    2.0341   28.6884 C.ar    1  UNL1        0.0036
      5 C         -24.7141    1.4431   27.9188 C.ar    1  UNL1        0.0714
      6 C         -24.8590    0.0783   27.5836 C.ar    1  UNL1        0.0036
      7 C         -25.9647   -0.6606   27.9164 C.ar    1  UNL1       -0.0026
      8 N         -28.6995   -0.6441   30.0766 N.am    1  UNL1       -0.1968
      9 C         -29.8035   -1.3645   30.5061 C.2     1  UNL1        0.2651
     10 C         -30.3751   -2.1790   29.7448 C.ar    1  UNL1        0.0551
     11 C         -30.4580   -3.5170   30.2214 C.ar    1  UNL1        0.0046
     12 C         -31.0648   -4.4893   29.3941 C.ar    1  UNL1        0.0001
     13 C         -31.9986   -4.1161   28.4469 C.ar    1  UNL1        0.0000
     14 C         -32.0514   -2.7283   28.1172 C.ar    1  UNL1        0.0001
     15 C         -31.3108   -1.8111   28.7925 C.ar    1  UNL1        0.0046
     16 O         -30.0754   -1.1576   31.7607 O.2     1  UNL1       -0.2684
     17 C         -23.5171    2.1431   27.5669 C.3     1  UNL1        0.4186
     18 F         -23.3438    2.7346   26.6685 F       1  UNL1       -0.1659
     19 F         -22.9855    2.8175   28.6905 F       1  UNL1       -0.1659
     20 F         -22.4149    1.1109   27.5713 F       1  UNL1       -0.1659
@<TRIPOS>BOND
     1     1     2    1
     2     1     8    1
     3     8     9   am
     4     9    10    1
     5     9    16    2
     6     5    17    1
     7    17    18    1
     8    17    19    1
     9    17    20    1
    10     2     3   ar
    11     3     4   ar
    12     4     5   ar
    13     5     6   ar
    14     6     7   ar
    15     7     2   ar
    16    10    11   ar
    17    11    12   ar
    18    12    13   ar
    19    13    14   ar
    20    14    15   ar
    21    15    10   ar
