@<TRIPOS>MOLECULE
No_3714-gen_results/8p0m/2024-11-26-14-13-15/
 14 14 0 0 0
SMALL
GASTEIGER

@<TRIPOS>ATOM
      1 C         -28.0162   -0.8135   28.8779 C.3     1  UNL1        0.1490
      2 C         -27.0636   -0.1190   28.6079 C.ar    1  UNL1        0.0001
      3 C         -27.0010    0.6913   27.4910 C.ar    1  UNL1       -0.0026
      4 C         -25.8548    1.4825   27.0830 C.ar    1  UNL1        0.0036
      5 C         -24.6901    1.4526   27.8807 C.ar    1  UNL1        0.0714
      6 C         -24.7379    0.6010   29.0416 C.ar    1  UNL1        0.0036
      7 C         -25.8234   -0.1688   29.3887 C.ar    1  UNL1       -0.0026
      8 N         -28.7300   -0.5298   30.0429 N.pl3   1  UNL1       -0.1841
      9 C         -28.9322    0.3227   30.5381 C.1     1  UNL1        0.0320
     10 C         -29.3038    1.0059   31.2658 C.1     1  UNL1        0.0087
     11 C         -23.5292    2.2517   27.5916 C.3     1  UNL1        0.4186
     12 F         -23.0181    2.7570   28.6086 F       1  UNL1       -0.1659
     13 F         -23.7216    3.2216   26.6822 F       1  UNL1       -0.1659
     14 F         -22.5319    1.4541   27.0436 F       1  UNL1       -0.1659
@<TRIPOS>BOND
     1     1     2    1
     2     1     8    1
     3     8     9    1
     4     9    10    3
     5     5    11    1
     6    11    12    1
     7    11    13    1
     8    11    14    1
     9     2     3   ar
    10     3     4   ar
    11     4     5   ar
    12     5     6   ar
    13     6     7   ar
    14     7     2   ar
