@<TRIPOS>MOLECULE
No_3715-gen_results/8p0m/2024-11-26-14-13-15/
 12 12 0 0 0
SMALL
GASTEIGER

@<TRIPOS>ATOM
      1 CL        -28.1493   -0.8198   28.9079 Cl      1  UNL1       -0.0822
      2 C         -26.9116   -0.0797   28.9452 C.ar    1  UNL1        0.0577
      3 C         -26.0490   -0.0718   27.8591 C.ar    1  UNL1        0.0111
      4 C         -25.2289    1.0128   27.6200 C.ar    1  UNL1       -0.0017
      5 C         -24.8267    1.6703   28.4074 C.ar    1  UNL1       -0.0004
      6 C         -25.3937    1.6805   29.7316 C.ar    1  UNL1       -0.0017
      7 C         -26.4014    0.8232   29.9164 C.ar    1  UNL1        0.0111
      8 C         -23.6408    2.6609   28.2043 C.3     1  UNL1        0.1441
      9 N         -22.4599    2.0847   27.8531 N.am    1  UNL1       -0.1712
     10 C         -21.8089    1.2027   28.6796 C.2     1  UNL1        0.4099
     11 F         -22.1324    0.9605   29.7668 F       1  UNL1       -0.1424
     12 O         -20.7735    0.6096   28.1310 O.2     1  UNL1       -0.2344
@<TRIPOS>BOND
     1     1     2    1
     2     5     8    1
     3     8     9    1
     4     9    10   am
     5    10    11    1
     6    10    12    2
     7     2     3   ar
     8     3     4   ar
     9     4     5   ar
    10     5     6   ar
    11     6     7   ar
    12     7     2   ar
