@<TRIPOS>MOLECULE
No_3716-gen_results/8p0m/2024-11-26-14-13-15/
 35 38 0 0 0
SMALL
GASTEIGER

@<TRIPOS>ATOM
      1 C         -28.0162   -0.8135   28.8779 C.ar    1  UNL1        0.0114
      2 C         -27.0636   -0.1189   28.6079 C.ar    1  UNL1        0.0008
      3 C         -25.7923   -0.4302   29.0761 C.ar    1  UNL1        0.0001
      4 C         -25.5756   -1.5654   29.9363 C.ar    1  UNL1        0.0009
      5 C         -26.7354   -2.3004   30.2173 C.ar    1  UNL1        0.0114
      6 C         -27.9184   -1.9537   29.7629 C.ar    1  UNL1        0.0577
      7 CL        -29.2678   -2.8890   30.2152 Cl      1  UNL1       -0.0822
      8 C         -27.1068    1.1096   27.7591 C.ar    1  UNL1       -0.0001
      9 C         -26.6107    2.1768   27.8697 C.ar    1  UNL1        0.0045
     10 C         -26.6373    3.2700   26.9096 C.ar    1  UNL1        0.0540
     11 C         -27.3028    3.0426   25.7003 C.ar    1  UNL1        0.0020
     12 C         -27.7920    0.8766   26.4300 C.ar    1  UNL1       -0.0025
     13 C         -27.8536    1.8252   25.5025 C.ar    1  UNL1       -0.0007
     14 C         -28.5715    1.5876   24.2380 C.3     1  UNL1        0.1363
     15 C         -29.6848    2.3045   24.0758 C.ar    1  UNL1        0.0000
     16 C         -30.7610    1.9535   23.2400 C.ar    1  UNL1        0.0088
     17 C         -31.8090    2.8690   22.9845 C.ar    1  UNL1        0.0574
     18 C         -31.9549    4.0391   23.7394 C.ar    1  UNL1        0.0114
     19 C         -30.9625    4.3430   24.6965 C.ar    1  UNL1        0.0006
     20 C         -29.8871    3.6275   24.8626 C.ar    1  UNL1       -0.0025
     21 N         -28.2157    0.6066   23.5087 N.3     1  UNL1       -0.1233
     22 CL        -32.9916    2.3786   21.8776 Cl      1  UNL1       -0.0823
     23 C         -25.9696    4.5606   27.2701 C.2     1  UNL1        0.2565
     24 N         -26.2822    5.2615   28.0038 N.am    1  UNL1       -0.2327
     25 C         -26.0846    5.1663   29.3274 C.ar    1  UNL1        0.0584
     26 C         -26.9293    5.5679   30.1828 C.ar    1  UNL1        0.0152
     27 C         -26.1293    6.7257   27.6703 C.2     1  UNL1        0.0723
     28 C         -27.0228    5.0250   31.3887 C.ar    1  UNL1        0.0013
     29 C         -26.0155    4.1658   31.8897 C.ar    1  UNL1        0.0001
     30 C         -25.0621    3.7057   30.9920 C.ar    1  UNL1        0.0013
     31 C         -25.1380    4.1136   29.6739 C.ar    1  UNL1        0.0152
     32 O         -24.7513    4.6064   26.7645 O.2     1  UNL1       -0.2692
     33 C         -27.2371    7.4114   27.2660 C.2     1  UNL1        0.0165
     34 C         -28.3141    7.0168   27.0207 C.2     1  UNL1        0.0013
     35 C         -29.4294    7.7338   26.5014 C.2     1  UNL1        0.0000
@<TRIPOS>BOND
     1     6     7    1
     2     2     8    1
     3    13    14    1
     4    14    15    1
     5    14    21    1
     6    17    22    1
     7    10    23    1
     8    23    24   am
     9    24    25    1
    10    24    27    1
    11    23    32    2
    12    27    33    2
    13    33    34    1
    14    34    35    2
    15    15    16   ar
    16    16    17   ar
    17    17    18   ar
    18    18    19   ar
    19    19    20   ar
    20    20    15   ar
    21     1     2   ar
    22     2     3   ar
    23     3     4   ar
    24     4     5   ar
    25     5     6   ar
    26     6     1   ar
    27    25    26   ar
    28    26    28   ar
    29    28    29   ar
    30    29    30   ar
    31    30    31   ar
    32    31    25   ar
    33     8     9   ar
    34     9    10   ar
    35    10    11   ar
    36    11    13   ar
    37    13    12   ar
    38    12     8   ar
