@<TRIPOS>MOLECULE
No_3717-gen_results/8p0m/2024-11-26-14-13-15/
 16 16 0 0 0
SMALL
GASTEIGER

@<TRIPOS>ATOM
      1 C         -28.0162   -0.8135   28.8779 C.ar    1  UNL1       -0.0001
      2 C         -27.0636   -0.1189   28.6079 C.ar    1  UNL1       -0.0000
      3 C         -26.9716    0.7139   27.5060 C.ar    1  UNL1       -0.0001
      4 C         -28.1053    0.7744   26.6421 C.ar    1  UNL1        0.0039
      5 C         -29.2041    0.1179   27.0477 C.ar    1  UNL1        0.0714
      6 C         -30.3488    0.2568   26.2203 C.3     1  UNL1        0.4186
      7 C         -29.1817   -0.6758   28.1173 C.ar    1  UNL1        0.0039
      8 F         -30.1729   -0.1730   25.0430 F       1  UNL1       -0.1659
      9 F         -31.3325   -0.5685   26.7043 F       1  UNL1       -0.1659
     10 F         -30.8378    1.4622   26.0965 F       1  UNL1       -0.1659
     11 C         -25.6740    1.4383   27.1313 C.2     1  UNL1       -0.0000
     12 C         -24.5658    1.0375   27.8014 C.2     1  UNL1       -0.0000
     13 C         -23.3085    1.7855   27.4590 C.2     1  UNL1       -0.0000
     14 C         -22.1110    1.5344   28.2419 C.2     1  UNL1        0.0000
     15 C         -22.0794    0.4437   29.0988 C.2     1  UNL1        0.0000
     16 C         -23.2012   -0.3617   29.3530 C.2     1  UNL1        0.0000
@<TRIPOS>BOND
     1     5     6    1
     2     6     8    1
     3     6     9    1
     4     6    10    1
     5     3    11    1
     6    11    12    2
     7    12    13    1
     8    13    14    2
     9    14    15    1
    10    15    16    2
    11     1     2   ar
    12     2     3   ar
    13     3     4   ar
    14     4     5   ar
    15     5     7   ar
    16     7     1   ar
