@<TRIPOS>MOLECULE
No_3718-gen_results/8p0m/2024-11-26-14-13-15/
 10 10 0 0 0
SMALL
GASTEIGER

@<TRIPOS>ATOM
      1 C         -28.0162   -0.8135   28.8779 C.3     1  UNL1        0.1356
      2 C         -27.0636   -0.1189   28.6079 C.ar    1  UNL1       -0.0032
      3 C         -26.8756    1.1325   28.9134 C.ar    1  UNL1       -0.0028
      4 C         -25.6883    1.9515   28.5672 C.ar    1  UNL1        0.0013
      5 C         -24.6394    1.2834   27.8753 C.ar    1  UNL1        0.0209
      6 C         -24.8068   -0.0513   27.6040 C.ar    1  UNL1        0.0013
      7 C         -25.9019   -0.7670   27.9511 C.ar    1  UNL1       -0.0028
      8 N         -27.9985   -1.5833   30.1015 N.3     1  UNL1       -0.1262
      9 C         -23.4538    1.9850   27.4766 C.2     1  UNL1        0.1221
     10 N         -22.2637    1.6277   27.6158 N.2     1  UNL1       -0.1464
@<TRIPOS>BOND
     1     1     8    1
     2     5     9    1
     3     9    10    2
     4     1     2    1
     5     2     3   ar
     6     3     4   ar
     7     4     5   ar
     8     5     6   ar
     9     6     7   ar
    10     7     2   ar
