@<TRIPOS>MOLECULE
No_3719-gen_results/8p0m/2024-11-26-14-13-15/
 16 16 0 0 0
SMALL
GASTEIGER

@<TRIPOS>ATOM
      1 C         -28.0162   -0.8135   28.8779 C.ar    1  UNL1        0.0042
      2 C         -27.0636   -0.1189   28.6079 C.ar    1  UNL1        0.0017
      3 C         -25.7647   -0.3897   29.0360 C.ar    1  UNL1        0.0320
      4 C         -25.5296   -1.5302   29.9014 C.ar    1  UNL1        0.0066
      5 C         -26.6577   -2.2915   30.2035 C.ar    1  UNL1        0.0071
      6 C         -27.8432   -1.9747   29.7510 C.ar    1  UNL1        0.0795
      7 BR        -24.2442    0.6516   28.6441 Br      1  UNL1       -0.0493
      8 C         -28.9874   -2.8515   30.1817 C.2     1  UNL1        0.3877
      9 O         -28.8687   -4.0722   30.2016 O.co2   1  UNL1       -0.2406
     10 O         -30.0983   -2.3407   30.4899 O.co2   1  UNL1       -0.2406
     11 C         -27.1812    1.0890   27.6583 C.3     1  UNL1        0.1176
     12 N         -27.0588    0.9648   26.3869 N.3     1  UNL1       -0.1886
     13 C         -27.6171    0.3215   25.6793 C.3     1  UNL1        0.2170
     14 N         -28.7075   -0.2533   25.9035 N.2     1  UNL1       -0.2315
     15 C         -29.6086   -0.7013   24.9560 C.2     1  UNL1        0.2015
     16 N         -30.7984   -1.2759   25.1653 N.pl3   1  UNL1       -0.1044
@<TRIPOS>BOND
     1     3     7    1
     2     6     8    1
     3     8     9   ar
     4     8    10   ar
     5     2    11    1
     6    11    12    1
     7    12    13    1
     8    13    14    1
     9    14    15    2
    10    15    16    1
    11     1     2   ar
    12     2     3   ar
    13     3     4   ar
    14     4     5   ar
    15     5     6   ar
    16     6     1   ar
