@<TRIPOS>MOLECULE
No_372-gen_results/8p0m/2024-11-26-14-13-15/
 20 21 0 0 0
SMALL
GASTEIGER

@<TRIPOS>ATOM
      1 C         -28.0162   -0.8135   28.8779 C.ar    1  UNL1        0.0063
      2 C         -28.4690   -0.7850   29.8287 C.ar    1  UNL1        0.0798
      3 C         -26.5455   -0.8762   28.8500 C.ar    1  UNL1       -0.0041
      4 C         -25.8041   -1.0324   30.0571 C.ar    1  UNL1       -0.0225
      5 C         -27.9437   -0.9869   31.2075 C.ar    1  UNL1        0.0063
      6 C         -26.5825   -1.0386   31.2231 C.ar    1  UNL1       -0.0041
      7 C         -30.0606   -0.7371   29.9024 C.2     1  UNL1        0.3878
      8 O         -30.6052    0.0855   30.7066 O.co2   1  UNL1       -0.2406
      9 O         -30.6160   -1.1030   28.8595 O.co2   1  UNL1       -0.2406
     10 C         -24.3914   -1.2008   30.2867 C.3     1  UNL1        0.0227
     11 C         -23.7203   -1.9350   29.3803 C.3     1  UNL1        0.0044
     12 C         -23.6830   -0.4499   31.2334 C.3     1  UNL1        0.0090
     13 C         -24.3001   -2.7938   28.4988 C.3     1  UNL1        0.0003
     14 C         -23.3766    0.9465   31.0010 C.3     1  UNL1        0.0267
     15 C         -24.3426    1.9502   31.3866 C.ar    1  UNL1       -0.0222
     16 C         -24.5945    2.1234   32.5610 C.ar    1  UNL1       -0.0043
     17 C         -25.6377    3.2118   32.9306 C.ar    1  UNL1       -0.0003
     18 C         -26.1270    3.9803   31.8934 C.ar    1  UNL1       -0.0000
     19 C         -24.8517    2.8511   30.3226 C.ar    1  UNL1       -0.0043
     20 C         -25.7586    3.7878   30.6213 C.ar    1  UNL1       -0.0003
@<TRIPOS>BOND
     1     2     7    1
     2     7     8   ar
     3     7     9   ar
     4     4    10    1
     5    10    11    1
     6    10    12    1
     7    11    13    1
     8    12    14    1
     9    14    15    1
    10    15    16   ar
    11    16    17   ar
    12    17    18   ar
    13    18    20   ar
    14    20    19   ar
    15    19    15   ar
    16     1     2   ar
    17     2     5   ar
    18     5     6   ar
    19     6     4   ar
    20     4     3   ar
    21     3     1   ar
