@<TRIPOS>MOLECULE
No_3721-gen_results/8p0m/2024-11-26-14-13-15/
 35 38 0 0 0
SMALL
GASTEIGER

@<TRIPOS>ATOM
      1 C         -28.0162   -0.8135   28.8779 C.ar    1  UNL1        0.0069
      2 C         -28.4690   -0.7850   29.8287 C.ar    1  UNL1        0.0555
      3 C         -26.5042   -0.7777   28.8766 C.ar    1  UNL1        0.0298
      4 C         -25.8103   -0.8531   30.1028 C.ar    1  UNL1        0.1401
      5 C         -27.9906   -0.8916   31.2257 C.ar    1  UNL1        0.0069
      6 C         -26.6042   -0.8676   31.2652 C.ar    1  UNL1        0.0298
      7 F         -24.5534   -0.7870   30.1406 F       1  UNL1       -0.2042
      8 C         -30.0954   -0.8409   29.8497 C.2     1  UNL1        0.2690
      9 O         -30.5236   -0.4692   28.9258 O.2     1  UNL1       -0.2680
     10 N         -30.7799   -1.3301   30.9281 N.am    1  UNL1       -0.1739
     11 C         -31.7790   -1.6386   31.0405 C.ar    1  UNL1        0.0929
     12 C         -32.7299   -1.5960   30.3847 C.ar    1  UNL1        0.1168
     13 N         -34.0461   -2.0910   30.6691 N.ar    1  UNL1       -0.2272
     14 C         -32.2321   -2.3293   32.3785 C.ar    1  UNL1        0.0211
     15 C         -33.4252   -2.7803   32.7248 C.ar    1  UNL1        0.0363
     16 C         -34.3675   -2.5987   31.7530 C.ar    1  UNL1        0.1393
     17 N         -35.6512   -3.0033   31.9240 N.pl3   1  UNL1       -0.2511
     18 C         -35.9964   -4.0578   32.5429 C.ar    1  UNL1        0.0577
     19 C         -36.4944   -5.1103   32.1565 C.ar    1  UNL1        0.0266
     20 C         -36.8415   -6.2816   32.9371 C.ar    1  UNL1        0.0589
     21 C         -36.5609   -6.2286   34.3188 C.ar    1  UNL1        0.0115
     22 C         -35.9931   -5.0917   34.8239 C.ar    1  UNL1        0.0022
     23 C         -35.6667   -3.9817   34.0653 C.ar    1  UNL1        0.0152
     24 C         -36.7427   -2.2824   31.3277 C.ar    1  UNL1        0.0569
     25 C         -37.1370   -2.6258   30.0683 C.ar    1  UNL1        0.0155
     26 C         -38.0988   -1.9908   29.5251 C.ar    1  UNL1        0.0087
     27 C         -37.2767   -1.2731   32.0577 C.ar    1  UNL1        0.0155
     28 C         -38.3306   -0.5561   31.5367 C.ar    1  UNL1        0.0087
     29 C         -38.7570   -0.9050   30.2430 C.ar    1  UNL1        0.0824
     30 P         -40.1261   -0.0305   29.4847 P.3     1  UNL1        0.3921
     31 O         -40.6636   -0.7406   28.4352 O.2     1  UNL1       -0.2507
     32 O         -40.5384    0.5249   30.4506 O.3     1  UNL1       -0.1363
     33 O         -39.0361    1.0215   28.6903 O.3     1  UNL1       -0.2871
     34 CL        -37.6132   -7.5759   32.2361 Cl      1  UNL1       -0.0822
     35 C         -39.4279    1.8662   27.8479 C.3     1  UNL1        0.1842
@<TRIPOS>BOND
     1     4     7    1
     2     2     8    1
     3     8     9    2
     4     8    10   am
     5    16    17    1
     6    17    18    1
     7    17    24    1
     8    29    30    1
     9    30    31    2
    10    30    32    1
    11    30    33    1
    12    20    34    1
    13    33    35    1
    14    10    11    1
    15    18    19   ar
    16    19    20   ar
    17    20    21   ar
    18    21    22   ar
    19    22    23   ar
    20    23    18   ar
    21    24    25   ar
    22    25    26   ar
    23    26    29   ar
    24    29    28   ar
    25    28    27   ar
    26    27    24   ar
    27     1     2   ar
    28     2     5   ar
    29     5     6   ar
    30     6     4   ar
    31     4     3   ar
    32     3     1   ar
    33    11    12   ar
    34    12    13   ar
    35    13    16   ar
    36    16    15   ar
    37    15    14   ar
    38    14    11   ar
