@<TRIPOS>MOLECULE
No_3722-gen_results/8p0m/2024-11-26-14-13-15/
 30 32 0 0 0
SMALL
GASTEIGER

@<TRIPOS>ATOM
      1 O         -28.1229   -1.3353   28.4874 O.2     1  UNL1       -0.2699
      2 C         -27.4806   -0.4044   28.7094 C.2     1  UNL1        0.2490
      3 N         -27.2412    0.3910   29.5098 N.am    1  UNL1       -0.2760
      4 C         -26.6423    0.1187   27.3495 C.ar    1  UNL1        0.0544
      5 C         -26.8725    0.0603   26.3315 C.ar    1  UNL1        0.0046
      6 C         -25.9614    0.5946   25.2636 C.ar    1  UNL1        0.0010
      7 C         -24.7093    1.0619   25.6741 C.ar    1  UNL1        0.0114
      8 C         -24.4120    1.1106   26.9923 C.ar    1  UNL1        0.0578
      9 C         -25.3014    0.6894   27.9046 C.ar    1  UNL1        0.0159
     10 C         -28.1094    0.0168   30.8052 C.3     1  UNL1        0.0937
     11 CL        -22.9290    1.9128   27.2958 Cl      1  UNL1       -0.0822
     12 C         -28.7655    1.2000   31.2594 C.3     1  UNL1        0.0216
     13 C         -28.6651    2.1079   30.7791 C.3     1  UNL1        0.0051
     14 C         -27.7406    2.6061   29.7822 C.3     1  UNL1        0.0368
     15 C         -26.5588    1.4745   29.9878 C.3     1  UNL1        0.0953
     16 C         -28.0219    2.7719   28.4067 C.3     1  UNL1        0.0972
     17 C         -27.4832    3.9427   27.7356 C.3     1  UNL1        0.0201
     18 C         -26.9897    3.8764   30.2025 C.3     1  UNL1        0.0033
     19 C         -26.4669    4.8470   29.4323 C.3     1  UNL1        0.0002
     20 C         -26.8263    4.9199   28.1620 C.3     1  UNL1        0.0017
     21 C         -27.9163    3.9226   26.1989 C.3     1  UNL1        0.0018
     22 N         -29.2648    2.4334   28.0913 N.am    1  UNL1       -0.1995
     23 C         -30.4427    2.7159   27.8754 C.2     1  UNL1        0.3201
     24 O         -30.7393    3.9092   28.0614 O.2     1  UNL1       -0.2633
     25 C         -31.2957    1.8697   27.0972 C.2     1  UNL1        0.3201
     26 O         -31.2142    1.4842   26.0605 O.2     1  UNL1       -0.2633
     27 N         -32.5020    1.6736   27.7847 N.am    1  UNL1       -0.1978
     28 C         -33.5307    0.7581   27.2713 C.3     1  UNL1        0.1156
     29 C         -33.3582   -0.1144   26.5230 C.3     1  UNL1        0.0234
     30 C         -32.1639   -0.6662   26.2958 C.3     1  UNL1        0.0019
@<TRIPOS>BOND
     1     1     2    2
     2     2     3   am
     3     2     4    1
     4     3    10    1
     5     8    11    1
     6    10    12    1
     7    13    14    1
     8     3    15    1
     9    14    15    1
    10    14    16    1
    11    16    17    1
    12    14    18    1
    13    19    20    1
    14    17    21    1
    15    16    22    1
    16    22    23   am
    17    23    24    2
    18    23    25    1
    19    25    26    2
    20    25    27   am
    21    27    28    1
    22    28    29    1
    23    29    30    1
    24    12    13    1
    25    17    20    1
    26    19    18    1
    27     4     5   ar
    28     5     6   ar
    29     6     7   ar
    30     7     8   ar
    31     8     9   ar
    32     9     4   ar
