@<TRIPOS>MOLECULE
No_3724-gen_results/8p0m/2024-11-26-14-13-15/
 33 36 0 0 0
SMALL
GASTEIGER

@<TRIPOS>ATOM
      1 C         -28.0162   -0.8135   28.8779 C.ar    1  UNL1        0.0111
      2 C         -28.4690   -0.7850   29.8287 C.ar    1  UNL1        0.0577
      3 C         -28.1960    0.3478   28.0550 C.ar    1  UNL1       -0.0030
      4 C         -29.0191    1.3501   28.3782 C.ar    1  UNL1       -0.0164
      5 C         -29.4107    0.1803   30.3782 C.ar    1  UNL1        0.0111
      6 C         -29.2236    2.4924   27.5425 C.3     1  UNL1        0.0687
      7 C         -29.5873    1.2242   29.6185 C.ar    1  UNL1       -0.0030
      8 C         -29.2305    2.7694   26.4507 C.ar    1  UNL1       -0.0164
      9 C         -28.9081    1.6236   25.5044 C.ar    1  UNL1       -0.0039
     10 C         -29.0432    1.7969   24.1266 C.ar    1  UNL1       -0.0003
     11 C         -29.4940    3.0563   23.6761 C.ar    1  UNL1       -0.0000
     12 C         -29.8940    4.0478   24.5033 C.ar    1  UNL1       -0.0003
     13 C         -29.7917    3.9303   25.8582 C.ar    1  UNL1       -0.0039
     14 C         -29.3827    3.7788   28.5004 C.3     1  UNL1        0.1255
     15 N         -28.4992    4.6415   28.5255 N.am    1  UNL1       -0.2010
     16 C         -27.6467    4.8458   29.2189 C.2     1  UNL1        0.2568
     17 O         -27.6115    4.4528   30.3846 O.2     1  UNL1       -0.2720
     18 C         -26.4417    5.7630   28.7434 C.3     1  UNL1        0.1618
     19 CL        -25.1257    5.8981   29.2931 Cl      1  UNL1       -0.1048
     20 C         -26.7971    6.5145   27.4887 C.3     1  UNL1        0.0519
     21 C         -27.0671    7.7175   27.6682 C.ar    1  UNL1       -0.0205
     22 C         -27.0401    8.4002   28.7683 C.ar    1  UNL1       -0.0042
     23 C         -27.4054    9.8449   28.8420 C.ar    1  UNL1       -0.0003
     24 C         -27.7961   10.3976   27.6164 C.ar    1  UNL1       -0.0000
     25 C         -27.8651    9.7806   26.4418 C.ar    1  UNL1       -0.0003
     26 C         -27.5145    8.3921   26.4164 C.ar    1  UNL1       -0.0042
     27 CL        -28.2119   -2.2726   30.8976 Cl      1  UNL1       -0.0822
     28 C         -30.8433    4.2943   28.4474 C.ar    1  UNL1       -0.0019
     29 C         -30.9539    5.5127   29.0083 C.ar    1  UNL1       -0.0026
     30 C         -32.2094    6.2061   28.8758 C.ar    1  UNL1       -0.0003
     31 C         -33.2424    5.5253   28.3056 C.ar    1  UNL1       -0.0000
     32 C         -33.0859    4.2744   27.7346 C.ar    1  UNL1       -0.0003
     33 C         -31.8323    3.6515   27.7919 C.ar    1  UNL1       -0.0026
@<TRIPOS>BOND
     1     4     6    1
     2     6    14    1
     3    14    15    1
     4    15    16   am
     5    16    17    2
     6    16    18    1
     7    18    19    1
     8    18    20    1
     9     2    27    1
    10    14    28    1
    11     6     8    1
    12    20    21    1
    13    28    29   ar
    14    29    30   ar
    15    30    31   ar
    16    31    32   ar
    17    32    33   ar
    18    33    28   ar
    19    21    22   ar
    20    22    23   ar
    21    23    24   ar
    22    24    25   ar
    23    25    26   ar
    24    26    21   ar
    25     8     9   ar
    26     9    10   ar
    27    10    11   ar
    28    11    12   ar
    29    12    13   ar
    30    13     8   ar
    31     1     2   ar
    32     2     5   ar
    33     5     7   ar
    34     7     4   ar
    35     4     3   ar
    36     3     1   ar
