@<TRIPOS>MOLECULE
No_3725-gen_results/8p0m/2024-11-26-14-13-15/
 15 16 0 0 0
SMALL
GASTEIGER

@<TRIPOS>ATOM
      1 F         -28.0727   -1.2542   28.5316 F       1  UNL1       -0.2010
      2 C         -27.3591   -0.3792   28.7224 C.ar    1  UNL1        0.1738
      3 C         -26.3323   -0.6441   29.4520 C.ar    1  UNL1        0.0328
      4 C         -25.2562    0.3203   29.7818 C.ar    1  UNL1        0.0025
      5 C         -25.4242    1.6275   29.2026 C.ar    1  UNL1        0.0033
      6 C         -26.5263    1.8254   28.4032 C.ar    1  UNL1        0.0392
      7 C         -27.4513    0.8601   28.1355 C.ar    1  UNL1        0.1663
      8 O         -28.4783    1.1476   27.3388 O.3     1  UNL1       -0.4684
      9 C         -29.6495    0.8540   27.6425 C.3     1  UNL1        0.2321
     10 C         -30.4814    0.5258   26.5168 C.ar    1  UNL1        0.0212
     11 C         -30.0076    0.6094   25.2845 C.ar    1  UNL1       -0.0007
     12 C         -30.7952    0.3266   24.2240 C.ar    1  UNL1       -0.0002
     13 C         -31.6818   -0.3082   24.3163 C.ar    1  UNL1       -0.0000
     14 C         -32.3104   -0.6927   25.5784 C.ar    1  UNL1       -0.0002
     15 C         -31.6392   -0.2730   26.7233 C.ar    1  UNL1       -0.0007
@<TRIPOS>BOND
     1     1     2    1
     2     7     8    1
     3     8     9    1
     4     9    10    1
     5     2     3   ar
     6     3     4   ar
     7     4     5   ar
     8     5     6   ar
     9     6     7   ar
    10     7     2   ar
    11    10    11   ar
    12    11    12   ar
    13    12    13   ar
    14    13    14   ar
    15    14    15   ar
    16    15    10   ar
