@<TRIPOS>MOLECULE
No_3726-gen_results/8p0m/2024-11-26-14-13-15/
 19 20 0 0 0
SMALL
GASTEIGER

@<TRIPOS>ATOM
      1 C         -28.0162   -0.8135   28.8779 C.ar    1  UNL1        0.0336
      2 C         -27.0636   -0.1190   28.6079 C.ar    1  UNL1       -0.0148
      3 C         -26.9287    1.1713   29.0083 C.ar    1  UNL1       -0.0037
      4 C         -27.9560    1.7411   29.7840 C.ar    1  UNL1        0.0028
      5 C         -29.0569   -0.3271   29.7466 C.ar    1  UNL1        0.1451
      6 C         -28.9828    0.9722   30.1516 C.ar    1  UNL1        0.0375
      7 C         -25.8907   -0.6263   27.7857 C.3     1  UNL1        0.0527
      8 C         -24.7182   -1.0610   28.6129 C.ar    1  UNL1       -0.0181
      9 C         -23.5950   -0.2827   28.8125 C.ar    1  UNL1       -0.0082
     10 C         -22.4925   -0.7920   29.5161 C.ar    1  UNL1       -0.0222
     11 C         -24.5177   -2.4342   28.9331 C.ar    1  UNL1       -0.0040
     12 C         -23.4345   -2.9209   29.5664 C.ar    1  UNL1       -0.0006
     13 C         -21.3601    0.1527   29.8005 C.3     1  UNL1        0.0310
     14 C         -22.4005   -2.0823   29.8507 C.ar    1  UNL1       -0.0043
     15 O         -30.0648   -1.1363   30.1149 O.3     1  UNL1       -0.4504
     16 C         -30.8129   -0.8861   31.1719 C.2     1  UNL1        0.1795
     17 C         -31.5572   -1.8471   31.5034 C.2     1  UNL1        0.0407
     18 C         -31.5577   -3.0139   30.9372 C.2     1  UNL1        0.0032
     19 C         -30.6987   -3.2070   29.8489 C.2     1  UNL1        0.0001
@<TRIPOS>BOND
     1     2     7    1
     2     7     8    1
     3    10    13    1
     4     5    15    1
     5    15    16    1
     6    16    17    2
     7    17    18    1
     8    18    19    2
     9     1     2   ar
    10     2     3   ar
    11     3     4   ar
    12     4     6   ar
    13     6     5   ar
    14     5     1   ar
    15     8     9   ar
    16     9    10   ar
    17    10    14   ar
    18    14    12   ar
    19    12    11   ar
    20    11     8   ar
