@<TRIPOS>MOLECULE
No_3727-gen_results/8p0m/2024-11-26-14-13-15/
 35 38 0 0 0
SMALL
GASTEIGER

@<TRIPOS>ATOM
      1 O         -28.1229   -1.3353   28.4874 O.2     1  UNL1       -0.2707
      2 C         -27.4806   -0.4044   28.7094 C.2     1  UNL1        0.2686
      3 C         -26.3804   -0.0867   27.9394 C.3     1  UNL1        0.1931
      4 N         -27.4232    0.1749   30.0549 N.am    1  UNL1       -0.2028
      5 O         -26.3120   -0.2603   26.9315 O.3     1  UNL1       -0.3443
      6 C         -25.2740    0.9299   28.5006 C.3     1  UNL1        0.0520
      7 C         -25.4678    1.4811   29.7391 C.3     1  UNL1        0.1236
      8 C         -24.4558    2.3767   30.3176 C.2     1  UNL1        0.3183
      9 C         -26.5555    1.0467   30.5942 C.3     1  UNL1        0.1264
     10 O         -23.3044    2.4833   29.8796 O.2     1  UNL1       -0.2501
     11 O         -24.8456    3.1436   31.3382 O.3     1  UNL1       -0.4481
     12 C         -26.1701    0.6874   25.8628 C.3     1  UNL1        0.1747
     13 C         -24.5867    4.4627   31.4009 C.3     1  UNL1        0.2128
     14 C         -25.6574    5.2347   32.1204 C.3     1  UNL1        0.0703
     15 C         -26.6584    4.6209   32.6115 C.2     1  UNL1       -0.0302
     16 C         -26.9058    3.6476   32.8769 C.2     1  UNL1       -0.0117
     17 C         -28.0631    3.2148   33.6498 C.2     1  UNL1       -0.0218
     18 C         -29.0043    4.1642   33.8618 C.2     1  UNL1       -0.0188
     19 C         -27.8175    5.5568   33.1927 C.3     1  UNL1        0.0710
     20 C         -28.4833    6.3426   32.2432 C.ar    1  UNL1       -0.0118
     21 C         -29.8490    6.6312   32.5254 C.ar    1  UNL1       -0.0034
     22 C         -30.3631    7.6168   31.7376 C.ar    1  UNL1       -0.0003
     23 C         -29.6705    8.1443   30.6390 C.ar    1  UNL1       -0.0000
     24 C         -27.8087    7.0733   31.2525 C.ar    1  UNL1       -0.0034
     25 C         -28.3851    7.9156   30.4408 C.ar    1  UNL1       -0.0003
     26 C         -27.3745    6.3178   34.4912 C.ar    1  UNL1       -0.0118
     27 C         -26.4349    6.0384   35.0882 C.ar    1  UNL1       -0.0034
     28 C         -25.9890    6.8030   36.2300 C.ar    1  UNL1       -0.0003
     29 C         -28.1644    7.3728   34.9724 C.ar    1  UNL1       -0.0034
     30 C         -27.8633    8.1738   36.0263 C.ar    1  UNL1       -0.0003
     31 C         -26.7073    7.8420   36.7195 C.ar    1  UNL1       -0.0000
     32 C         -28.5184    1.8038   33.9543 C.3     1  UNL1        0.0516
     33 C         -28.6090    1.4374   35.1772 C.2     1  UNL1       -0.0260
     34 C         -28.3870    2.2820   36.1806 C.2     1  UNL1       -0.0300
     35 C         -28.3374    2.2832   37.2768 C.3     1  UNL1        0.0304
@<TRIPOS>BOND
     1     1     2    2
     2     2     3    1
     3     2     4   am
     4     3     5    1
     5     3     6    1
     6     7     8    1
     7     7     9    1
     8     8    10    2
     9     8    11    1
    10     5    12    1
    11    11    13    1
    12    13    14    1
    13    14    15    1
    14    15    16    2
    15    16    17    1
    16    17    18    2
    17    15    19    1
    18    18    19    1
    19    19    20    1
    20    19    26    1
    21    17    32    1
    22    32    33    1
    23    33    34    2
    24    34    35    1
    25     6     7    1
    26     9     4    1
    27    26    27   ar
    28    27    28   ar
    29    28    31   ar
    30    31    30   ar
    31    30    29   ar
    32    29    26   ar
    33    20    21   ar
    34    21    22   ar
    35    22    23   ar
    36    23    25   ar
    37    25    24   ar
    38    24    20   ar
