@<TRIPOS>MOLECULE
No_373-gen_results/8p0m/2024-11-26-14-13-15/
 20 21 0 0 0
SMALL
GASTEIGER

@<TRIPOS>ATOM
      1 C         -28.0162   -0.8135   28.8779 C.ar    1  UNL1       -0.0043
      2 C         -28.4690   -0.7850   29.8287 C.ar    1  UNL1       -0.0003
      3 C         -27.1356    0.2359   28.5352 C.ar    1  UNL1       -0.0221
      4 C         -26.8745    1.2825   29.3982 C.ar    1  UNL1       -0.0043
      5 C         -28.3613    0.1987   30.9244 C.ar    1  UNL1       -0.0000
      6 C         -27.5277    1.2234   30.6356 C.ar    1  UNL1       -0.0003
      7 C         -26.3879    0.2914   27.2334 C.3     1  UNL1        0.0304
      8 C         -26.4937    0.9729   26.2859 C.3     1  UNL1        0.0769
      9 C         -27.4763    2.0646   26.3647 C.3     1  UNL1        0.0871
     10 CL        -28.8199    2.0498   26.2008 Cl      1  UNL1       -0.1146
     11 C         -26.6902    3.3781   26.6164 C.3     1  UNL1        0.0174
     12 C         -25.3628    3.4006   26.4920 C.3     1  UNL1        0.0172
     13 C         -24.5506    2.3146   26.1217 C.3     1  UNL1        0.1524
     14 C         -25.1011    1.1174   26.1587 C.2     1  UNL1        0.1596
     15 C         -25.5407   -1.0981   27.0561 C.3     1  UNL1        0.0052
     16 C         -23.0754    2.4570   26.0420 C.3     1  UNL1        0.4039
     17 F         -22.5291    1.8224   27.0692 F       1  UNL1       -0.1696
     18 F         -22.6234    1.9483   24.8978 F       1  UNL1       -0.1696
     19 F         -22.7525    3.7141   26.0609 F       1  UNL1       -0.1696
     20 O         -24.4585    0.2276   25.5498 O.2     1  UNL1       -0.2957
@<TRIPOS>BOND
     1     3     7    1
     2     8     9    1
     3     9    10    1
     4     9    11    1
     5    11    12    1
     6     8    14    1
     7    13    14    1
     8     7    15    1
     9    13    16    1
    10    16    17    1
    11    16    18    1
    12    16    19    1
    13    14    20    2
    14     7     8    1
    15    12    13    1
    16     1     2   ar
    17     2     5   ar
    18     5     6   ar
    19     6     4   ar
    20     4     3   ar
    21     3     1   ar
