@<TRIPOS>MOLECULE
No_3730-gen_results/8p0m/2024-11-26-14-13-15/
 8 8 0 0 0
SMALL
GASTEIGER

@<TRIPOS>ATOM
      1 F         -28.0727   -1.2542   28.5316 F       1  UNL1       -0.2041
      2 C         -27.0607   -0.6291   28.8721 C.ar    1  UNL1        0.1424
      3 C         -27.1759    0.6153   29.3693 C.ar    1  UNL1        0.0298
      4 C         -25.7305   -1.2692   28.7241 C.ar    1  UNL1        0.0592
      5 C         -24.5526   -0.5078   29.0132 C.ar    1  UNL1        0.1424
      6 C         -25.9545    1.3798   29.6888 C.ar    1  UNL1        0.0046
      7 C         -24.6583    0.8010   29.5182 C.ar    1  UNL1        0.0298
      8 F         -23.3559   -0.9864   28.9149 F       1  UNL1       -0.2041
@<TRIPOS>BOND
     1     1     2    1
     2     5     8    1
     3     2     3   ar
     4     3     6   ar
     5     6     7   ar
     6     7     5   ar
     7     5     4   ar
     8     4     2   ar
