@<TRIPOS>MOLECULE
No_3732-gen_results/8p0m/2024-11-26-14-13-15/
 35 38 0 0 0
SMALL
GASTEIGER

@<TRIPOS>ATOM
      1 C         -28.0162   -0.8135   28.8779 C.ar    1  UNL1        0.0342
      2 C         -28.4690   -0.7850   29.8287 C.ar    1  UNL1        0.1400
      3 C         -27.0871    0.2903   28.6377 C.ar    1  UNL1        0.0573
      4 C         -26.8317    1.2487   29.5869 C.ar    1  UNL1        0.0004
      5 C         -28.3914    0.0801   31.0065 C.ar    1  UNL1        0.0254
      6 C         -27.4940    1.1521   30.7841 C.ar    1  UNL1       -0.0201
      7 C         -26.3172    0.3994   27.3653 C.2     1  UNL1        0.2690
      8 N         -25.0720    0.1570   27.4305 N.am    1  UNL1       -0.1752
      9 O         -26.8935    0.6376   26.2796 O.2     1  UNL1       -0.2680
     10 C         -24.2685   -0.0655   28.6293 C.ar    1  UNL1        0.0800
     11 C         -23.1426    0.9218   28.6625 C.ar    1  UNL1        0.0951
     12 C         -22.8225    1.9475   27.7628 C.2     1  UNL1        0.3890
     13 C         -24.3693   -1.0631   29.4438 C.ar    1  UNL1        0.0168
     14 C         -23.4121   -1.1465   30.4959 C.ar    1  UNL1        0.0013
     15 C         -22.4097   -0.2740   30.6924 C.ar    1  UNL1        0.0003
     16 C         -22.2047    0.6731   29.8105 C.ar    1  UNL1        0.0079
     17 O         -23.6518    2.8272   27.5497 O.co2   1  UNL1       -0.2405
     18 O         -21.5465    2.1494   27.4353 O.co2   1  UNL1       -0.2405
     19 C         -27.3090    2.1866   31.8763 C.3     1  UNL1        0.0234
     20 C         -26.6458    3.0287   32.0806 C.3     1  UNL1        0.0156
     21 C         -26.5696    3.9935   33.1903 C.3     1  UNL1        0.1041
     22 C         -27.4775    3.7562   34.2134 C.3     1  UNL1        0.0222
     23 C         -28.3130    2.7095   34.0687 C.3     1  UNL1        0.1184
     24 C         -28.3286    1.8729   33.0434 C.3     1  UNL1        0.0173
     25 F         -29.4059   -1.8477   30.2085 F       1  UNL1       -0.2042
     26 C         -25.6764    5.1392   33.3742 C.2     1  UNL1        0.3643
     27 O         -26.0273    6.1969   32.7205 O.co2   1  UNL1       -0.2457
     28 O         -24.4624    5.0302   33.7954 O.co2   1  UNL1       -0.2457
     29 C         -29.3231    2.4541   35.1936 C.3     1  UNL1        0.3997
     30 F         -29.8891    1.5725   35.0375 F       1  UNL1       -0.1700
     31 F         -28.5398    2.4399   36.3460 F       1  UNL1       -0.1700
     32 F         -30.0476    3.5800   35.3484 F       1  UNL1       -0.1700
     33 C         -28.9122    1.9568   34.3857 C.3     1  UNL1        0.1688
     34 F         -28.3684    0.4794   34.7549 F       1  UNL1       -0.2370
     35 C         -29.0473    1.2650   33.4912 C.3     1  UNL1        0.0362
@<TRIPOS>BOND
     1     3     7    1
     2     7     8   am
     3     7     9    2
     4     8    10    1
     5    11    12    1
     6    12    17   ar
     7    12    18   ar
     8     6    19    1
     9    20    21    1
    10    22    23    1
    11    19    24    1
    12    23    24    1
    13     2    25    1
    14    21    26    1
    15    26    27   ar
    16    26    28   ar
    17    23    29    1
    18    29    30    1
    19    29    31    1
    20    29    32    1
    21    23    33    1
    22    33    34    1
    23    24    35    1
    24    33    35    1
    25    22    21    1
    26    20    19    1
    27     1     2   ar
    28     2     5   ar
    29     5     6   ar
    30     6     4   ar
    31     4     3   ar
    32     3     1   ar
    33    10    11   ar
    34    11    16   ar
    35    16    15   ar
    36    15    14   ar
    37    14    13   ar
    38    13    10   ar
