@<TRIPOS>MOLECULE
No_3733-gen_results/8p0m/2024-11-26-14-13-15/
 15 17 0 0 0
SMALL
GASTEIGER

@<TRIPOS>ATOM
      1 C         -28.0162   -0.8135   28.8779 C.ar    1  UNL1        0.0191
      2 C         -27.0636   -0.1189   28.6079 C.ar    1  UNL1        0.0813
      3 C         -25.7923   -0.4302   29.0761 C.ar    1  UNL1        0.0174
      4 C         -25.5756   -1.5654   29.9363 C.ar    1  UNL1        0.0015
      5 C         -26.7354   -2.3004   30.2173 C.ar    1  UNL1        0.0001
      6 C         -27.9184   -1.9537   29.7629 C.ar    1  UNL1        0.0015
      7 N         -27.1059    1.0338   27.8185 N.ar    1  UNL1       -0.2442
      8 C         -26.2610    1.3293   26.9036 C.ar    1  UNL1        0.0948
      9 C         -24.8442    1.0808   27.3000 C.ar    1  UNL1        0.0014
     10 C         -24.6175    0.0282   28.2924 C.ar    1  UNL1       -0.0007
     11 C         -23.7120    1.6826   26.6233 C.3     1  UNL1        0.0539
     12 C         -22.5724    2.0178   27.3501 C.2     1  UNL1       -0.0214
     13 C         -21.9785    1.2775   28.2631 C.2     1  UNL1       -0.0042
     14 C         -22.4656    0.2405   29.0799 C.2     1  UNL1       -0.0003
     15 C         -23.6731   -0.1782   29.1247 C.2     1  UNL1       -0.0002
@<TRIPOS>BOND
     1     9    11    1
     2    11    12    1
     3    12    13    2
     4    13    14    1
     5    10    15    1
     6    14    15    2
     7     1     2   ar
     8     3     4   ar
     9     4     5   ar
    10     5     6   ar
    11     6     1   ar
    12     2     3   ar
    13     3    10   ar
    14    10     9   ar
    15     9     8   ar
    16     8     7   ar
    17     7     2   ar
