@<TRIPOS>MOLECULE
No_3735-gen_results/8p0m/2024-11-26-14-13-15/
 25 28 0 0 0
SMALL
GASTEIGER

@<TRIPOS>ATOM
      1 C         -28.0162   -0.8135   28.8779 C.3     1  UNL1        0.0301
      2 C         -27.0636   -0.1189   28.6079 C.ar    1  UNL1       -0.0254
      3 C         -25.7647   -0.3897   29.0360 C.ar    1  UNL1       -0.0086
      4 C         -24.5516    0.4058   28.7646 C.ar    1  UNL1       -0.0163
      5 C         -24.6957    1.4480   27.7988 C.ar    1  UNL1        0.0508
      6 C         -25.9755    1.7250   27.3077 C.ar    1  UNL1        0.0005
      7 C         -27.0718    1.0134   27.6535 C.ar    1  UNL1       -0.0155
      8 C         -28.6178   -0.4695   30.2207 C.3     1  UNL1        0.0227
      9 C         -29.7296   -1.2768   30.7206 C.ar    1  UNL1       -0.0264
     10 C         -23.4863    2.1902   27.4840 C.2     1  UNL1        0.2645
     11 N         -22.2975    1.7198   27.8271 N.am    1  UNL1       -0.2013
     12 O         -23.5704    3.3234   26.9300 O.2     1  UNL1       -0.2684
     13 C         -30.1124   -2.1753   29.9425 C.ar    1  UNL1       -0.0046
     14 C         -31.2684   -2.9366   30.4978 C.ar    1  UNL1       -0.0003
     15 C         -31.7843   -2.6711   31.6209 C.ar    1  UNL1       -0.0003
     16 C         -31.3228   -1.6871   32.4612 C.ar    1  UNL1       -0.0046
     17 C         -30.2549   -0.9197   32.0116 C.ar    1  UNL1       -0.0261
     18 C         -28.8995    1.0436   30.4827 C.3     1  UNL1        0.0047
     19 C         -27.3965   -0.6954   31.3553 C.3     1  UNL1        0.0047
     20 C         -29.5379    1.4894   31.3334 C.3     1  UNL1        0.0050
     21 C         -30.4850    0.5166   32.1411 C.3     1  UNL1        0.0260
     22 C         -21.9755    0.6411   28.5760 C.3     1  UNL1        0.1201
     23 C         -23.2332   -0.0980   29.1446 C.3     1  UNL1        0.0499
     24 C         -28.3644    1.4335   27.0604 C.3     1  UNL1        0.0883
     25 I         -28.5114    2.1814   25.7663 I       1  UNL1       -0.0693
@<TRIPOS>BOND
     1     1     8    1
     2     8     9    1
     3     5    10    1
     4    10    11   am
     5    10    12    2
     6     8    18    1
     7     8    19    1
     8    17    21    1
     9    20    21    1
    10    11    22    1
    11     4    23    1
    12     7    24    1
    13    24    25    1
    14     1     2    1
    15    20    18    1
    16    23    22    1
    17     2     3   ar
    18     3     4   ar
    19     4     5   ar
    20     5     6   ar
    21     6     7   ar
    22     7     2   ar
    23     9    13   ar
    24    13    14   ar
    25    14    15   ar
    26    15    16   ar
    27    16    17   ar
    28    17     9   ar
