@<TRIPOS>MOLECULE
No_3736-gen_results/8p0m/2024-11-26-14-13-15/
 13 14 0 0 0
SMALL
GASTEIGER

@<TRIPOS>ATOM
      1 C         -28.0162   -0.8135   28.8779 C.ar    1  UNL1        0.0943
      2 C         -27.0636   -0.1190   28.6079 C.ar    1  UNL1       -0.0069
      3 C         -26.9716    0.7139   27.5060 C.3     1  UNL1        0.0282
      4 C         -25.8205    1.4909   27.1160 C.3     1  UNL1        0.0163
      5 C         -24.6562    1.4242   27.9180 C.3     1  UNL1        0.1081
      6 C         -24.6847    0.5901   29.0659 C.3     1  UNL1        0.0374
      7 C         -25.8099   -0.1266   29.3338 C.ar    1  UNL1       -0.0226
      8 N         -27.9662   -1.6794   30.0086 N.ar    1  UNL1       -0.2427
      9 C         -23.4753    2.1961   27.6050 C.2     1  UNL1        0.3647
     10 O         -22.5266    2.1721   28.4170 O.co2   1  UNL1       -0.2457
     11 O         -23.1724    2.4402   26.3196 O.co2   1  UNL1       -0.2457
     12 C         -25.7603   -1.0028   30.4704 C.ar    1  UNL1        0.0161
     13 C         -26.8592   -1.7886   30.7760 C.ar    1  UNL1        0.0985
@<TRIPOS>BOND
     1     2     3    1
     2     3     4    1
     3     4     5    1
     4     5     6    1
     5     6     7    1
     6     5     9    1
     7     9    10   ar
     8     9    11   ar
     9     1     2   ar
    10     2     7   ar
    11     7    12   ar
    12    12    13   ar
    13    13     8   ar
    14     8     1   ar
