@<TRIPOS>MOLECULE
No_3737-gen_results/8p0m/2024-11-26-14-13-15/
 35 37 0 0 0
SMALL
GASTEIGER

@<TRIPOS>ATOM
      1 C         -28.0162   -0.8135   28.8779 C.ar    1  UNL1        0.0089
      2 C         -28.4690   -0.7850   29.8287 C.ar    1  UNL1        0.0801
      3 C         -27.1356    0.2359   28.5352 C.ar    1  UNL1        0.0289
      4 C         -26.8745    1.2825   29.3982 C.ar    1  UNL1        0.0088
      5 C         -28.3613    0.1987   30.9244 C.ar    1  UNL1        0.0130
      6 C         -27.5277    1.2234   30.6356 C.ar    1  UNL1        0.0759
      7 C         -26.3879    0.2914   27.2334 C.2     1  UNL1        0.1382
      8 N         -26.5292    0.7116   26.2887 N.2     1  UNL1       -0.2340
      9 CL        -24.8319   -0.6929   27.3740 Cl      1  UNL1       -0.0613
     10 C         -27.6782    1.4735   26.1110 C.ar    1  UNL1        0.0823
     11 C         -28.3515    1.3641   24.8291 C.ar    1  UNL1        0.0191
     12 C         -29.3703    2.2385   24.5964 C.ar    1  UNL1        0.0015
     13 C         -29.7163    3.3305   25.4731 C.ar    1  UNL1        0.0001
     14 C         -28.9347    3.4358   26.6519 C.ar    1  UNL1        0.0015
     15 C         -27.9453    2.6164   26.9138 C.ar    1  UNL1        0.0191
     16 C         -29.4475   -1.9713   30.2826 C.2     1  UNL1        0.3878
     17 O         -30.1262   -1.8641   31.1651 O.co2   1  UNL1       -0.2406
     18 O         -28.9273   -3.1470   30.0230 O.co2   1  UNL1       -0.2406
     19 C         -27.3484    2.3554   31.6118 C.2     1  UNL1        0.3412
     20 O         -27.8347    2.7126   32.4099 O.2     1  UNL1       -0.2449
     21 O         -26.2946    3.2992   30.9895 O.3     1  UNL1       -0.4465
     22 C         -26.1012    4.4038   31.6818 C.3     1  UNL1        0.2009
     23 C         -25.0054    5.1691   31.1236 C.3     1  UNL1        0.0469
     24 C         -24.6237    6.2655   32.0607 C.3     1  UNL1        0.0133
     25 C         -24.6416    5.9058   33.3400 C.3     1  UNL1        0.0857
     26 C         -25.6908    5.1062   33.8724 C.3     1  UNL1        0.1140
     27 C         -25.8651    3.9237   33.0477 C.3     1  UNL1        0.2099
     28 O         -24.6153    3.1864   33.2300 O.3     1  UNL1       -0.2175
     29 C         -23.7133    6.5588   34.2987 C.2     1  UNL1        0.2087
     30 O         -23.5720    7.7053   34.1877 O.2     1  UNL1       -0.2882
     31 N         -26.9075    5.8769   34.1484 N.pl3   1  UNL1       -0.3051
     32 C         -27.4043    6.7953   33.6541 C.2     1  UNL1        0.0614
     33 C         -28.6672    7.2163   34.1099 C.2     1  UNL1        0.0171
     34 C         -27.7859    5.1267   35.0367 C.3     1  UNL1        0.0909
     35 C         -27.2654    3.9631   35.8504 C.3     1  UNL1        0.0232
@<TRIPOS>BOND
     1     3     7    1
     2     7     8    2
     3     7     9    1
     4     8    10    1
     5     2    16    1
     6    16    17   ar
     7    16    18   ar
     8     6    19    1
     9    19    20    2
    10    19    21    1
    11    21    22    1
    12    22    23    1
    13    23    24    1
    14    24    25    1
    15    25    26    1
    16    22    27    1
    17    26    27    1
    18    27    28    1
    19    25    29    1
    20    29    30    2
    21    26    31    1
    22    31    32    1
    23    32    33    2
    24    31    34    1
    25    34    35    1
    26     1     2   ar
    27     2     5   ar
    28     5     6   ar
    29     6     4   ar
    30     4     3   ar
    31     3     1   ar
    32    10    11   ar
    33    11    12   ar
    34    12    13   ar
    35    13    14   ar
    36    14    15   ar
    37    15    10   ar
