@<TRIPOS>MOLECULE
No_3738-gen_results/8p0m/2024-11-26-14-13-15/
 10 10 0 0 0
SMALL
GASTEIGER

@<TRIPOS>ATOM
      1 CL        -28.1493   -0.8198   28.9079 Cl      1  UNL1       -0.0423
      2 C         -27.8339    0.4961   29.0598 C.3     1  UNL1        0.3500
      3 F         -27.8833    1.0376   30.1944 F       1  UNL1       -0.1825
      4 C         -26.3797    0.7729   28.5385 C.ar    1  UNL1        0.0532
      5 F         -28.6112    1.2493   28.2241 F       1  UNL1       -0.1825
      6 C         -25.8804    2.0485   28.6372 C.ar    1  UNL1        0.0022
      7 C         -24.6688    2.3530   28.0109 C.ar    1  UNL1       -0.0001
      8 C         -23.8269    1.3376   27.5457 C.ar    1  UNL1       -0.0000
      9 C         -24.2928    0.0656   27.6341 C.ar    1  UNL1       -0.0001
     10 C         -25.5526   -0.2201   28.0605 C.ar    1  UNL1        0.0022
@<TRIPOS>BOND
     1     1     2    1
     2     2     3    1
     3     2     4    1
     4     2     5    1
     5     4     6   ar
     6     6     7   ar
     7     7     8   ar
     8     8     9   ar
     9     9    10   ar
    10    10     4   ar
