@<TRIPOS>MOLECULE
No_3739-gen_results/8p0m/2024-11-26-14-13-15/
 16 17 0 0 0
SMALL
GASTEIGER

@<TRIPOS>ATOM
      1 C         -28.0162   -0.8135   28.8779 C.ar    1  UNL1        0.0145
      2 C         -27.0636   -0.1190   28.6079 C.ar    1  UNL1        0.0481
      3 C         -25.7923   -0.4302   29.0761 C.ar    1  UNL1        0.0145
      4 C         -25.5756   -1.5654   29.9363 C.ar    1  UNL1        0.0013
      5 C         -26.7354   -2.3004   30.2173 C.ar    1  UNL1        0.0001
      6 C         -27.9184   -1.9537   29.7629 C.ar    1  UNL1        0.0013
      7 N         -27.1059    1.0338   27.8185 N.pl3   1  UNL1       -0.3018
      8 C         -26.2610    1.3293   26.9037 C.3     1  UNL1        0.1179
      9 C         -28.5120    1.3344   27.4111 C.3     1  UNL1        0.1125
     10 C         -25.4787    2.3096   27.0866 C.ar    1  UNL1        0.0020
     11 C         -24.2086    2.5846   26.3604 C.ar    1  UNL1        0.0182
     12 C         -23.3859    3.6980   26.7867 C.ar    1  UNL1        0.1002
     13 C         -25.6404    3.3615   28.1497 C.ar    1  UNL1        0.0350
     14 C         -24.8731    4.4494   28.3735 C.ar    1  UNL1        0.1695
     15 N         -25.2082    5.3762   29.3536 N.pl3   1  UNL1       -0.1072
     16 N         -23.7941    4.6151   27.5836 N.ar    1  UNL1       -0.2259
@<TRIPOS>BOND
     1     2     7    1
     2     7     8    1
     3     7     9    1
     4    14    15    1
     5     8    10    1
     6     1     2   ar
     7     2     3   ar
     8     3     4   ar
     9     4     5   ar
    10     5     6   ar
    11     6     1   ar
    12    10    11   ar
    13    11    12   ar
    14    12    16   ar
    15    16    14   ar
    16    14    13   ar
    17    13    10   ar
