@<TRIPOS>MOLECULE
No_3740-gen_results/8p0m/2024-11-26-14-13-15/
 11 11 0 0 0
SMALL
GASTEIGER

@<TRIPOS>ATOM
      1 C         -28.0162   -0.8135   28.8779 C.ar    1  UNL1        0.0000
      2 C         -28.4690   -0.7850   29.8287 C.ar    1  UNL1        0.0000
      3 C         -26.5042   -0.7777   28.8766 C.ar    1  UNL1       -0.0000
      4 C         -25.8103   -0.8531   30.1028 C.ar    1  UNL1       -0.0000
      5 C         -27.9906   -0.8916   31.2257 C.ar    1  UNL1        0.0000
      6 C         -26.6042   -0.8676   31.2652 C.ar    1  UNL1       -0.0000
      7 C         -24.4436   -0.6734   29.9745 C.2     1  UNL1       -0.0000
      8 C         -23.7579   -0.0773   29.0348 C.2     1  UNL1       -0.0003
      9 C         -24.3123    0.8295   28.1207 C.2     1  UNL1       -0.0046
     10 C         -23.6120    2.0214   27.9615 C.2     1  UNL1       -0.0258
     11 C         -22.2083    1.9975   27.9243 C.3     1  UNL1        0.0307
@<TRIPOS>BOND
     1     4     7    1
     2     7     8    2
     3     8     9    1
     4     9    10    2
     5    10    11    1
     6     1     2   ar
     7     2     5   ar
     8     5     6   ar
     9     6     4   ar
    10     4     3   ar
    11     3     1   ar
