@<TRIPOS>MOLECULE
No_3741-gen_results/8p0m/2024-11-26-14-13-15/
 19 21 0 0 0
SMALL
GASTEIGER

@<TRIPOS>ATOM
      1 C         -28.0162   -0.8135   28.8779 C.ar    1  UNL1       -0.0003
      2 C         -27.0636   -0.1189   28.6079 C.ar    1  UNL1       -0.0039
      3 C         -26.9716    0.7139   27.5060 C.ar    1  UNL1       -0.0154
      4 C         -28.1053    0.7744   26.6421 C.ar    1  UNL1       -0.0036
      5 C         -28.0677    1.4872   25.5121 C.ar    1  UNL1       -0.0003
      6 C         -29.2691   -0.5335   28.2245 C.ar    1  UNL1       -0.0000
      7 C         -29.2230    0.1355   27.0328 C.ar    1  UNL1       -0.0003
      8 C         -30.4249    0.2117   26.2149 C.ar    1  UNL1       -0.0000
      9 C         -30.3953    0.8376   24.9686 C.ar    1  UNL1       -0.0000
     10 C         -29.1706    1.5666   24.5716 C.ar    1  UNL1       -0.0000
     11 C         -25.6503    1.3487   27.0849 C.3     1  UNL1        0.0787
     12 C         -24.4983    0.5666   27.0211 C.2     1  UNL1        0.1154
     13 C         -23.2745    1.3280   26.9384 C.2     1  UNL1        0.0065
     14 C         -22.5600    1.6169   27.7435 C.3     1  UNL1        0.0290
     15 C         -22.7575    1.1052   29.1052 C.3     1  UNL1        0.0086
     16 C         -22.8476   -0.2694   29.1560 C.3     1  UNL1        0.0477
     17 C         -24.1231   -0.8889   28.7941 C.3     1  UNL1        0.2049
     18 O         -24.5623   -0.6149   27.4249 O.2     1  UNL1       -0.4797
     19 C         -25.7757    2.7847   26.8115 C.3     1  UNL1        0.0127
@<TRIPOS>BOND
     1     3    11    1
     2    11    12    1
     3    12    13    2
     4    13    14    1
     5    14    15    1
     6    15    16    1
     7    16    17    1
     8    12    18    1
     9    17    18    1
    10    11    19    1
    11     4     5   ar
    12     5    10   ar
    13    10     9   ar
    14     9     8   ar
    15     8     7   ar
    16     1     2   ar
    17     2     3   ar
    18     3     4   ar
    19     4     7   ar
    20     7     6   ar
    21     6     1   ar
