@<TRIPOS>MOLECULE
No_3742-gen_results/8p0m/2024-11-26-14-13-15/
 11 10 0 0 0
SMALL
GASTEIGER

@<TRIPOS>ATOM
      1 CL        -28.1493   -0.8198   28.9079 Cl      1  UNL1       -0.0466
      2 C         -28.5324   -0.0471   29.7727 C.3     1  UNL1        0.3339
      3 F         -27.6515    0.7172   30.3086 F       1  UNL1       -0.1864
      4 C         -29.6788    0.8470   29.3357 C.3     1  UNL1        0.1093
      5 F         -28.9713   -0.6705   31.0034 F       1  UNL1       -0.1864
      6 C         -30.2097    1.5488   29.9949 C.2     1  UNL1       -0.0191
      7 C         -29.6227    2.0669   31.0526 C.2     1  UNL1       -0.0044
      8 C         -30.1625    3.1070   31.9766 C.2     1  UNL1       -0.0003
      9 C         -29.4665    3.6005   33.0979 C.2     1  UNL1       -0.0000
     10 C         -28.1175    3.0661   33.3325 C.2     1  UNL1       -0.0000
     11 C         -27.5658    2.0967   32.4844 C.2     1  UNL1       -0.0000
@<TRIPOS>BOND
     1     1     2    1
     2     2     3    1
     3     2     4    1
     4     2     5    1
     5     4     6    1
     6     6     7    2
     7     7     8    1
     8     8     9    2
     9     9    10    1
    10    10    11    2
