@<TRIPOS>MOLECULE
No_3746-gen_results/8p0m/2024-11-26-14-13-15/
 20 21 0 0 0
SMALL
GASTEIGER

@<TRIPOS>ATOM
      1 C         -28.0162   -0.8135   28.8779 C.ar    1  UNL1        0.0347
      2 C         -28.4690   -0.7850   29.8287 C.ar    1  UNL1        0.1402
      3 C         -26.5042   -0.7777   28.8766 C.ar    1  UNL1        0.0870
      4 C         -25.8103   -0.8531   30.1028 C.ar    1  UNL1        0.0532
      5 C         -27.9906   -0.8916   31.2257 C.ar    1  UNL1        0.0309
      6 C         -26.6042   -0.8676   31.2652 C.ar    1  UNL1        0.0168
      7 F         -29.9203   -0.8331   29.8239 F       1  UNL1       -0.2042
      8 N         -24.4637   -0.7983   30.1309 N.pl3   1  UNL1       -0.2856
      9 C         -23.7048   -1.4231   30.4490 C.3     1  UNL1        0.1836
     10 C         -23.9085    0.4616   29.5169 C.3     1  UNL1        0.1671
     11 C         -22.5627    0.4432   29.3001 C.3     1  UNL1        0.0492
     12 N         -22.3454   -1.4968   30.4754 N.3     1  UNL1       -0.1973
     13 C         -21.7601   -0.5220   29.8591 C.3     1  UNL1        0.0928
     14 C         -25.6950   -0.7215   27.6485 C.3     1  UNL1        0.4198
     15 F         -26.3848   -0.1615   26.6777 F       1  UNL1       -0.1658
     16 F         -24.6045    0.0482   27.8661 F       1  UNL1       -0.1658
     17 C         -24.5221    1.7190   29.9744 C.2     1  UNL1        0.3283
     18 O         -24.5818    2.0883   31.0999 O.2     1  UNL1       -0.2573
     19 F         -24.8022    2.6058   29.0231 F       1  UNL1       -0.1618
     20 F         -25.1159   -1.8366   27.3819 F       1  UNL1       -0.1658
@<TRIPOS>BOND
     1     2     7    1
     2     4     8    1
     3     8     9    1
     4     8    10    1
     5    11    13    1
     6    12    13    1
     7     3    14    1
     8    14    15    1
     9    14    16    1
    10    10    17    1
    11    17    18    2
    12    17    19    1
    13    14    20    1
    14     9    12    1
    15    11    10    1
    16     1     2   ar
    17     2     5   ar
    18     5     6   ar
    19     6     4   ar
    20     4     3   ar
    21     3     1   ar
