@<TRIPOS>MOLECULE
No_3747-gen_results/8p0m/2024-11-26-14-13-15/
 35 38 0 0 0
SMALL
GASTEIGER

@<TRIPOS>ATOM
      1 C         -28.0162   -0.8135   28.8779 C.ar    1  UNL1        0.1752
      2 C         -27.0636   -0.1190   28.6079 C.ar    1  UNL1        0.1753
      3 C         -27.0010    0.6913   27.4910 C.ar    1  UNL1        0.0433
      4 C         -28.1373    0.7363   26.6350 C.ar    1  UNL1        0.0874
      5 C         -29.2360    0.0765   27.0690 C.ar    1  UNL1        0.1538
      6 C         -29.2177   -0.6429   28.1747 C.ar    1  UNL1        0.0703
      7 F         -30.2199    0.1288   26.1814 F       1  UNL1       -0.2032
      8 F         -25.9004   -0.1528   29.3791 F       1  UNL1       -0.2009
      9 O         -28.0537   -1.6011   30.0519 O.3     1  UNL1       -0.4433
     10 CL        -27.9864    1.7328   25.2383 Cl      1  UNL1       -0.0798
     11 C         -25.6927    1.4242   27.0994 C.ar    1  UNL1        0.0032
     12 C         -24.6698    1.0085   26.7943 C.ar    1  UNL1        0.0001
     13 C         -23.4606    1.8202   26.6543 C.ar    1  UNL1        0.0000
     14 C         -23.6963    3.1858   26.7947 C.ar    1  UNL1        0.0000
     15 C         -25.8504    2.9124   27.2008 C.ar    1  UNL1        0.0001
     16 C         -24.8350    3.7198   27.0194 C.ar    1  UNL1        0.0000
     17 C         -27.3404   -1.5989   30.9765 C.2     1  UNL1        0.2376
     18 C         -27.9371   -1.7789   32.2698 C.2     1  UNL1        0.2910
     19 N         -28.9337   -0.8659   32.4768 N.pl3   1  UNL1       -0.2482
     20 C         -29.0245    0.3010   32.1927 C.ar    1  UNL1        0.0545
     21 C         -30.2524    1.0474   32.4448 C.ar    1  UNL1        0.0149
     22 C         -30.4650    2.3463   32.0788 C.ar    1  UNL1        0.0013
     23 C         -29.4374    3.0268   31.3108 C.ar    1  UNL1        0.0001
     24 C         -28.2461    2.3178   30.9926 C.ar    1  UNL1        0.0013
     25 C         -28.0571    1.0695   31.4119 C.ar    1  UNL1        0.0149
     26 C         -29.5578   -1.1485   33.8558 C.3     1  UNL1        0.1281
     27 C         -29.7219   -2.4078   34.1644 C.ar    1  UNL1        0.0320
     28 C         -30.9421   -2.7353   34.3843 C.ar    1  UNL1        0.0004
     29 C         -31.2610   -4.1276   34.2592 C.ar    1  UNL1       -0.0001
     30 C         -30.4905   -4.8093   33.5458 C.ar    1  UNL1        0.0031
     31 C         -29.1666   -4.5264   33.1329 C.ar    1  UNL1        0.0366
     32 C         -28.8713   -3.2084   33.2831 C.ar    1  UNL1        0.1363
     33 O         -27.5870   -3.2080   33.4814 O.3     1  UNL1       -0.4717
     34 O         -27.1638   -1.0434   32.5304 O.2     1  UNL1       -0.2661
     35 C         -27.3419   -2.4706   34.5983 C.3     1  UNL1        0.2525
@<TRIPOS>BOND
     1     5     7    1
     2     2     8    1
     3     1     9    1
     4     4    10    1
     5     3    11    1
     6     9    17    1
     7    17    18    2
     8    18    19    1
     9    19    20    1
    10    19    26    1
    11    26    27    1
    12    32    33    1
    13    18    34    1
    14    33    35    1
    15     1     2   ar
    16     2     3   ar
    17     3     4   ar
    18     4     5   ar
    19     5     6   ar
    20     6     1   ar
    21    27    28   ar
    22    28    29   ar
    23    29    30   ar
    24    30    31   ar
    25    31    32   ar
    26    32    27   ar
    27    11    12   ar
    28    12    13   ar
    29    13    14   ar
    30    14    16   ar
    31    16    15   ar
    32    15    11   ar
    33    20    21   ar
    34    21    22   ar
    35    22    23   ar
    36    23    24   ar
    37    24    25   ar
    38    25    20   ar
