@<TRIPOS>MOLECULE
No_3748-gen_results/8p0m/2024-11-26-14-13-15/
 16 17 0 0 0
SMALL
GASTEIGER

@<TRIPOS>ATOM
      1 C         -28.0162   -0.8135   28.8779 C.ar    1  UNL1        0.0369
      2 C         -27.0636   -0.1189   28.6079 C.ar    1  UNL1        0.0031
      3 C         -25.7647   -0.3897   29.0360 C.ar    1  UNL1        0.0002
      4 C         -25.5296   -1.5302   29.9014 C.ar    1  UNL1        0.0031
      5 C         -26.6577   -2.2915   30.2035 C.ar    1  UNL1        0.0369
      6 C         -27.8548   -1.9555   29.7630 C.ar    1  UNL1        0.1401
      7 C         -24.5349    0.4128   28.7431 C.ar    1  UNL1        0.0000
      8 C         -24.4835    1.2431   27.7398 C.ar    1  UNL1        0.0000
      9 C         -23.3130    1.8552   27.3514 C.ar    1  UNL1        0.0000
     10 C         -22.0780    1.6190   27.9587 C.ar    1  UNL1        0.0000
     11 C         -23.4513    0.5022   29.6931 C.ar    1  UNL1        0.0000
     12 C         -22.1363    0.9272   29.2331 C.ar    1  UNL1        0.0000
     13 O         -28.9210   -2.7334   30.1224 O.3     1  UNL1       -0.4593
     14 C         -30.0296   -2.2379   30.5980 C.3     1  UNL1        0.3090
     15 C         -30.2155   -1.2777   31.0174 C.1     1  UNL1        0.1218
     16 N         -30.6189   -0.2890   31.1627 N.1     1  UNL1       -0.1920
@<TRIPOS>BOND
     1     3     7    1
     2     6    13    1
     3    13    14    1
     4    14    15    1
     5    15    16    3
     6     7     8   ar
     7     8     9   ar
     8     9    10   ar
     9    10    12   ar
    10    12    11   ar
    11    11     7   ar
    12     1     2   ar
    13     2     3   ar
    14     3     4   ar
    15     4     5   ar
    16     5     6   ar
    17     6     1   ar
