@<TRIPOS>MOLECULE
No_3749-gen_results/8p0m/2024-11-26-14-13-15/
 35 37 0 0 0
SMALL
GASTEIGER

@<TRIPOS>ATOM
      1 C         -28.0162   -0.8135   28.8779 C.ar    1  UNL1        0.0066
      2 C         -27.0636   -0.1189   28.6079 C.ar    1  UNL1        0.0046
      3 C         -27.0010    0.6913   27.4910 C.ar    1  UNL1        0.0550
      4 C         -25.8548    1.4825   27.0830 C.ar    1  UNL1        0.0084
      5 C         -24.6901    1.4526   27.8807 C.ar    1  UNL1        0.0716
      6 C         -24.7379    0.6010   29.0416 C.ar    1  UNL1        0.0039
      7 C         -25.8234   -0.1688   29.3887 C.ar    1  UNL1        0.0001
      8 C         -28.0376   -1.5350   30.2052 C.ar    1  UNL1        0.0761
      9 C         -26.8472   -1.6620   30.9516 C.ar    1  UNL1        0.0065
     10 C         -25.7454   -0.9236   30.5911 C.ar    1  UNL1        0.0002
     11 C         -23.5005    2.2219   27.5437 C.3     1  UNL1        0.4186
     12 F         -22.5646    1.5856   27.0981 F       1  UNL1       -0.1659
     13 F         -23.0818    2.9160   28.7073 F       1  UNL1       -0.1659
     14 F         -23.8596    3.2707   26.7453 F       1  UNL1       -0.1659
     15 C         -28.1271    0.7571   26.5394 C.2     1  UNL1        0.2653
     16 O         -28.0337    0.2555   25.4340 O.2     1  UNL1       -0.2684
     17 N         -29.3216    1.1393   27.0092 N.am    1  UNL1       -0.1894
     18 C         -30.4747    1.2036   26.1831 C.3     1  UNL1        0.2288
     19 C         -29.2199   -2.3537   30.5913 C.2     1  UNL1        0.3480
     20 O         -30.0382   -1.9143   31.1661 O.2     1  UNL1       -0.2444
     21 O         -29.1073   -3.6115   30.2373 O.3     1  UNL1       -0.3860
     22 C         -31.4557    0.2776   26.4864 C.2     1  UNL1        0.3865
     23 O         -32.0378   -0.3551   25.7672 O.co2   1  UNL1       -0.2437
     24 O         -31.9865    0.3076   27.7762 O.co2   1  UNL1       -0.2437
     25 C         -30.2475   -4.4482   30.2008 C.2     1  UNL1        0.3480
     26 C         -30.6771   -4.8156   29.0036 C.ar    1  UNL1        0.0761
     27 C         -31.5886   -5.9152   28.8691 C.ar    1  UNL1        0.0064
     28 C         -32.0635   -6.2903   27.5703 C.ar    1  UNL1       -0.0001
     29 C         -31.7004   -5.4419   26.5240 C.ar    1  UNL1       -0.0000
     30 C         -31.0038   -4.3419   26.7015 C.ar    1  UNL1        0.0002
     31 C         -30.5908   -3.9136   27.9698 C.ar    1  UNL1        0.0065
     32 O         -30.4624   -4.9753   31.3449 O.2     1  UNL1       -0.2444
     33 C         -32.7085   -7.5593   27.3370 C.2     1  UNL1       -0.0046
     34 C         -33.2195   -8.2303   28.0023 C.2     1  UNL1       -0.0258
     35 C         -33.8639   -9.5292   27.7036 C.3     1  UNL1        0.0307
@<TRIPOS>BOND
     1     5    11    1
     2    11    12    1
     3    11    13    1
     4    11    14    1
     5     3    15    1
     6    15    16    2
     7    15    17   am
     8    17    18    1
     9     8    19    1
    10    19    20    2
    11    19    21    1
    12    18    22    1
    13    22    23   ar
    14    22    24   ar
    15    21    25    1
    16    25    26    1
    17    25    32    2
    18    28    33    1
    19    33    34    2
    20    34    35    1
    21    26    27   ar
    22    27    28   ar
    23    28    29   ar
    24    29    30   ar
    25    30    31   ar
    26    31    26   ar
    27     2     3   ar
    28     3     4   ar
    29     4     5   ar
    30     5     6   ar
    31     6     7   ar
    32     1     2   ar
    33     2     7   ar
    34     7    10   ar
    35    10     9   ar
    36     9     8   ar
    37     8     1   ar
