@<TRIPOS>MOLECULE
No_375-gen_results/8p0m/2024-11-26-14-13-15/
 14 14 0 0 0
SMALL
GASTEIGER

@<TRIPOS>ATOM
      1 C         -28.0162   -0.8135   28.8779 C.ar    1  UNL1       -0.0017
      2 C         -28.4690   -0.7850   29.8287 C.ar    1  UNL1        0.0106
      3 C         -27.1356    0.2359   28.5352 C.ar    1  UNL1       -0.0002
      4 C         -26.8745    1.2825   29.3982 C.ar    1  UNL1       -0.0000
      5 C         -29.3953   -1.9237   30.2863 C.3     1  UNL1        0.2086
      6 C         -27.5236    1.2089   30.6379 C.ar    1  UNL1       -0.0002
      7 C         -28.3224    0.1273   30.9590 C.ar    1  UNL1       -0.0017
      8 O         -29.8169   -1.8504   31.5485 O.3     1  UNL1       -0.2152
      9 C         -26.3937    0.3233   27.2079 C.2     1  UNL1       -0.0000
     10 C         -25.2000    0.7221   27.0523 C.2     1  UNL1       -0.0000
     11 C         -24.6448    1.0911   25.7541 C.2     1  UNL1       -0.0000
     12 C         -23.4157    1.7185   25.6548 C.2     1  UNL1        0.0000
     13 C         -22.7050    1.9991   26.8313 C.2     1  UNL1        0.0000
     14 C         -23.2155    1.6030   28.1010 C.2     1  UNL1        0.0000
@<TRIPOS>BOND
     1     2     5    1
     2     5     8    1
     3     3     9    1
     4     9    10    2
     5    10    11    1
     6    11    12    2
     7    12    13    1
     8    13    14    2
     9     1     2   ar
    10     2     7   ar
    11     7     6   ar
    12     6     4   ar
    13     4     3   ar
    14     3     1   ar
