@<TRIPOS>MOLECULE
No_3750-gen_results/8p0m/2024-11-26-14-13-15/
 19 20 0 0 0
SMALL
GASTEIGER

@<TRIPOS>ATOM
      1 C         -28.0162   -0.8135   28.8779 C.ar    1  UNL1        0.0045
      2 C         -28.4690   -0.7850   29.8287 C.ar    1  UNL1        0.0001
      3 C         -28.1960    0.3478   28.0550 C.ar    1  UNL1        0.0536
      4 C         -29.0191    1.3501   28.3782 C.ar    1  UNL1        0.0045
      5 C         -29.4107    0.1803   30.3782 C.ar    1  UNL1        0.0000
      6 C         -29.6059    1.2495   29.6193 C.ar    1  UNL1        0.0001
      7 C         -27.4597    0.3802   26.7091 C.2     1  UNL1        0.2491
      8 N         -26.1039    0.2914   26.7009 N.am    1  UNL1       -0.2740
      9 C         -25.3234    0.9043   25.8746 C.3     1  UNL1        0.0984
     10 C         -24.3292    1.9488   26.4461 C.3     1  UNL1        0.0475
     11 C         -24.6851    2.5653   27.5232 C.ar    1  UNL1       -0.0244
     12 C         -25.4083   -0.5867   27.7262 C.3     1  UNL1        0.1152
     13 C         -24.0214    3.3989   28.3276 C.ar    1  UNL1       -0.0045
     14 C         -24.7394    4.0356   29.4229 C.ar    1  UNL1       -0.0003
     15 C         -26.1835    3.8954   29.4318 C.ar    1  UNL1       -0.0003
     16 C         -26.8353    3.1018   28.5233 C.ar    1  UNL1       -0.0046
     17 C         -26.1098    2.5375   27.6537 C.ar    1  UNL1       -0.0257
     18 C         -26.5916    3.4340   26.4656 C.3     1  UNL1        0.0307
     19 O         -28.0988    0.3739   25.7009 O.2     1  UNL1       -0.2699
@<TRIPOS>BOND
     1     3     7    1
     2     7     8   am
     3     8     9    1
     4     9    10    1
     5    10    11    1
     6     8    12    1
     7    17    18    1
     8     7    19    2
     9    11    13   ar
    10    13    14   ar
    11    14    15   ar
    12    15    16   ar
    13    16    17   ar
    14    17    11   ar
    15     1     2   ar
    16     2     5   ar
    17     5     6   ar
    18     6     4   ar
    19     4     3   ar
    20     3     1   ar
