@<TRIPOS>MOLECULE
No_3751-gen_results/8p0m/2024-11-26-14-13-15/
 28 31 0 0 0
SMALL
GASTEIGER

@<TRIPOS>ATOM
      1 O         -28.1229   -1.3353   28.4874 O.2     1  UNL1       -0.2730
      2 C         -27.0637   -0.8242   28.8687 C.2     1  UNL1        0.2450
      3 C         -26.4017   -0.0623   28.6224 C.3     1  UNL1        0.1010
      4 N         -26.5721   -1.5845   30.1172 N.am    1  UNL1       -0.2046
      5 C         -25.0209    0.3561   29.0444 C.3     1  UNL1        0.0266
      6 C         -24.6646   -0.3860   30.2421 C.3     1  UNL1        0.1258
      7 C         -25.4289   -1.3599   30.6870 C.3     1  UNL1        0.1264
      8 C         -26.7082    0.8260   27.3474 C.ar    1  UNL1       -0.0138
      9 C         -27.2599    1.9895   27.5888 C.ar    1  UNL1       -0.0038
     10 C         -26.4829    0.2703   26.0920 C.ar    1  UNL1       -0.0038
     11 C         -26.9801    0.8597   24.9465 C.ar    1  UNL1       -0.0003
     12 C         -27.6888    2.7624   26.3911 C.ar    1  UNL1       -0.0003
     13 C         -27.5555    2.1937   25.0854 C.ar    1  UNL1       -0.0000
     14 C         -23.3750   -0.0514   30.9296 C.2     1  UNL1        0.3661
     15 O         -22.3658    0.1093   30.2108 O.co2   1  UNL1       -0.2456
     16 O         -23.3635    0.3762   32.2002 O.co2   1  UNL1       -0.2456
     17 C         -28.3083    4.0647   26.5197 C.ar    1  UNL1       -0.0000
     18 C         -29.1260    4.2439   27.6077 C.ar    1  UNL1       -0.0000
     19 C         -29.7275    5.5449   27.7910 C.ar    1  UNL1       -0.0000
     20 C         -29.4773    6.5659   26.8466 C.ar    1  UNL1        0.0000
     21 C         -28.6315    6.3700   25.7836 C.ar    1  UNL1       -0.0000
     22 C         -28.0491    5.1331   25.6374 C.ar    1  UNL1       -0.0000
     23 C         -30.4005    5.7508   29.0620 C.ar    1  UNL1        0.0000
     24 C         -31.1952    4.9467   29.5163 C.ar    1  UNL1        0.0000
     25 C         -31.8963    5.1081   30.7868 C.ar    1  UNL1        0.0000
     26 C         -31.6892    6.3394   31.4328 C.ar    1  UNL1        0.0000
     27 C         -30.8682    7.2794   30.9275 C.ar    1  UNL1        0.0000
     28 C         -30.1865    7.0473   29.7336 C.ar    1  UNL1        0.0000
@<TRIPOS>BOND
     1     1     2    2
     2     2     3    1
     3     2     4   am
     4     5     6    1
     5     6     7    1
     6     3     8    1
     7     6    14    1
     8    14    15   ar
     9    14    16   ar
    10    12    17    1
    11    19    23    1
    12     3     5    1
    13     7     4    1
    14    17    18   ar
    15    18    19   ar
    16    19    20   ar
    17    20    21   ar
    18    21    22   ar
    19    22    17   ar
    20    23    24   ar
    21    24    25   ar
    22    25    26   ar
    23    26    27   ar
    24    27    28   ar
    25    28    23   ar
    26     8     9   ar
    27     9    12   ar
    28    12    13   ar
    29    13    11   ar
    30    11    10   ar
    31    10     8   ar
