@<TRIPOS>MOLECULE
No_3752-gen_results/8p0m/2024-11-26-14-13-15/
 23 24 0 0 0
SMALL
GASTEIGER

@<TRIPOS>ATOM
      1 C         -28.0162   -0.8135   28.8779 C.3     1  UNL1        0.1550
      2 C         -27.0636   -0.1190   28.6079 C.3     1  UNL1        0.1817
      3 F         -25.8837   -0.5253   28.7835 F       1  UNL1       -0.2304
      4 C         -27.0741    0.4865   27.1626 C.ar    1  UNL1        0.0114
      5 C         -28.0106   -1.3680   30.2513 C.2     1  UNL1        0.3682
      6 O         -28.9653   -1.8073   30.7686 O.co2   1  UNL1       -0.2455
      7 C         -28.0375    1.0855   26.6863 C.ar    1  UNL1       -0.0014
      8 C         -27.9711    1.8327   25.5376 C.ar    1  UNL1       -0.0002
      9 C         -26.7541    1.8375   24.7920 C.ar    1  UNL1       -0.0000
     10 C         -25.7582    0.6257   26.4873 C.ar    1  UNL1       -0.0014
     11 C         -25.6724    1.2699   25.3051 C.ar    1  UNL1       -0.0002
     12 O         -26.8471   -1.5145   30.8554 O.co2   1  UNL1       -0.2455
     13 C         -26.9629    1.2009   29.4811 C.2     1  UNL1        0.0104
     14 C         -26.3993    2.0849   29.4758 C.2     1  UNL1        0.0028
     15 C         -25.0583    2.2561   28.7044 C.ar    1  UNL1        0.0560
     16 C         -24.6978    3.4339   27.9634 C.ar    1  UNL1        0.2127
     17 N         -23.5265    3.3180   27.2926 N.ar    1  UNL1       -0.2036
     18 S         -25.7982    4.6870   27.5845 S.3     1  UNL1        0.1391
     19 C         -24.0499    1.3735   28.7914 C.ar    1  UNL1        0.1035
     20 N         -22.8644    1.4341   28.3342 N.ar    1  UNL1       -0.2223
     21 C         -22.6340    2.4558   27.4930 C.ar    1  UNL1        0.2002
     22 O         -25.9633    5.3404   28.6987 O.2     1  UNL1       -0.1452
     23 O         -25.1398    5.4376   26.5406 O.2     1  UNL1       -0.1452
@<TRIPOS>BOND
     1     1     2    1
     2     2     3    1
     3     2     4    1
     4     1     5    1
     5     5     6   ar
     6     5    12   ar
     7     2    13    1
     8    13    14    2
     9    14    15    1
    10    16    18    1
    11    18    22    2
    12    18    23    2
    13     4     7   ar
    14     7     8   ar
    15     8     9   ar
    16     9    11   ar
    17    11    10   ar
    18    10     4   ar
    19    15    16   ar
    20    16    17   ar
    21    17    21   ar
    22    21    20   ar
    23    20    19   ar
    24    19    15   ar
