@<TRIPOS>MOLECULE
No_3754-gen_results/8p0m/2024-11-26-14-13-15/
 14 15 0 0 0
SMALL
GASTEIGER

@<TRIPOS>ATOM
      1 C         -28.0162   -0.8135   28.8779 C.ar    1  UNL1       -0.0000
      2 C         -27.0636   -0.1190   28.6079 C.ar    1  UNL1       -0.0000
      3 C         -25.7923   -0.4302   29.0761 C.ar    1  UNL1       -0.0000
      4 C         -25.5756   -1.5654   29.9363 C.ar    1  UNL1       -0.0000
      5 C         -26.7354   -2.3004   30.2173 C.ar    1  UNL1        0.0000
      6 C         -27.9184   -1.9537   29.7629 C.ar    1  UNL1       -0.0000
      7 C         -27.1057    1.1023   27.7593 C.ar    1  UNL1       -0.0003
      8 C         -27.8576    1.5309   27.2156 C.ar    1  UNL1       -0.0000
      9 C         -27.8433    2.7213   26.2861 C.ar    1  UNL1       -0.0003
     10 C         -26.6217    3.3253   26.0566 C.ar    1  UNL1       -0.0030
     11 C         -25.4854    2.7960   26.6725 C.ar    1  UNL1       -0.0059
     12 C         -25.6222    1.7365   27.5193 C.ar    1  UNL1       -0.0030
     13 C         -24.1950    3.4456   26.4809 C.3     1  UNL1        0.1211
     14 CL        -22.7544    2.5324   26.8544 Cl      1  UNL1       -0.1085
@<TRIPOS>BOND
     1     2     7    1
     2    11    13    1
     3    13    14    1
     4     1     2   ar
     5     2     3   ar
     6     3     4   ar
     7     4     5   ar
     8     5     6   ar
     9     6     1   ar
    10     7     8   ar
    11     8     9   ar
    12     9    10   ar
    13    10    11   ar
    14    11    12   ar
    15    12     7   ar
