@<TRIPOS>MOLECULE
No_3755-gen_results/8p0m/2024-11-26-14-13-15/
 10 9 0 0 0
SMALL
GASTEIGER

@<TRIPOS>ATOM
      1 C         -28.0162   -0.8135   28.8779 C.3     1  UNL1        0.0945
      2 C         -27.0636   -0.1190   28.6079 C.3     1  UNL1        0.0686
      3 P         -27.0600    1.1813   27.5749 P.3     1  UNL1        0.1177
      4 O         -27.4036    2.3739   28.2361 O.3     1  UNL1       -0.3571
      5 O         -25.7356    1.2751   26.9081 O.3     1  UNL1       -0.3571
      6 O         -28.1708    0.8087   26.5589 O.2     1  UNL1       -0.4601
      7 C         -29.1434   -0.2286   29.5496 C.2     1  UNL1        0.2419
      8 O         -28.9045    0.1591   30.7095 O.2     1  UNL1       -0.2733
      9 N         -30.2342   -0.0156   28.9235 N.am    1  UNL1       -0.2035
     10 C         -30.5667   -0.5471   27.6960 C.3     1  UNL1        0.1385
@<TRIPOS>BOND
     1     1     2    1
     2     2     3    1
     3     3     4    1
     4     3     5    1
     5     3     6    2
     6     1     7    1
     7     7     8    2
     8     7     9   am
     9     9    10    1
