@<TRIPOS>MOLECULE
No_3756-gen_results/8p0m/2024-11-26-14-13-15/
 14 16 0 0 0
SMALL
GASTEIGER

@<TRIPOS>ATOM
      1 C         -28.0162   -0.8135   28.8779 C.ar    1  UNL1        0.0015
      2 C         -28.4690   -0.7850   29.8287 C.ar    1  UNL1        0.0001
      3 C         -27.0871    0.2903   28.6377 C.ar    1  UNL1        0.0177
      4 C         -26.2516    0.4114   27.4223 C.ar    1  UNL1        0.0030
      5 C         -28.3913    0.1041   30.9805 C.ar    1  UNL1        0.0015
      6 C         -27.5332    1.1666   30.7866 C.ar    1  UNL1        0.0191
      7 C         -26.8281    1.2557   29.6454 C.ar    1  UNL1        0.0812
      8 C         -25.6444    1.6653   27.2216 C.ar    1  UNL1        0.0177
      9 C         -24.6323    1.7370   26.2648 C.ar    1  UNL1        0.0015
     10 C         -23.8428    2.9890   26.2421 C.ar    1  UNL1        0.0001
     11 C         -24.2582    4.0862   27.0216 C.ar    1  UNL1        0.0015
     12 C         -25.3587    3.9452   27.8294 C.ar    1  UNL1        0.0191
     13 C         -25.9857    2.7341   28.0164 C.ar    1  UNL1        0.0812
     14 N         -26.6415    2.5394   29.2261 N.ar    1  UNL1       -0.2454
@<TRIPOS>BOND
     1     8     9   ar
     2     9    10   ar
     3    10    11   ar
     4    11    12   ar
     5    12    13   ar
     6     3     4   ar
     7     4     8   ar
     8     8    13   ar
     9    13    14   ar
    10    14     7   ar
    11     1     2   ar
    12     2     5   ar
    13     5     6   ar
    14     6     7   ar
    15     7     3   ar
    16     3     1   ar
