@<TRIPOS>MOLECULE
No_3757-gen_results/8p0m/2024-11-26-14-13-15/
 35 40 0 0 0
SMALL
GASTEIGER

@<TRIPOS>ATOM
      1 C         -28.0162   -0.8135   28.8779 C.ar    1  UNL1        0.0534
      2 C         -27.0636   -0.1190   28.6079 C.ar    1  UNL1        0.0147
      3 C         -25.7647   -0.3897   29.0360 C.ar    1  UNL1        0.0013
      4 C         -24.5516    0.4058   28.7646 C.ar    1  UNL1        0.0030
      5 C         -23.2300    0.1178   29.2575 C.ar    1  UNL1        0.0001
      6 C         -23.0942   -1.1309   29.8730 C.ar    1  UNL1        0.0000
      7 C         -27.7980   -1.9341   29.8560 C.ar    1  UNL1        0.0669
      8 C         -26.5420   -2.3269   30.2580 C.ar    1  UNL1        0.0058
      9 C         -25.4514   -1.5516   29.9079 C.ar    1  UNL1        0.0002
     10 C         -24.1562   -1.9097   30.2809 C.ar    1  UNL1        0.0000
     11 C         -24.6450    1.6582   27.9464 C.ar    1  UNL1        0.0347
     12 C         -24.8958    2.7559   28.5615 C.ar    1  UNL1        0.1487
     13 C         -25.1728    3.9344   27.8439 C.ar    1  UNL1        0.0376
     14 C         -24.4838    1.5571   26.5889 C.ar    1  UNL1        0.0030
     15 C         -24.6321    2.6940   25.7850 C.ar    1  UNL1        0.0002
     16 C         -24.8902    3.9231   26.4317 C.ar    1  UNL1        0.0031
     17 O         -25.0758    2.9107   29.9068 O.3     1  UNL1       -0.4210
     18 C         -25.9144    3.7559   30.5334 C.2     1  UNL1        0.3457
     19 C         -26.7001    3.1529   31.5348 C.ar    1  UNL1        0.0760
     20 C         -27.9572    3.4256   31.5964 C.ar    1  UNL1        0.0065
     21 C         -26.0796    2.2334   32.4543 C.ar    1  UNL1        0.0065
     22 C         -26.8232    1.4473   33.3275 C.ar    1  UNL1        0.0002
     23 C         -28.7952    2.6114   32.5295 C.ar    1  UNL1        0.0002
     24 C         -28.2081    1.7577   33.4409 C.ar    1  UNL1        0.0000
     25 C         -29.0366   -2.7119   30.2295 C.2     1  UNL1        0.2513
     26 O         -29.0271   -3.8496   30.4610 O.2     1  UNL1       -0.2698
     27 N         -30.1718   -2.0231   30.4875 N.am    1  UNL1       -0.2613
     28 C         -31.3853   -2.6184   30.9190 C.3     1  UNL1        0.0952
     29 O         -25.8805    4.9595   30.4020 O.2     1  UNL1       -0.2445
     30 C         -32.2982   -2.2276   30.6819 C.3     1  UNL1        0.0217
     31 C         -32.5366   -0.8161   30.1958 C.3     1  UNL1        0.0053
     32 C         -31.3415   -0.1333   29.8292 C.3     1  UNL1        0.0409
     33 C         -30.2452   -0.7364   29.9043 C.3     1  UNL1        0.1523
     34 N         -29.1538   -0.1442   29.2763 N.pl3   1  UNL1       -0.2914
     35 C         -29.3912    1.1993   28.7561 C.3     1  UNL1        0.1136
@<TRIPOS>BOND
     1     4    11    1
     2    12    17    1
     3    17    18    1
     4    18    19    1
     5     7    25    1
     6    25    26    2
     7    25    27   am
     8    27    28    1
     9    18    29    2
    10    30    31    1
    11    27    33    1
    12    32    33    1
    13     1    34    1
    14    33    34    1
    15    34    35    1
    16    28    30    1
    17    31    32    1
    18     1     2   ar
    19     2     3   ar
    20     9     8   ar
    21     8     7   ar
    22     7     1   ar
    23    19    20   ar
    24    20    23   ar
    25    23    24   ar
    26    24    22   ar
    27    22    21   ar
    28    21    19   ar
    29     3     4   ar
    30     4     5   ar
    31     5     6   ar
    32     6    10   ar
    33    10     9   ar
    34     9     3   ar
    35    11    12   ar
    36    12    13   ar
    37    13    16   ar
    38    16    15   ar
    39    15    14   ar
    40    14    11   ar
