@<TRIPOS>MOLECULE
No_3759-gen_results/8p0m/2024-11-26-14-13-15/
 34 36 0 0 0
SMALL
GASTEIGER

@<TRIPOS>ATOM
      1 C         -28.0162   -0.8135   28.8779 C.ar    1  UNL1        0.0084
      2 C         -28.4690   -0.7850   29.8287 C.ar    1  UNL1        0.0545
      3 C         -27.1356    0.2359   28.5352 C.ar    1  UNL1        0.0718
      4 C         -26.8745    1.2825   29.3982 C.ar    1  UNL1        0.0103
      5 C         -28.3613    0.1987   30.9244 C.ar    1  UNL1        0.0110
      6 C         -27.5277    1.2234   30.6356 C.ar    1  UNL1        0.0758
      7 C         -26.3987    0.2949   27.2279 C.3     1  UNL1        0.4186
      8 F         -26.9306   -0.1351   26.3032 F       1  UNL1       -0.1659
      9 F         -25.9613    1.6138   26.9363 F       1  UNL1       -0.1659
     10 F         -25.0817   -0.3512   27.4290 F       1  UNL1       -0.1659
     11 C         -29.4021   -1.9985   30.3266 C.2     1  UNL1        0.2587
     12 O         -28.9967   -3.1311   30.3934 O.2     1  UNL1       -0.2692
     13 N         -30.6359   -1.8154   30.7506 N.am    1  UNL1       -0.2011
     14 C         -31.5009   -2.8604   31.1593 C.2     1  UNL1        0.2587
     15 C         -31.2690   -0.4527   30.7463 C.ar    1  UNL1        0.0612
     16 C         -32.3659   -0.4812   29.9304 C.ar    1  UNL1        0.0153
     17 C         -32.9911    0.6900   29.8783 C.ar    1  UNL1        0.0013
     18 C         -32.5327    1.8752   30.5474 C.ar    1  UNL1        0.0001
     19 C         -31.4415    1.7363   31.3525 C.ar    1  UNL1        0.0013
     20 C         -30.8280    0.5971   31.4559 C.ar    1  UNL1        0.0153
     21 C         -27.3173    2.4061   31.5670 C.2     1  UNL1        0.3417
     22 O         -28.0064    3.4082   31.4832 O.2     1  UNL1       -0.2449
     23 O         -26.1991    2.3669   32.2877 O.3     1  UNL1       -0.4329
     24 C         -25.9675    3.4197   33.0488 C.3     1  UNL1        0.3215
     25 C         -24.9493    4.3779   32.4840 C.2     1  UNL1        0.4086
     26 O         -24.5616    5.2943   33.2011 O.co2   1  UNL1       -0.2415
     27 O         -24.4529    4.0692   31.3503 O.co2   1  UNL1       -0.2415
     28 C         -31.3323   -3.2757   32.4688 C.ar    1  UNL1        0.0543
     29 C         -30.8390   -2.7552   33.3314 C.ar    1  UNL1        0.0045
     30 C         -30.6470   -3.2429   34.7338 C.ar    1  UNL1        0.0001
     31 C         -31.2058   -4.4895   34.9487 C.ar    1  UNL1        0.0000
     32 C         -31.8905   -4.6227   32.7743 C.ar    1  UNL1        0.0045
     33 C         -31.7875   -5.1772   33.9845 C.ar    1  UNL1        0.0001
     34 O         -32.0455   -3.5122   30.2323 O.2     1  UNL1       -0.2692
@<TRIPOS>BOND
     1     3     7    1
     2     7     8    1
     3     7     9    1
     4     7    10    1
     5     2    11    1
     6    11    12    2
     7    11    13   am
     8    13    14   am
     9    13    15    1
    10     6    21    1
    11    21    22    2
    12    21    23    1
    13    23    24    1
    14    24    25    1
    15    25    26   ar
    16    25    27   ar
    17    14    28    1
    18    14    34    2
    19    15    16   ar
    20    16    17   ar
    21    17    18   ar
    22    18    19   ar
    23    19    20   ar
    24    20    15   ar
    25    28    29   ar
    26    29    30   ar
    27    30    31   ar
    28    31    33   ar
    29    33    32   ar
    30    32    28   ar
    31     1     2   ar
    32     2     5   ar
    33     5     6   ar
    34     6     4   ar
    35     4     3   ar
    36     3     1   ar
