@<TRIPOS>MOLECULE
No_376-gen_results/8p0m/2024-11-26-14-13-15/
 16 17 0 0 0
SMALL
GASTEIGER

@<TRIPOS>ATOM
      1 C         -28.0162   -0.8135   28.8779 C.ar    1  UNL1       -0.0029
      2 C         -28.4690   -0.7850   29.8287 C.ar    1  UNL1       -0.0062
      3 C         -26.5042   -0.7777   28.8766 C.ar    1  UNL1       -0.0003
      4 C         -25.8103   -0.8531   30.1028 C.ar    1  UNL1       -0.0000
      5 C         -27.9906   -0.8916   31.2257 C.ar    1  UNL1       -0.0029
      6 C         -26.6042   -0.8676   31.2652 C.ar    1  UNL1       -0.0003
      7 C         -30.0773   -0.8857   30.0240 C.3     1  UNL1        0.0993
      8 N         -30.6567   -1.8894   30.1850 N.3     1  UNL1       -0.2132
      9 C         -30.8057    0.3444   29.6739 C.3     1  UNL1        0.0482
     10 C         -30.2862    1.5022   29.5915 C.ar    1  UNL1       -0.0204
     11 C         -31.0729    2.6388   29.2116 C.ar    1  UNL1       -0.0042
     12 C         -30.5614    3.9555   29.1012 C.ar    1  UNL1       -0.0003
     13 C         -29.1670    4.1240   29.3298 C.ar    1  UNL1       -0.0000
     14 C         -28.3507    3.0219   29.6516 C.ar    1  UNL1       -0.0003
     15 C         -28.8988    1.7754   29.7659 C.ar    1  UNL1       -0.0042
     16 C         -31.9042   -2.1732   29.9103 C.3     1  UNL1        0.1078
@<TRIPOS>BOND
     1     2     7    1
     2     7     8    1
     3     7     9    1
     4     9    10    1
     5     8    16    1
     6     1     2   ar
     7     2     5   ar
     8     5     6   ar
     9     6     4   ar
    10     4     3   ar
    11     3     1   ar
    12    10    11   ar
    13    11    12   ar
    14    12    13   ar
    15    13    14   ar
    16    14    15   ar
    17    15    10   ar
