@<TRIPOS>MOLECULE
No_3760-gen_results/8p0m/2024-11-26-14-13-15/
 18 20 0 0 0
SMALL
GASTEIGER

@<TRIPOS>ATOM
      1 C         -28.0162   -0.8135   28.8779 C.ar    1  UNL1        0.0375
      2 C         -27.0636   -0.1190   28.6079 C.ar    1  UNL1        0.0031
      3 C         -25.7923   -0.4302   29.0761 C.ar    1  UNL1        0.0002
      4 C         -25.5756   -1.5654   29.9363 C.ar    1  UNL1        0.0031
      5 C         -26.7354   -2.3004   30.2173 C.ar    1  UNL1        0.0375
      6 C         -27.9184   -1.9537   29.7629 C.ar    1  UNL1        0.1449
      7 O         -29.0001   -2.7012   30.1151 O.3     1  UNL1       -0.4558
      8 C         -24.5290    0.3490   28.7998 C.ar    1  UNL1        0.0000
      9 C         -24.4808    1.2113   27.7998 C.ar    1  UNL1        0.0000
     10 C         -23.2478    1.8974   27.4951 C.ar    1  UNL1        0.0000
     11 C         -22.0497    1.5890   28.1642 C.ar    1  UNL1        0.0000
     12 C         -23.3072    0.0149   29.4618 C.ar    1  UNL1        0.0000
     13 C         -22.0852    0.6899   29.1374 C.ar    1  UNL1        0.0000
     14 C         -30.1270   -2.1323   30.5815 C.2     1  UNL1        0.1478
     15 C         -31.1983   -2.7137   30.1241 C.2     1  UNL1        0.1317
     16 N         -32.3616   -2.0627   30.3644 N.2     1  UNL1       -0.2437
     17 C         -32.3099   -1.0055   31.0899 C.2     1  UNL1        0.0806
     18 C         -30.4611   -0.9589   31.3259 C.3     1  UNL1        0.1130
@<TRIPOS>BOND
     1     6     7    1
     2     3     8    1
     3     7    14    1
     4    14    15    2
     5    15    16    1
     6    16    17    2
     7    14    18    1
     8    17    18    1
     9     1     2   ar
    10     2     3   ar
    11     3     4   ar
    12     4     5   ar
    13     5     6   ar
    14     6     1   ar
    15     8     9   ar
    16     9    10   ar
    17    10    11   ar
    18    11    13   ar
    19    13    12   ar
    20    12     8   ar
