@<TRIPOS>MOLECULE
No_3761-gen_results/8p0m/2024-11-26-14-13-15/
 18 20 0 0 0
SMALL
GASTEIGER

@<TRIPOS>ATOM
      1 O         -28.1229   -1.3353   28.4874 O.2     1  UNL1       -0.2730
      2 C         -27.0637   -0.8242   28.8687 C.2     1  UNL1        0.2454
      3 C         -26.4017   -0.0623   28.6224 C.3     1  UNL1        0.1073
      4 N         -26.3805   -1.7991   29.9619 N.am    1  UNL1       -0.2051
      5 C         -25.0334    0.3743   29.0484 C.3     1  UNL1        0.0720
      6 C         -24.1925    1.4363   28.6630 C.2     1  UNL1        0.1511
      7 C         -22.8826    1.5895   29.1452 C.3     1  UNL1        0.0645
      8 C         -22.3864    0.4912   29.8565 C.3     1  UNL1        0.0078
      9 C         -23.0976   -0.6325   30.1858 C.3     1  UNL1        0.0027
     10 C         -24.3666   -0.7298   29.7569 C.3     1  UNL1        0.0294
     11 C         -25.1740   -1.8020   30.2702 C.3     1  UNL1        0.1155
     12 C         -26.6984    0.9310   27.4371 C.ar    1  UNL1       -0.0134
     13 C         -26.4084    0.5957   26.1418 C.ar    1  UNL1       -0.0038
     14 C         -27.5510    1.9676   27.7151 C.ar    1  UNL1       -0.0038
     15 C         -26.9856    1.1558   25.0311 C.ar    1  UNL1       -0.0003
     16 C         -28.1277    2.6794   26.6362 C.ar    1  UNL1       -0.0003
     17 C         -27.8305    2.3126   25.2834 C.ar    1  UNL1       -0.0000
     18 O         -24.6774    2.5049   27.9789 O.2     1  UNL1       -0.2960
@<TRIPOS>BOND
     1     1     2    2
     2     2     3    1
     3     2     4   am
     4     5     6    1
     5     6     7    1
     6     8     9    1
     7     5    10    1
     8     4    11    1
     9    10    11    1
    10     3    12    1
    11     6    18    2
    12     3     5    1
    13    10     9    1
    14     8     7    1
    15    12    13   ar
    16    13    15   ar
    17    15    17   ar
    18    17    16   ar
    19    16    14   ar
    20    14    12   ar
