@<TRIPOS>MOLECULE
No_3762-gen_results/8p0m/2024-11-26-14-13-15/
 15 15 0 0 0
SMALL
GASTEIGER

@<TRIPOS>ATOM
      1 C         -28.0162   -0.8135   28.8779 C.ar    1  UNL1       -0.0043
      2 C         -27.0636   -0.1189   28.6079 C.ar    1  UNL1       -0.0225
      3 C         -26.9287    1.1713   29.0083 C.ar    1  UNL1       -0.0043
      4 C         -27.9560    1.7411   29.7840 C.ar    1  UNL1       -0.0003
      5 C         -29.0569   -0.3271   29.7466 C.ar    1  UNL1       -0.0003
      6 C         -28.9828    0.9722   30.1516 C.ar    1  UNL1       -0.0000
      7 C         -25.8907   -0.6263   27.7857 C.3     1  UNL1        0.0224
      8 C         -25.4633    0.1123   26.6815 C.3     1  UNL1        0.0047
      9 C         -25.0310   -1.6701   28.2406 C.3     1  UNL1        0.0047
     10 C         -24.3963   -1.7192   29.4773 C.3     1  UNL1        0.0047
     11 C         -24.0579   -0.5328   30.1981 C.3     1  UNL1        0.0217
     12 C         -23.9886   -0.7000   31.6155 C.2     1  UNL1       -0.0310
     13 C         -23.8026    0.6875   29.6665 C.3     1  UNL1        0.0047
     14 C         -25.0682   -0.5970   32.5409 C.2     1  UNL1       -0.0304
     15 C         -25.0527   -0.4195   33.8549 C.3     1  UNL1        0.0303
@<TRIPOS>BOND
     1     2     7    1
     2     7     8    1
     3     7     9    1
     4     9    10    1
     5    10    11    1
     6    11    12    1
     7    11    13    1
     8    12    14    2
     9    14    15    1
    10     1     2   ar
    11     2     3   ar
    12     3     4   ar
    13     4     6   ar
    14     6     5   ar
    15     5     1   ar
