@<TRIPOS>MOLECULE
No_3764-gen_results/8p0m/2024-11-26-14-13-15/
 27 29 0 0 0
SMALL
GASTEIGER

@<TRIPOS>ATOM
      1 C         -28.0162   -0.8135   28.8779 C.ar    1  UNL1        0.0045
      2 C         -28.4690   -0.7850   29.8287 C.ar    1  UNL1        0.0001
      3 C         -27.0871    0.2903   28.6377 C.ar    1  UNL1        0.0536
      4 C         -26.8317    1.2487   29.5869 C.ar    1  UNL1        0.0045
      5 C         -28.3914    0.0801   31.0065 C.ar    1  UNL1       -0.0003
      6 C         -27.4940    1.1521   30.7841 C.ar    1  UNL1        0.0001
      7 C         -26.3109    0.3918   27.3640 C.2     1  UNL1        0.2493
      8 N         -26.7768    0.8323   26.3762 N.am    1  UNL1       -0.2722
      9 O         -25.1608   -0.2925   27.3008 O.2     1  UNL1       -0.2699
     10 C         -26.1260    0.7881   25.0431 C.3     1  UNL1        0.1154
     11 C         -28.0606    1.5616   26.2804 C.3     1  UNL1        0.0983
     12 C         -29.2607    0.8851   26.5367 C.ar    1  UNL1       -0.0041
     13 C         -29.7951    0.1691   25.9205 C.ar    1  UNL1       -0.0030
     14 C         -31.1083   -0.4619   26.2706 C.ar    1  UNL1       -0.0041
     15 C         -31.6517   -0.2249   27.5190 C.ar    1  UNL1       -0.0133
     16 C         -31.0491    0.7631   28.3049 C.ar    1  UNL1        0.0515
     17 C         -29.8371    1.3863   27.9285 C.ar    1  UNL1        0.0016
     18 C         -27.9750    2.9467   25.8679 C.3     1  UNL1        0.0264
     19 C         -31.7093    1.1339   29.6226 C.2     1  UNL1        0.2687
     20 N         -32.2414    0.2987   30.3811 N.am    1  UNL1       -0.1745
     21 C         -32.4185   -0.7860   30.3407 C.2     1  UNL1        0.0847
     22 C         -32.7409   -1.5749   29.2152 C.2     1  UNL1       -0.0035
     23 C         -32.3837   -1.3386   28.0858 C.3     1  UNL1        0.0539
     24 O         -31.5280    2.4247   29.8199 O.2     1  UNL1       -0.2680
     25 C         -29.1393   -0.0043   32.2626 C.2     1  UNL1       -0.0046
     26 C         -29.3873   -1.2191   32.7712 C.2     1  UNL1       -0.0258
     27 C         -30.0993   -1.3410   34.0147 C.3     1  UNL1        0.0307
@<TRIPOS>BOND
     1     3     7    1
     2     7     8   am
     3     7     9    2
     4     8    10    1
     5     8    11    1
     6    11    12    1
     7    11    18    1
     8    16    19    1
     9    19    20   am
    10    20    21    1
    11    21    22    2
    12    15    23    1
    13    22    23    1
    14    19    24    2
    15     5    25    1
    16    25    26    2
    17    26    27    1
    18    12    13   ar
    19    13    14   ar
    20    14    15   ar
    21    15    16   ar
    22    16    17   ar
    23    17    12   ar
    24     1     2   ar
    25     2     5   ar
    26     5     6   ar
    27     6     4   ar
    28     4     3   ar
    29     3     1   ar
