@<TRIPOS>MOLECULE
No_3765-gen_results/8p0m/2024-11-26-14-13-15/
 15 16 0 0 0
SMALL
GASTEIGER

@<TRIPOS>ATOM
      1 C         -28.0162   -0.8135   28.8779 C.ar    1  UNL1        0.0000
      2 C         -27.0636   -0.1189   28.6079 C.ar    1  UNL1       -0.0000
      3 C         -27.0010    0.6913   27.4910 C.ar    1  UNL1       -0.0000
      4 C         -25.8548    1.4825   27.0830 C.ar    1  UNL1       -0.0000
      5 C         -24.6901    1.4526   27.8807 C.ar    1  UNL1       -0.0003
      6 C         -24.7379    0.6010   29.0416 C.ar    1  UNL1       -0.0000
      7 C         -25.8234   -0.1688   29.3887 C.ar    1  UNL1       -0.0000
      8 C         -28.7520   -0.4585   30.1411 C.ar    1  UNL1        0.0000
      9 C         -29.8322   -1.2942   30.5903 C.ar    1  UNL1        0.0000
     10 C         -29.8522   -2.4986   30.1368 C.ar    1  UNL1        0.0000
     11 C         -28.8769   -3.1546   29.5166 C.ar    1  UNL1        0.0000
     12 C         -27.8121   -2.4112   29.0387 C.ar    1  UNL1        0.0000
     13 C         -23.5121    2.2262   27.5530 C.2     1  UNL1       -0.0046
     14 C         -22.4056    2.1455   28.3824 C.2     1  UNL1       -0.0258
     15 C         -22.4542    1.1450   29.3962 C.3     1  UNL1        0.0307
@<TRIPOS>BOND
     1     1     2    1
     2     5    13    1
     3    13    14    2
     4    14    15    1
     5     2     3   ar
     6     3     4   ar
     7     4     5   ar
     8     5     6   ar
     9     6     7   ar
    10     7     2   ar
    11     1     8   ar
    12     8     9   ar
    13     9    10   ar
    14    10    11   ar
    15    11    12   ar
    16    12     1   ar
