@<TRIPOS>MOLECULE
No_3766-gen_results/8p0m/2024-11-26-14-13-15/
 27 30 0 0 0
SMALL
GASTEIGER

@<TRIPOS>ATOM
      1 C         -28.0162   -0.8135   28.8779 C.ar    1  UNL1        0.0046
      2 C         -27.0636   -0.1190   28.6079 C.ar    1  UNL1        0.0001
      3 C         -25.7647   -0.3897   29.0360 C.ar    1  UNL1        0.0000
      4 C         -25.5296   -1.5302   29.9014 C.ar    1  UNL1        0.0001
      5 C         -26.6888   -2.2893   30.1810 C.ar    1  UNL1        0.0046
      6 C         -27.8727   -1.9508   29.7373 C.ar    1  UNL1        0.0551
      7 C         -24.5491    0.4100   28.7341 C.ar    1  UNL1        0.0008
      8 C         -24.4789    1.1871   27.6843 C.ar    1  UNL1        0.0114
      9 C         -23.3857    1.8609   27.3612 C.ar    1  UNL1        0.0577
     10 C         -22.1453    1.7224   28.0030 C.ar    1  UNL1        0.0114
     11 C         -23.3290    0.1820   29.4685 C.ar    1  UNL1        0.0001
     12 C         -22.1297    0.8607   29.0762 C.ar    1  UNL1        0.0009
     13 C         -29.0365   -2.7861   30.1610 C.2     1  UNL1        0.2660
     14 N         -30.1910   -2.3194   30.1647 N.am    1  UNL1       -0.1861
     15 O         -28.8334   -3.9996   30.5066 O.2     1  UNL1       -0.2683
     16 C         -31.3875   -3.1021   30.5271 C.3     1  UNL1        0.1218
     17 C         -32.3974   -2.5284   30.7906 C.3     1  UNL1        0.0512
     18 C         -32.6394   -1.4269   30.1685 C.ar    1  UNL1       -0.0030
     19 C         -33.8706   -0.6111   30.4051 C.ar    1  UNL1        0.0074
     20 C         -33.9976    0.6650   29.8550 C.ar    1  UNL1        0.0682
     21 C         -32.9700    1.1316   28.9943 C.ar    1  UNL1        0.0116
     22 C         -31.8470    0.4082   28.7295 C.ar    1  UNL1        0.0184
     23 C         -31.7362   -0.8283   29.3473 C.ar    1  UNL1        0.0836
     24 N         -30.4403   -1.3886   29.3512 N.pl3   1  UNL1       -0.1448
     25 CL        -23.4068    2.9717   25.9904 Cl      1  UNL1       -0.0822
     26 C         -35.2565    1.4274   30.0221 C.1     1  UNL1        0.1004
     27 N         -35.7239    1.4873   31.1291 N.1     1  UNL1       -0.1908
@<TRIPOS>BOND
     1     3     7    1
     2     6    13    1
     3    13    14   am
     4    13    15    2
     5    14    16    1
     6    16    17    1
     7    14    24    1
     8     9    25    1
     9    20    26    1
    10    26    27    3
    11    17    18    1
    12    23    24    1
    13     7     8   ar
    14     8     9   ar
    15     9    10   ar
    16    10    12   ar
    17    12    11   ar
    18    11     7   ar
    19     1     2   ar
    20     2     3   ar
    21     3     4   ar
    22     4     5   ar
    23     5     6   ar
    24     6     1   ar
    25    18    19   ar
    26    19    20   ar
    27    20    21   ar
    28    21    22   ar
    29    22    23   ar
    30    23    18   ar
