@<TRIPOS>MOLECULE
No_3768-gen_results/8p0m/2024-11-26-14-13-15/
 22 23 0 0 0
SMALL
GASTEIGER

@<TRIPOS>ATOM
      1 O         -28.1229   -1.3353   28.4874 O.2     1  UNL1       -0.2696
      2 C         -27.4806   -0.4044   28.7094 C.2     1  UNL1        0.2528
      3 C         -26.3804   -0.0867   27.9394 C.ar    1  UNL1        0.0539
      4 N         -27.6664    0.4468   29.8988 N.am    1  UNL1       -0.2522
      5 C         -25.1773   -0.4388   28.3946 C.ar    1  UNL1        0.0045
      6 C         -26.5259    0.6036   26.6867 C.ar    1  UNL1        0.0045
      7 C         -23.9372    0.0372   27.6524 C.ar    1  UNL1        0.0001
      8 C         -25.3818    0.9698   25.9434 C.ar    1  UNL1        0.0001
      9 C         -24.1031    0.7250   26.4412 C.ar    1  UNL1        0.0000
     10 C         -28.7610    0.1071   30.7837 C.3     1  UNL1        0.1204
     11 C         -26.8495    1.5251   30.1941 C.2     1  UNL1        0.0679
     12 C         -27.0729    2.4715   30.5831 C.2     1  UNL1        0.0168
     13 C         -26.0439    3.4976   30.7939 C.2     1  UNL1        0.0102
     14 C         -26.2862    4.8504   31.2654 C.2     1  UNL1        0.0496
     15 C         -25.3233    5.8470   31.2401 C.1     1  UNL1       -0.0591
     16 C         -25.0150    6.9013   31.0464 C.1     1  UNL1       -0.0597
     17 C         -24.5567    7.8879   30.6880 C.ar    1  UNL1        0.0420
     18 C         -24.7048    8.6470   29.5932 C.ar    1  UNL1        0.0082
     19 C         -23.9732    9.8809   29.2584 C.ar    1  UNL1        0.0006
     20 C         -22.9506   10.2775   30.1086 C.ar    1  UNL1        0.0000
     21 C         -23.3549    8.5311   31.4602 C.ar    1  UNL1        0.0082
     22 C         -22.6530    9.6216   31.2074 C.ar    1  UNL1        0.0006
@<TRIPOS>BOND
     1     1     2    2
     2     2     3    1
     3     2     4   am
     4     4    10    1
     5     4    11    1
     6    11    12    2
     7    12    13    1
     8    13    14    2
     9    14    15    1
    10    15    16    3
    11    16    17    1
    12    17    18   ar
    13    18    19   ar
    14    19    20   ar
    15    20    22   ar
    16    22    21   ar
    17    21    17   ar
    18     3     5   ar
    19     5     7   ar
    20     7     9   ar
    21     9     8   ar
    22     8     6   ar
    23     6     3   ar
