@<TRIPOS>MOLECULE
No_377-gen_results/8p0m/2024-11-26-14-13-15/
 31 34 0 0 0
SMALL
GASTEIGER

@<TRIPOS>ATOM
      1 C         -28.0162   -0.8135   28.8779 C.ar    1  UNL1        0.0113
      2 C         -28.4690   -0.7850   29.8287 C.ar    1  UNL1        0.0279
      3 C         -26.5455   -0.8762   28.8500 C.ar    1  UNL1        0.0575
      4 C         -25.8041   -1.0324   30.0571 C.ar    1  UNL1        0.0114
      5 C         -27.9437   -0.9869   31.2075 C.ar    1  UNL1       -0.0001
      6 C         -26.5825   -1.0386   31.2231 C.ar    1  UNL1        0.0007
      7 C         -30.0279   -0.6588   29.6965 C.3     1  UNL1        0.2515
      8 O         -30.7763   -1.4156   30.1892 O.3     1  UNL1       -0.1956
      9 N         -30.4492    0.3685   28.9711 N.pl3   1  UNL1       -0.2760
     10 C         -29.6953    1.4012   28.3834 C.3     1  UNL1        0.1201
     11 C         -29.3178    2.3311   29.2089 C.ar    1  UNL1       -0.0023
     12 C         -29.1050    3.3360   29.0702 C.ar    1  UNL1       -0.0026
     13 C         -28.6911    4.3964   30.0879 C.ar    1  UNL1       -0.0003
     14 C         -28.3739    3.9347   31.3545 C.ar    1  UNL1        0.0000
     15 C         -28.5578    2.5755   31.6091 C.ar    1  UNL1        0.0003
     16 C         -28.9402    1.7619   30.6281 C.ar    1  UNL1       -0.0026
     17 C         -28.2192    2.1433   33.0093 C.ar    1  UNL1        0.0077
     18 C         -26.9430    2.1277   33.4054 C.ar    1  UNL1        0.0426
     19 C         -29.2797    1.5507   33.7544 C.ar    1  UNL1        0.0006
     20 C         -28.9680    0.7033   34.7902 C.ar    1  UNL1        0.0000
     21 C         -26.6141    1.4305   34.6040 C.ar    1  UNL1        0.0083
     22 C         -27.5973    0.7458   35.3116 C.ar    1  UNL1        0.0006
     23 C         -31.9157    0.4931   28.7667 C.ar    1  UNL1        0.0500
     24 CL        -25.5954   -0.7574   27.4226 Cl      1  UNL1       -0.0823
     25 C         -32.6775    1.2474   29.5806 C.ar    1  UNL1        0.0146
     26 C         -33.8731    1.4227   29.5267 C.ar    1  UNL1        0.0013
     27 C         -34.5773    0.7407   28.5187 C.ar    1  UNL1        0.0001
     28 C         -32.5358   -0.2428   27.7433 C.ar    1  UNL1        0.0146
     29 C         -33.5560   -0.0724   27.5877 C.ar    1  UNL1        0.0013
     30 C         -25.8638    2.7959   32.6823 C.1     1  UNL1       -0.0512
     31 C         -25.4403    4.0998   32.9779 C.1     1  UNL1       -0.0092
@<TRIPOS>BOND
     1     2     7    1
     2     7     8    1
     3     7     9    1
     4     9    10    1
     5    10    11    1
     6    15    17    1
     7     9    23    1
     8     3    24    1
     9    18    30    1
    10    30    31    3
    11    11    12   ar
    12    12    13   ar
    13    13    14   ar
    14    14    15   ar
    15    15    16   ar
    16    16    11   ar
    17    23    25   ar
    18    25    26   ar
    19    26    27   ar
    20    27    29   ar
    21    29    28   ar
    22    28    23   ar
    23    17    18   ar
    24    18    21   ar
    25    21    22   ar
    26    22    20   ar
    27    20    19   ar
    28    19    17   ar
    29     1     2   ar
    30     2     5   ar
    31     5     6   ar
    32     6     4   ar
    33     4     3   ar
    34     3     1   ar
