@<TRIPOS>MOLECULE
No_3770-gen_results/8p0m/2024-11-26-14-13-15/
 10 11 0 0 0
SMALL
GASTEIGER

@<TRIPOS>ATOM
      1 C         -28.0162   -0.8135   28.8779 C.ar    1  UNL1        0.0988
      2 C         -27.0636   -0.1190   28.6079 C.ar    1  UNL1        0.0192
      3 C         -25.7923   -0.4302   29.0761 C.ar    1  UNL1        0.0030
      4 C         -24.5456    0.3494   28.8225 C.ar    1  UNL1        0.0001
      5 C         -24.6586    1.4196   27.8878 C.ar    1  UNL1        0.0000
      6 C         -25.9471    1.6811   27.3792 C.ar    1  UNL1        0.0000
      7 C         -27.0439    0.9739   27.6871 C.ar    1  UNL1        0.0015
      8 N         -27.9517   -1.7518   29.9375 N.ar    1  UNL1       -0.2423
      9 C         -26.7159   -2.1983   30.3723 C.ar    1  UNL1        0.0989
     10 C         -25.5700   -1.4970   30.0389 C.ar    1  UNL1        0.0207
@<TRIPOS>BOND
     1     3     4   ar
     2     4     5   ar
     3     5     6   ar
     4     6     7   ar
     5     7     2   ar
     6     1     2   ar
     7     2     3   ar
     8     3    10   ar
     9    10     9   ar
    10     9     8   ar
    11     8     1   ar
