@<TRIPOS>MOLECULE
No_3772-gen_results/8p0m/2024-11-26-14-13-15/
 15 15 0 0 0
SMALL
GASTEIGER

@<TRIPOS>ATOM
      1 C         -28.0162   -0.8135   28.8779 C.ar    1  UNL1        0.0047
      2 C         -27.0636   -0.1189   28.6079 C.ar    1  UNL1        0.0550
      3 C         -26.9716    0.7139   27.5060 C.ar    1  UNL1        0.0047
      4 C         -28.1053    0.7744   26.6421 C.ar    1  UNL1        0.0048
      5 C         -29.2008    0.1044   27.0527 C.ar    1  UNL1        0.0567
      6 C         -29.2096   -0.6029   28.1853 C.ar    1  UNL1        0.0048
      7 C         -30.3702    0.2264   26.1604 C.2     1  UNL1        0.2842
      8 N         -30.2991    0.2342   24.9383 N.am    1  UNL1       -0.0837
      9 O         -31.5326    0.1001   26.7070 O.2     1  UNL1       -0.2667
     10 C         -25.7010   -0.2218   29.4257 C.2     1  UNL1        0.2647
     11 N         -25.4577   -0.8618   30.2628 N.am    1  UNL1       -0.2034
     12 O         -24.7209    0.6472   29.0599 O.2     1  UNL1       -0.2684
     13 C         -24.2029   -0.9977   31.0409 C.3     1  UNL1        0.0957
     14 C         -24.1133   -0.4183   32.2408 C.3     1  UNL1        0.0234
     15 C         -23.1044   -0.3510   30.1288 C.3     1  UNL1        0.0234
@<TRIPOS>BOND
     1     5     7    1
     2     7     8   am
     3     7     9    2
     4     2    10    1
     5    10    11   am
     6    10    12    2
     7    11    13    1
     8    13    14    1
     9    13    15    1
    10     1     2   ar
    11     2     3   ar
    12     3     4   ar
    13     4     5   ar
    14     5     6   ar
    15     6     1   ar
