@<TRIPOS>MOLECULE
No_3773-gen_results/8p0m/2024-11-26-14-13-15/
 11 11 0 0 0
SMALL
GASTEIGER

@<TRIPOS>ATOM
      1 C         -28.0162   -0.8135   28.8779 C.ar    1  UNL1       -0.0000
      2 C         -28.4690   -0.7850   29.8287 C.ar    1  UNL1        0.0000
      3 C         -27.1356    0.2359   28.5352 C.ar    1  UNL1       -0.0000
      4 C         -26.8745    1.2825   29.3982 C.ar    1  UNL1       -0.0000
      5 C         -28.3613    0.1987   30.9244 C.ar    1  UNL1        0.0000
      6 C         -27.5277    1.2234   30.6356 C.ar    1  UNL1        0.0000
      7 C         -26.3987    0.2949   27.2279 C.2     1  UNL1       -0.0000
      8 C         -26.9022    0.7280   26.2134 C.2     1  UNL1       -0.0003
      9 C         -28.2290    1.2592   26.1972 C.2     1  UNL1       -0.0046
     10 C         -28.7982    1.5774   24.8830 C.2     1  UNL1       -0.0258
     11 C         -28.0617    1.2060   23.7686 C.3     1  UNL1        0.0307
@<TRIPOS>BOND
     1     3     7    1
     2     7     8    2
     3     8     9    1
     4     9    10    2
     5    10    11    1
     6     1     2   ar
     7     2     5   ar
     8     5     6   ar
     9     6     4   ar
    10     4     3   ar
    11     3     1   ar
