@<TRIPOS>MOLECULE
No_3774-gen_results/8p0m/2024-11-26-14-13-15/
 12 12 0 0 0
SMALL
GASTEIGER

@<TRIPOS>ATOM
      1 C         -28.0162   -0.8135   28.8779 C.ar    1  UNL1       -0.0003
      2 C         -28.4690   -0.7850   29.8287 C.ar    1  UNL1       -0.0000
      3 C         -26.5455   -0.8762   28.8500 C.ar    1  UNL1       -0.0040
      4 C         -25.8041   -1.0324   30.0571 C.ar    1  UNL1       -0.0190
      5 C         -24.3697   -1.0998   30.0718 C.3     1  UNL1        0.0371
      6 C         -27.9902   -1.0051   31.2092 C.ar    1  UNL1       -0.0003
      7 C         -26.5616   -1.1368   31.2600 C.ar    1  UNL1       -0.0040
      8 C         -23.7274    0.1713   30.0259 C.2     1  UNL1       -0.0273
      9 C         -22.4546    0.3063   29.4122 C.2     1  UNL1       -0.0301
     10 C         -21.7830   -0.9262   29.0907 C.3     1  UNL1        0.0304
     11 C         -23.6449   -1.8939   31.0044 C.3     1  UNL1        0.0087
     12 C         -24.0178   -1.8964   28.6394 C.3     1  UNL1        0.0087
@<TRIPOS>BOND
     1     4     5    1
     2     5     8    1
     3     8     9    2
     4     9    10    1
     5     5    11    1
     6     5    12    1
     7     1     2   ar
     8     2     6   ar
     9     6     7   ar
    10     7     4   ar
    11     4     3   ar
    12     3     1   ar
