@<TRIPOS>MOLECULE
No_3775-gen_results/8p0m/2024-11-26-14-13-15/
 11 11 0 0 0
SMALL
GASTEIGER

@<TRIPOS>ATOM
      1 C         -28.0162   -0.8135   28.8779 C.ar    1  UNL1        0.0152
      2 C         -28.4690   -0.7850   29.8287 C.ar    1  UNL1        0.0576
      3 C         -27.0871    0.2903   28.6377 C.ar    1  UNL1        0.0723
      4 C         -26.8317    1.2487   29.5869 C.ar    1  UNL1        0.0039
      5 C         -28.3914    0.0801   31.0065 C.ar    1  UNL1        0.0114
      6 C         -27.4940    1.1521   30.7841 C.ar    1  UNL1        0.0008
      7 C         -26.3172    0.3994   27.3653 C.3     1  UNL1        0.4186
      8 F         -25.4556   -0.3605   27.3147 F       1  UNL1       -0.1659
      9 F         -25.7398    1.6637   27.2272 F       1  UNL1       -0.1659
     10 F         -27.1863    0.3132   26.2754 F       1  UNL1       -0.1659
     11 CL        -29.6309   -2.1439   30.3468 Cl      1  UNL1       -0.0823
@<TRIPOS>BOND
     1     3     7    1
     2     7     8    1
     3     7     9    1
     4     7    10    1
     5     2    11    1
     6     1     2   ar
     7     2     5   ar
     8     5     6   ar
     9     6     4   ar
    10     4     3   ar
    11     3     1   ar
