@<TRIPOS>MOLECULE
No_3777-gen_results/8p0m/2024-11-26-14-13-15/
 17 18 0 0 0
SMALL
GASTEIGER

@<TRIPOS>ATOM
      1 O         -28.1229   -1.3353   28.4874 O.2     1  UNL1       -0.2733
      2 C         -28.5208   -0.4363   29.0779 C.2     1  UNL1        0.2426
      3 C         -27.6655    0.1129   30.0346 C.3     1  UNL1        0.0870
      4 N         -29.8108   -0.1163   29.1503 N.am    1  UNL1       -0.1905
      5 C         -27.8986    0.9581   30.9114 C.3     1  UNL1        0.0128
      6 C         -30.1812    0.8068   29.8206 C.3     1  UNL1        0.1546
      7 C         -29.3852    1.4454   30.8467 C.3     1  UNL1        0.0390
      8 N         -31.5036    1.1835   29.8603 N.3     1  UNL1       -0.2563
      9 C         -32.3657    0.8935   29.0008 C.3     1  UNL1        0.0876
     10 C         -33.7201    1.3613   29.0396 C.3     1  UNL1        0.1517
     11 C         -32.0584    2.0152   30.9608 C.3     1  UNL1        0.0764
     12 C         -33.2784    2.4788   31.0528 C.3     1  UNL1        0.0532
     13 C         -34.1401    2.1181   30.0344 C.3     1  UNL1        0.1744
     14 F         -35.3924    2.5053   30.0124 F       1  UNL1       -0.2366
     15 C         -34.5032    0.8900   27.9240 C.2     1  UNL1        0.3684
     16 O         -34.2917    0.1315   27.0875 O.co2   1  UNL1       -0.2455
     17 O         -35.7334    1.3840   27.8817 O.co2   1  UNL1       -0.2455
@<TRIPOS>BOND
     1     1     2    2
     2     2     3    1
     3     2     4   am
     4     4     6    1
     5     5     7    1
     6     6     7    1
     7     6     8    1
     8     8     9    1
     9     8    11    1
    10    10    13    1
    11    12    13    1
    12    13    14    1
    13    10    15    1
    14    15    16   ar
    15    15    17   ar
    16     9    10    1
    17    12    11    1
    18     3     5    1
