@<TRIPOS>MOLECULE
No_3778-gen_results/8p0m/2024-11-26-14-13-15/
 10 11 0 0 0
SMALL
GASTEIGER

@<TRIPOS>ATOM
      1 C         -28.0162   -0.8135   28.8779 C.ar    1  UNL1        0.0015
      2 C         -27.0636   -0.1189   28.6079 C.ar    1  UNL1        0.0001
      3 C         -26.9716    0.7139   27.5060 C.ar    1  UNL1        0.0015
      4 C         -28.1053    0.7744   26.6421 C.ar    1  UNL1        0.0177
      5 C         -29.2008    0.1044   27.0527 C.ar    1  UNL1        0.0813
      6 C         -29.2096   -0.6029   28.1853 C.ar    1  UNL1        0.0191
      7 N         -30.2055    0.3215   26.0588 N.ar    1  UNL1       -0.2438
      8 C         -30.0515    0.6517   24.8862 C.ar    1  UNL1        0.0988
      9 C         -28.8853    1.4329   24.5274 C.ar    1  UNL1        0.0207
     10 C         -27.8608    1.4746   25.4255 C.ar    1  UNL1        0.0031
@<TRIPOS>BOND
     1     5     7   ar
     2     7     8   ar
     3     8     9   ar
     4     9    10   ar
     5    10     4   ar
     6     1     2   ar
     7     2     3   ar
     8     3     4   ar
     9     4     5   ar
    10     5     6   ar
    11     6     1   ar
