@<TRIPOS>MOLECULE
No_3779-gen_results/8p0m/2024-11-26-14-13-15/
 35 38 0 0 0
SMALL
GASTEIGER

@<TRIPOS>ATOM
      1 C         -28.0162   -0.8135   28.8779 C.2     1  UNL1        0.2745
      2 C         -27.0636   -0.1190   28.6079 C.ar    1  UNL1        0.0891
      3 C         -25.7923   -0.4302   29.0761 C.ar    1  UNL1        0.0048
      4 C         -24.5456    0.3494   28.8225 C.ar    1  UNL1        0.0016
      5 C         -24.6586    1.4196   27.8878 C.ar    1  UNL1        0.0558
      6 C         -25.9471    1.6811   27.3792 C.ar    1  UNL1        0.0414
      7 C         -27.0439    0.9739   27.6871 C.ar    1  UNL1        0.1435
      8 N         -27.9517   -1.7518   29.9375 N.am    1  UNL1       -0.1337
      9 O         -29.1108   -0.7488   28.3347 O.2     1  UNL1       -0.2678
     10 C         -29.0453   -2.6075   30.3999 C.2     1  UNL1        0.3435
     11 C         -23.4628    2.1700   27.6032 C.2     1  UNL1        0.2712
     12 N         -22.2718    1.7430   28.0543 N.am    1  UNL1       -0.1400
     13 O         -23.5755    3.2862   27.0337 O.2     1  UNL1       -0.2679
     14 C         -29.5076   -2.1436   31.6019 C.3     1  UNL1        0.4716
     15 F         -30.4531   -1.6246   31.4970 F       1  UNL1       -0.1620
     16 F         -28.5545   -1.4232   32.2276 F       1  UNL1       -0.1620
     17 F         -29.7024   -3.3071   32.4309 F       1  UNL1       -0.1620
     18 O         -29.0921   -3.6730   29.8450 O.2     1  UNL1       -0.2637
     19 C         -21.9445    0.6282   28.7132 C.2     1  UNL1        0.2626
     20 C         -23.1346   -0.1740   29.1194 C.3     1  UNL1        0.1575
     21 BR        -22.9408   -1.6962   30.0820 Br      1  UNL1       -0.0669
     22 O         -20.7794    0.2573   28.8586 O.2     1  UNL1       -0.2716
     23 O         -28.2255    1.3472   27.2202 O.3     1  UNL1       -0.4705
     24 C         -28.5589    2.6616   27.5018 C.3     1  UNL1        0.2320
     25 C         -29.7468    2.9039   27.1283 C.ar    1  UNL1        0.0212
     26 C         -30.2083    4.2982   27.3720 C.ar    1  UNL1        0.0002
     27 C         -31.5260    4.7692   27.0474 C.ar    1  UNL1        0.0112
     28 C         -32.4098    3.7497   26.5436 C.ar    1  UNL1        0.0576
     29 C         -32.0073    2.4872   26.3248 C.ar    1  UNL1        0.0104
     30 C         -30.7713    2.1397   26.6661 C.ar    1  UNL1        0.0003
     31 CL        -33.9957    4.2910   26.1033 Cl      1  UNL1       -0.0822
     32 C         -32.8466    1.4055   25.7806 C.ar    1  UNL1        0.0008
     33 C         -32.4405    0.2724   25.6512 C.ar    1  UNL1        0.0000
     34 C         -31.0191   -0.0874   26.0148 C.ar    1  UNL1       -0.0000
     35 C         -30.3031    0.7765   26.4891 C.ar    1  UNL1       -0.0002
@<TRIPOS>BOND
     1     1     2    1
     2     1     8   am
     3     1     9    2
     4     8    10   am
     5     5    11    1
     6    11    12   am
     7    11    13    2
     8    10    14    1
     9    14    15    1
    10    14    16    1
    11    14    17    1
    12    10    18    2
    13    12    19   am
    14     4    20    1
    15    19    20    1
    16    20    21    1
    17    19    22    2
    18     7    23    1
    19    23    24    1
    20    28    31    1
    21    24    25    1
    22    30    35   ar
    23    35    34   ar
    24    34    33   ar
    25    33    32   ar
    26    32    29   ar
    27     2     3   ar
    28     3     4   ar
    29     4     5   ar
    30     5     6   ar
    31     6     7   ar
    32     7     2   ar
    33    25    26   ar
    34    26    27   ar
    35    27    28   ar
    36    28    29   ar
    37    29    30   ar
    38    30    25   ar
