@<TRIPOS>MOLECULE
No_378-gen_results/8p0m/2024-11-26-14-13-15/
 22 24 0 0 0
SMALL
GASTEIGER

@<TRIPOS>ATOM
      1 C         -28.0162   -0.8135   28.8779 C.ar    1  UNL1        0.0483
      2 C         -27.0636   -0.1189   28.6079 C.ar    1  UNL1        0.1398
      3 C         -26.8756    1.1325   28.9134 C.ar    1  UNL1        0.0341
      4 C         -27.9014    1.8066   29.6436 C.ar    1  UNL1        0.0039
      5 C         -29.0458   -0.2316   29.7181 C.ar    1  UNL1        0.0607
      6 C         -28.9402    1.0517   30.0597 C.ar    1  UNL1        0.0116
      7 CL        -30.3294   -1.2509   30.1909 Cl      1  UNL1       -0.0821
      8 C         -25.6528    1.9343   28.4399 C.ar    1  UNL1        0.0051
      9 C         -24.9134    1.6968   27.6747 C.ar    1  UNL1        0.0297
     10 C         -23.6884    2.4502   27.3176 C.ar    1  UNL1        0.1401
     11 C         -25.4655    3.2516   29.1803 C.ar    1  UNL1        0.0002
     12 C         -24.5049    4.1789   28.6650 C.ar    1  UNL1        0.0023
     13 C         -23.5707    3.6987   27.7738 C.ar    1  UNL1        0.0296
     14 F         -22.8433    2.0701   26.3248 F       1  UNL1       -0.2042
     15 O         -26.0121   -0.6960   27.8183 O.3     1  UNL1       -0.4706
     16 C         -25.1381   -1.6098   28.4270 C.3     1  UNL1        0.2320
     17 C         -23.9486   -1.0941   29.0902 C.ar    1  UNL1        0.0212
     18 C         -23.9398   -0.8310   30.4759 C.ar    1  UNL1       -0.0007
     19 C         -23.1085    0.0765   31.0590 C.ar    1  UNL1       -0.0002
     20 C         -22.0453    0.5264   30.2438 C.ar    1  UNL1       -0.0000
     21 C         -22.0238    0.1059   28.8625 C.ar    1  UNL1       -0.0002
     22 C         -22.9777   -0.5579   28.3166 C.ar    1  UNL1       -0.0007
@<TRIPOS>BOND
     1     5     7    1
     2     3     8    1
     3    10    14    1
     4     2    15    1
     5    15    16    1
     6    16    17    1
     7    17    18   ar
     8    18    19   ar
     9    19    20   ar
    10    20    21   ar
    11    21    22   ar
    12    22    17   ar
    13     8     9   ar
    14     9    10   ar
    15    10    13   ar
    16    13    12   ar
    17    12    11   ar
    18    11     8   ar
    19     1     2   ar
    20     2     3   ar
    21     3     4   ar
    22     4     6   ar
    23     6     5   ar
    24     5     1   ar
