@<TRIPOS>MOLECULE
No_3780-gen_results/8p0m/2024-11-26-14-13-15/
 18 20 0 0 0
SMALL
GASTEIGER

@<TRIPOS>ATOM
      1 C         -28.0162   -0.8135   28.8779 C.ar    1  UNL1        0.0046
      2 C         -28.4690   -0.7850   29.8287 C.ar    1  UNL1        0.0550
      3 C         -27.1356    0.2359   28.5352 C.ar    1  UNL1        0.0001
      4 C         -26.8050    1.0509   29.2763 C.ar    1  UNL1        0.0001
      5 C         -29.4120   -1.8886   30.3141 C.2     1  UNL1        0.2648
      6 C         -27.3211    1.1276   30.6065 C.ar    1  UNL1        0.0001
      7 C         -28.1972    0.0819   30.9803 C.ar    1  UNL1        0.0046
      8 O         -29.7150   -2.8973   30.2068 O.2     1  UNL1       -0.2684
      9 C         -26.4724    0.2133   27.1152 C.ar    1  UNL1        0.0001
     10 C         -25.4688    1.1042   26.8538 C.ar    1  UNL1        0.0030
     11 C         -25.1528    2.1437   27.7913 C.ar    1  UNL1        0.0192
     12 C         -25.7677    2.1155   29.0417 C.ar    1  UNL1        0.0015
     13 N         -30.4413   -1.2399   31.3078 N.am    1  UNL1       -0.1998
     14 C         -31.4968   -1.6640   31.5423 C.3     1  UNL1        0.1388
     15 C         -24.1103    3.1080   27.3966 C.ar    1  UNL1        0.0988
     16 N         -23.4406    2.8523   26.2382 N.ar    1  UNL1       -0.2423
     17 C         -23.7407    1.8807   25.3544 C.ar    1  UNL1        0.0989
     18 C         -24.7252    0.9845   25.6410 C.ar    1  UNL1        0.0207
@<TRIPOS>BOND
     1     2     5    1
     2     5     8    2
     3     5    13   am
     4    13    14    1
     5    11    15   ar
     6    15    16   ar
     7    16    17   ar
     8    17    18   ar
     9    18    10   ar
    10     4    12   ar
    11    12    11   ar
    12    11    10   ar
    13    10     9   ar
    14     9     3   ar
    15     1     2   ar
    16     2     7   ar
    17     7     6   ar
    18     6     4   ar
    19     4     3   ar
    20     3     1   ar
