@<TRIPOS>MOLECULE
No_3781-gen_results/8p0m/2024-11-26-14-13-15/
 14 14 0 0 0
SMALL
GASTEIGER

@<TRIPOS>ATOM
      1 C         -28.0162   -0.8135   28.8779 C.3     1  UNL1        0.1403
      2 C         -27.0636   -0.1189   28.6079 C.ar    1  UNL1       -0.0112
      3 C         -25.7647   -0.3897   29.0360 C.ar    1  UNL1       -0.0075
      4 C         -24.5516    0.4058   28.7646 C.ar    1  UNL1       -0.0166
      5 C         -24.6957    1.4480   27.7988 C.ar    1  UNL1        0.0306
      6 C         -25.9755    1.7250   27.3077 C.ar    1  UNL1        0.0061
      7 C         -27.0718    1.0134   27.6535 C.ar    1  UNL1       -0.0032
      8 C         -28.6178   -0.4695   30.2207 C.2     1  UNL1        0.3692
      9 O         -29.6245   -1.2712   30.6820 O.co2   1  UNL1       -0.2453
     10 BR        -23.1551    2.4076   27.3750 Br      1  UNL1       -0.0493
     11 O         -28.2306    0.4027   30.9574 O.co2   1  UNL1       -0.2453
     12 C         -23.3757   -0.0095   29.4804 C.3     1  UNL1        0.0228
     13 C         -22.8000   -1.1542   29.4444 C.3     1  UNL1        0.0047
     14 C         -22.8042    1.0798   30.3144 C.3     1  UNL1        0.0047
@<TRIPOS>BOND
     1     1     8    1
     2     8     9   ar
     3     5    10    1
     4     8    11   ar
     5     4    12    1
     6    12    13    1
     7    12    14    1
     8     1     2    1
     9     2     3   ar
    10     3     4   ar
    11     4     5   ar
    12     5     6   ar
    13     6     7   ar
    14     7     2   ar
