@<TRIPOS>MOLECULE
No_3782-gen_results/8p0m/2024-11-26-14-13-15/
 14 15 0 0 0
SMALL
GASTEIGER

@<TRIPOS>ATOM
      1 C         -28.0162   -0.8135   28.8779 C.ar    1  UNL1       -0.0000
      2 C         -28.4690   -0.7850   29.8287 C.ar    1  UNL1       -0.0000
      3 C         -27.1356    0.2359   28.5352 C.ar    1  UNL1       -0.0003
      4 C         -26.3351    0.2900   27.2835 C.ar    1  UNL1       -0.0000
      5 C         -28.3692    0.1957   30.9236 C.ar    1  UNL1       -0.0000
      6 C         -27.5158    1.2655   30.6540 C.ar    1  UNL1       -0.0003
      7 C         -26.8411    1.2942   29.4761 C.ar    1  UNL1       -0.0023
      8 C         -25.6774    1.5198   26.9774 C.ar    1  UNL1       -0.0003
      9 C         -25.4319    2.5017   27.9539 C.ar    1  UNL1       -0.0026
     10 C         -26.0988    2.4610   29.1572 C.ar    1  UNL1       -0.0006
     11 C         -25.8760    3.5967   30.0907 C.3     1  UNL1        0.1386
     12 N         -26.1237    4.8607   29.6593 N.pl3   1  UNL1       -0.2315
     13 C         -26.0007    5.8923   30.4490 C.2     1  UNL1        0.0805
     14 C         -25.9796    7.2149   29.8931 C.2     1  UNL1        0.0188
@<TRIPOS>BOND
     1    10    11    1
     2    11    12    1
     3    12    13    1
     4    13    14    2
     5     1     2   ar
     6     2     5   ar
     7     5     6   ar
     8     6     7   ar
     9     3     1   ar
    10     3     4   ar
    11     4     8   ar
    12     8     9   ar
    13     9    10   ar
    14    10     7   ar
    15     7     3   ar
