@<TRIPOS>MOLECULE
No_3783-gen_results/8p0m/2024-11-26-14-13-15/
 27 30 0 0 0
SMALL
GASTEIGER

@<TRIPOS>ATOM
      1 C         -28.0162   -0.8135   28.8779 C.ar    1  UNL1        0.0046
      2 C         -27.0636   -0.1189   28.6079 C.ar    1  UNL1        0.0001
      3 C         -25.7647   -0.3897   29.0360 C.ar    1  UNL1        0.0000
      4 C         -24.5516    0.4058   28.7646 C.ar    1  UNL1        0.0000
      5 C         -23.2300    0.1178   29.2575 C.ar    1  UNL1        0.0000
      6 C         -22.1393    0.9427   28.9224 C.ar    1  UNL1        0.0000
      7 C         -27.8294   -1.9287   29.8545 C.ar    1  UNL1        0.0551
      8 C         -26.5882   -2.3272   30.2682 C.ar    1  UNL1        0.0046
      9 C         -25.4565   -1.5432   29.9146 C.ar    1  UNL1        0.0001
     10 C         -22.2302    1.9089   27.8723 C.ar    1  UNL1        0.0000
     11 C         -24.5538    1.4700   27.7617 C.ar    1  UNL1        0.0000
     12 C         -23.4471    2.1666   27.3764 C.ar    1  UNL1        0.0000
     13 C         -28.9783   -2.7708   30.2578 C.2     1  UNL1        0.2651
     14 O         -28.9057   -3.9951   30.3320 O.2     1  UNL1       -0.2684
     15 N         -30.1178   -2.1689   30.6277 N.am    1  UNL1       -0.1968
     16 C         -31.2828   -2.9459   31.0606 C.3     1  UNL1        0.1415
     17 C         -32.2391   -2.1888   31.4694 C.ar    1  UNL1       -0.0043
     18 C         -33.2042   -2.4102   32.0048 C.ar    1  UNL1       -0.0029
     19 C         -31.9056   -0.6639   31.5179 C.ar    1  UNL1       -0.0183
     20 C         -32.8990    0.3033   31.9252 C.ar    1  UNL1        0.0509
     21 C         -34.3160   -1.5128   32.4649 C.ar    1  UNL1       -0.0001
     22 C         -34.0404   -0.1754   32.4532 C.ar    1  UNL1        0.0042
     23 C         -32.5222    1.7264   31.8658 C.2     1  UNL1        0.2645
     24 O         -33.1262    2.5704   32.3261 O.2     1  UNL1       -0.2684
     25 N         -31.1659    1.9513   31.5083 N.am    1  UNL1       -0.2013
     26 C         -30.2833    1.0103   30.9748 C.3     1  UNL1        0.1201
     27 C         -30.6345   -0.2151   31.0467 C.3     1  UNL1        0.0497
@<TRIPOS>BOND
     1     3     4    1
     2     7    13    1
     3    13    14    2
     4    13    15   am
     5    15    16    1
     6    16    17    1
     7    20    23    1
     8    23    24    2
     9    23    25   am
    10    19    27    1
    11    26    27    1
    12    26    25    1
    13    17    18   ar
    14    18    21   ar
    15    21    22   ar
    16    22    20   ar
    17    20    19   ar
    18    19    17   ar
    19     1     2   ar
    20     2     3   ar
    21     3     9   ar
    22     9     8   ar
    23     8     7   ar
    24     7     1   ar
    25     4     5   ar
    26     5     6   ar
    27     6    10   ar
    28    10    12   ar
    29    12    11   ar
    30    11     4   ar
