@<TRIPOS>MOLECULE
No_3784-gen_results/8p0m/2024-11-26-14-13-15/
 15 16 0 0 0
SMALL
GASTEIGER

@<TRIPOS>ATOM
      1 C         -28.0162   -0.8135   28.8779 C.ar    1  UNL1        0.0066
      2 C         -27.0636   -0.1189   28.6079 C.ar    1  UNL1        0.0002
      3 C         -25.7647   -0.3897   29.0360 C.ar    1  UNL1        0.0000
      4 C         -24.5516    0.4058   28.7646 C.ar    1  UNL1        0.0000
      5 C         -23.2300    0.1178   29.2575 C.ar    1  UNL1        0.0000
      6 C         -27.8275   -1.9081   29.8661 C.ar    1  UNL1        0.0798
      7 C         -26.5727   -2.3160   30.2643 C.ar    1  UNL1        0.0066
      8 C         -25.4305   -1.5200   29.9226 C.ar    1  UNL1        0.0002
      9 C         -22.1663    0.9203   28.8711 C.ar    1  UNL1        0.0000
     10 C         -22.3084    1.9228   27.8218 C.ar    1  UNL1        0.0000
     11 C         -24.5419    1.4507   27.7567 C.ar    1  UNL1        0.0000
     12 C         -23.4992    2.1324   27.3338 C.ar    1  UNL1        0.0000
     13 C         -28.9708   -2.7660   30.2759 C.2     1  UNL1        0.3878
     14 O         -30.0641   -2.3317   30.2608 O.co2   1  UNL1       -0.2406
     15 O         -28.7189   -3.9534   30.7503 O.co2   1  UNL1       -0.2406
@<TRIPOS>BOND
     1     3     4    1
     2     6    13    1
     3    13    14   ar
     4    13    15   ar
     5     1     2   ar
     6     2     3   ar
     7     3     8   ar
     8     8     7   ar
     9     7     6   ar
    10     6     1   ar
    11     4     5   ar
    12     5     9   ar
    13     9    10   ar
    14    10    12   ar
    15    12    11   ar
    16    11     4   ar
