@<TRIPOS>MOLECULE
No_3786-gen_results/8p0m/2024-11-26-14-13-15/
 10 11 0 0 0
SMALL
GASTEIGER

@<TRIPOS>ATOM
      1 C         -28.0162   -0.8135   28.8779 C.ar    1  UNL1        0.0000
      2 C         -27.0636   -0.1189   28.6079 C.ar    1  UNL1        0.0000
      3 C         -25.7923   -0.4302   29.0761 C.ar    1  UNL1        0.0000
      4 C         -25.5756   -1.5654   29.9363 C.ar    1  UNL1        0.0000
      5 C         -26.7354   -2.3004   30.2173 C.ar    1  UNL1        0.0000
      6 C         -27.9184   -1.9537   29.7629 C.ar    1  UNL1        0.0000
      7 C         -26.8968    1.1016   27.7052 C.ar    1  UNL1        0.0000
      8 C         -25.8554    1.5416   27.2307 C.ar    1  UNL1        0.0000
      9 C         -24.5492    1.1632   27.8487 C.ar    1  UNL1        0.0000
     10 C         -24.4994    0.1126   28.6990 C.ar    1  UNL1        0.0000
@<TRIPOS>BOND
     1     1     2   ar
     2     3     4   ar
     3     4     5   ar
     4     5     6   ar
     5     6     1   ar
     6     2     3   ar
     7     3    10   ar
     8    10     9   ar
     9     9     8   ar
    10     8     7   ar
    11     7     2   ar
