@<TRIPOS>MOLECULE
No_3787-gen_results/8p0m/2024-11-26-14-13-15/
 23 26 0 0 0
SMALL
GASTEIGER

@<TRIPOS>ATOM
      1 N         -28.0544   -1.0498   28.7246 N.pl3   1  UNL1       -0.1281
      2 C         -27.7460   -0.0733   29.0098 C.ar    1  UNL1        0.0891
      3 C         -27.1741    0.7325   28.8254 C.ar    1  UNL1        0.0168
      4 C         -26.9592    2.0624   29.5303 C.ar    1  UNL1        0.0013
      5 C         -27.5475    2.0936   30.7631 C.ar    1  UNL1        0.0001
      6 C         -27.4429    3.2249   31.6156 C.ar    1  UNL1        0.0000
      7 C         -28.4171    0.0389   30.5235 C.ar    1  UNL1        0.0181
      8 C         -28.2335    1.1719   31.2251 C.ar    1  UNL1        0.0014
      9 C         -26.5054    4.1765   31.1617 C.ar    1  UNL1        0.0000
     10 C         -25.9316    4.0881   29.8497 C.ar    1  UNL1        0.0000
     11 C         -26.0544    3.0292   29.1297 C.ar    1  UNL1        0.0000
     12 C         -26.3927    0.7794   27.4495 C.ar    1  UNL1        0.0013
     13 C         -25.1001    0.2505   27.4435 C.ar    1  UNL1        0.0000
     14 C         -27.0231    1.1907   26.3336 C.ar    1  UNL1        0.0000
     15 C         -26.5089    0.9621   25.1243 C.ar    1  UNL1        0.0000
     16 C         -24.4285    0.2094   26.2365 C.ar    1  UNL1        0.0000
     17 C         -25.1419    0.5112   25.0362 C.ar    1  UNL1        0.0000
     18 C         -24.3112   -0.1330   28.6032 C.ar    1  UNL1        0.0000
     19 C         -24.4549   -1.3853   29.2307 C.ar    1  UNL1        0.0000
     20 C         -23.7189   -1.7134   30.3058 C.ar    1  UNL1        0.0000
     21 C         -22.9001   -0.8074   30.9810 C.ar    1  UNL1        0.0000
     22 C         -23.4229    0.8462   29.1322 C.ar    1  UNL1        0.0000
     23 C         -22.7324    0.4882   30.3523 C.ar    1  UNL1        0.0000
@<TRIPOS>BOND
     1     1     2    1
     2     3    12    1
     3    13    18    1
     4     2     3   ar
     5     3     4   ar
     6     5     8   ar
     7     8     7   ar
     8     7     2   ar
     9    18    19   ar
    10    19    20   ar
    11    20    21   ar
    12    21    23   ar
    13    23    22   ar
    14    22    18   ar
    15     4     5   ar
    16     5     6   ar
    17     6     9   ar
    18     9    10   ar
    19    10    11   ar
    20    11     4   ar
    21    12    13   ar
    22    13    16   ar
    23    16    17   ar
    24    17    15   ar
    25    15    14   ar
    26    14    12   ar
