@<TRIPOS>MOLECULE
No_3789-gen_results/8p0m/2024-11-26-14-13-15/
 12 13 0 0 0
SMALL
GASTEIGER

@<TRIPOS>ATOM
      1 C         -28.0162   -0.8135   28.8779 C.ar    1  UNL1        0.0000
      2 C         -28.4690   -0.7850   29.8287 C.ar    1  UNL1        0.0000
      3 C         -26.5455   -0.8762   28.8500 C.ar    1  UNL1        0.0000
      4 C         -25.6825   -0.7773   27.6829 C.ar    1  UNL1        0.0000
      5 C         -29.9909   -0.7300   29.9814 C.ar    1  UNL1        0.0000
      6 C         -24.2640   -0.7731   27.9513 C.ar    1  UNL1        0.0000
      7 C         -23.7548   -0.9500   29.2468 C.ar    1  UNL1        0.0000
      8 C         -25.6279   -1.0194   30.0116 C.ar    1  UNL1        0.0000
      9 C         -24.4691   -1.0218   30.2986 C.ar    1  UNL1        0.0000
     10 C         -30.6078   -0.5169   28.7714 C.ar    1  UNL1        0.0000
     11 C         -29.8996   -0.3236   27.6517 C.ar    1  UNL1        0.0000
     12 C         -28.5640   -0.3434   27.6651 C.ar    1  UNL1        0.0000
@<TRIPOS>BOND
     1     1     3    1
     2     3     4   ar
     3     4     6   ar
     4     6     7   ar
     5     7     9   ar
     6     9     8   ar
     7     8     3   ar
     8     1     2   ar
     9     2     5   ar
    10     5    10   ar
    11    10    11   ar
    12    11    12   ar
    13    12     1   ar
