@<TRIPOS>MOLECULE
No_379-gen_results/8p0m/2024-11-26-14-13-15/
 20 22 0 0 0
SMALL
GASTEIGER

@<TRIPOS>ATOM
      1 C         -28.0162   -0.8135   28.8779 C.ar    1  UNL1        0.0148
      2 C         -27.0636   -0.1190   28.6079 C.ar    1  UNL1        0.0518
      3 C         -26.9287    1.1713   29.0083 C.ar    1  UNL1        0.0148
      4 C         -27.9560    1.7411   29.7840 C.ar    1  UNL1        0.0013
      5 C         -29.0569   -0.3271   29.7466 C.ar    1  UNL1        0.0013
      6 C         -28.9828    0.9722   30.1516 C.ar    1  UNL1        0.0001
      7 N         -25.9739   -0.5937   27.8380 N.pl3   1  UNL1       -0.2825
      8 C         -24.8464   -0.9779   28.5448 C.ar    1  UNL1        0.0518
      9 C         -24.5997   -2.1622   28.9427 C.ar    1  UNL1        0.0148
     10 C         -23.4091   -2.5120   29.5812 C.ar    1  UNL1        0.0013
     11 C         -23.8963   -0.0269   28.7309 C.ar    1  UNL1        0.0148
     12 C         -22.6412   -0.3048   29.3516 C.ar    1  UNL1        0.0013
     13 C         -22.4211   -1.5703   29.7263 C.ar    1  UNL1        0.0001
     14 C         -25.9815   -0.4074   26.4532 C.3     1  UNL1        0.1221
     15 C         -26.9124    0.4778   25.8807 C.ar    1  UNL1       -0.0021
     16 C         -28.1767    0.3979   25.9087 C.ar    1  UNL1       -0.0026
     17 C         -29.0453    1.2122   25.2090 C.ar    1  UNL1       -0.0003
     18 C         -28.4377    2.2567   24.4820 C.ar    1  UNL1       -0.0000
     19 C         -26.4499    1.7635   25.1440 C.ar    1  UNL1       -0.0026
     20 C         -27.1557    2.5199   24.4909 C.ar    1  UNL1       -0.0003
@<TRIPOS>BOND
     1     2     7    1
     2     7     8    1
     3     7    14    1
     4    14    15    1
     5    15    16   ar
     6    16    17   ar
     7    17    18   ar
     8    18    20   ar
     9    20    19   ar
    10    19    15   ar
    11     8     9   ar
    12     9    10   ar
    13    10    13   ar
    14    13    12   ar
    15    12    11   ar
    16    11     8   ar
    17     1     2   ar
    18     2     3   ar
    19     3     4   ar
    20     4     6   ar
    21     6     5   ar
    22     5     1   ar
