@<TRIPOS>MOLECULE
No_3791-gen_results/8p0m/2024-11-26-14-13-15/
 17 18 0 0 0
SMALL
GASTEIGER

@<TRIPOS>ATOM
      1 C         -28.0162   -0.8135   28.8779 C.2     1  UNL1        0.2690
      2 C         -27.0636   -0.1189   28.6079 C.ar    1  UNL1        0.0554
      3 C         -26.9287    1.1713   29.0083 C.ar    1  UNL1        0.0053
      4 C         -25.7702    2.0341   28.6884 C.ar    1  UNL1        0.0104
      5 C         -24.7141    1.4431   27.9188 C.ar    1  UNL1        0.0685
      6 C         -24.8590    0.0783   27.5836 C.ar    1  UNL1        0.0104
      7 C         -25.9647   -0.6606   27.9164 C.ar    1  UNL1        0.0053
      8 N         -29.1701   -0.2984   28.9471 N.am    1  UNL1       -0.1754
      9 C         -29.7216    0.3727   28.0429 C.ar    1  UNL1        0.0737
     10 C         -29.5072    0.7748   27.1519 C.ar    1  UNL1        0.0166
     11 C         -30.2809    1.4989   26.1225 C.ar    1  UNL1        0.0013
     12 C         -31.2160    0.2413   28.2787 C.ar    1  UNL1        0.0166
     13 C         -32.0934    0.9039   27.4145 C.ar    1  UNL1        0.0013
     14 C         -31.5874    1.5319   26.3431 C.ar    1  UNL1        0.0001
     15 C         -23.4786    2.1098   27.6295 C.1     1  UNL1        0.1004
     16 N         -23.0672    2.7036   26.8686 N.1     1  UNL1       -0.1908
     17 O         -27.9160   -2.0029   29.3404 O.2     1  UNL1       -0.2680
@<TRIPOS>BOND
     1     1     2    1
     2     1     8   am
     3     8     9    1
     4     5    15    1
     5    15    16    3
     6     1    17    2
     7     2     3   ar
     8     3     4   ar
     9     4     5   ar
    10     5     6   ar
    11     6     7   ar
    12     7     2   ar
    13     9    10   ar
    14    10    11   ar
    15    11    14   ar
    16    14    13   ar
    17    13    12   ar
    18    12     9   ar
