@<TRIPOS>MOLECULE
No_3793-gen_results/8p0m/2024-11-26-14-13-15/
 11 11 0 0 0
SMALL
GASTEIGER

@<TRIPOS>ATOM
      1 C         -28.0162   -0.8135   28.8779 C.ar    1  UNL1        0.0369
      2 C         -28.4690   -0.7850   29.8287 C.ar    1  UNL1        0.0032
      3 C         -28.1960    0.3478   28.0550 C.ar    1  UNL1        0.1388
      4 C         -29.0191    1.3501   28.3782 C.ar    1  UNL1        0.0384
      5 C         -29.6249    1.2683   29.6012 C.ar    1  UNL1        0.0217
      6 C         -29.3821    0.1816   30.4004 C.ar    1  UNL1        0.0017
      7 O         -27.5064    0.3551   26.8163 O.3     1  UNL1       -0.4714
      8 C         -27.5355    1.0036   25.9118 C.3     1  UNL1        0.2525
      9 C         -30.5329    2.3228   30.0483 C.2     1  UNL1        0.0933
     10 N         -31.2826    2.8385   29.5250 N.2     1  UNL1       -0.2668
     11 C         -32.0926    3.8797   30.0135 C.3     1  UNL1        0.1517
@<TRIPOS>BOND
     1     3     7    1
     2     7     8    1
     3     5     9    1
     4     9    10    2
     5    10    11    1
     6     1     2   ar
     7     2     6   ar
     8     6     5   ar
     9     5     4   ar
    10     4     3   ar
    11     3     1   ar
