@<TRIPOS>MOLECULE
No_3796-gen_results/8p0m/2024-11-26-14-13-15/
 12 13 0 0 0
SMALL
GASTEIGER

@<TRIPOS>ATOM
      1 C         -28.0162   -0.8135   28.8779 C.ar    1  UNL1        0.0000
      2 C         -27.0636   -0.1189   28.6079 C.ar    1  UNL1        0.0000
      3 C         -27.0010    0.6913   27.4910 C.ar    1  UNL1        0.0000
      4 C         -28.1373    0.7363   26.6350 C.ar    1  UNL1        0.0000
      5 C         -28.1438    1.4323   25.4881 C.ar    1  UNL1        0.0000
      6 C         -27.9643   -1.5920   30.1433 C.ar    1  UNL1        0.0000
      7 C         -26.7541   -1.7211   30.8035 C.ar    1  UNL1        0.0000
      8 C         -25.6278   -1.0733   30.4055 C.ar    1  UNL1        0.0000
      9 C         -25.7245   -0.2495   29.3126 C.ar    1  UNL1        0.0000
     10 C         -26.9843    2.0884   25.0239 C.ar    1  UNL1        0.0000
     11 C         -25.8258    2.0276   25.7649 C.ar    1  UNL1        0.0000
     12 C         -25.8055    1.3197   26.9469 C.ar    1  UNL1        0.0000
@<TRIPOS>BOND
     1     2     3    1
     2     3     4   ar
     3     4     5   ar
     4     5    10   ar
     5    10    11   ar
     6    11    12   ar
     7    12     3   ar
     8     1     2   ar
     9     2     9   ar
    10     9     8   ar
    11     8     7   ar
    12     7     6   ar
    13     6     1   ar
