@<TRIPOS>MOLECULE
No_3797-gen_results/8p0m/2024-11-26-14-13-15/
 16 16 0 0 0
SMALL
GASTEIGER

@<TRIPOS>ATOM
      1 C         -28.0162   -0.8135   28.8779 C.ar    1  UNL1        0.0167
      2 C         -27.0636   -0.1190   28.6079 C.ar    1  UNL1        0.0705
      3 C         -26.9716    0.7139   27.5060 C.ar    1  UNL1        0.0167
      4 C         -28.1053    0.7744   26.6421 C.ar    1  UNL1        0.0060
      5 C         -29.2008    0.1044   27.0527 C.ar    1  UNL1        0.0567
      6 C         -29.2096   -0.6029   28.1853 C.ar    1  UNL1        0.0060
      7 C         -30.3702    0.2264   26.1604 C.2     1  UNL1        0.2842
      8 N         -30.2991    0.2342   24.9383 N.am    1  UNL1       -0.0837
      9 O         -31.4463   -0.2775   26.6942 O.2     1  UNL1       -0.2667
     10 N         -25.7874   -0.2077   29.3814 N.pl3   1  UNL1       -0.2112
     11 C         -24.6132   -0.3740   28.8733 C.2     1  UNL1        0.0856
     12 C         -23.8048    0.2416   28.4056 C.2     1  UNL1        0.0178
     13 C         -23.7979    1.6634   28.0588 C.2     1  UNL1        0.0014
     14 C         -22.6759    2.2979   27.4638 C.2     1  UNL1        0.0000
     15 C         -21.4342    1.6225   27.5831 C.2     1  UNL1        0.0000
     16 C         -21.2553    0.4091   28.1738 C.2     1  UNL1        0.0000
@<TRIPOS>BOND
     1     5     7    1
     2     7     8   am
     3     7     9    2
     4     2    10    1
     5    10    11    1
     6    11    12    2
     7    12    13    1
     8    13    14    2
     9    14    15    1
    10    15    16    2
    11     1     2   ar
    12     2     3   ar
    13     3     4   ar
    14     4     5   ar
    15     5     6   ar
    16     6     1   ar
