@<TRIPOS>MOLECULE
No_3798-gen_results/8p0m/2024-11-26-14-13-15/
 32 34 0 0 0
SMALL
GASTEIGER

@<TRIPOS>ATOM
      1 C         -28.0162   -0.8135   28.8779 C.3     1  UNL1        0.0238
      2 C         -28.4690   -0.7850   29.8287 C.3     1  UNL1        0.1040
      3 C         -27.0871    0.2903   28.6377 C.3     1  UNL1        0.1362
      4 C         -26.2516    0.4114   27.4223 C.3     1  UNL1        0.3151
      5 C         -28.3913    0.1041   30.9805 C.3     1  UNL1        0.0173
      6 C         -27.5332    1.1666   30.7866 C.3     1  UNL1        0.0653
      7 C         -26.8281    1.2557   29.6454 C.3     1  UNL1        0.2345
      8 F         -26.1100    1.6187   27.1366 F       1  UNL1       -0.1920
      9 BR        -24.5992   -0.4829   27.5689 Br      1  UNL1       -0.0099
     10 F         -26.9143   -0.1162   26.3135 F       1  UNL1       -0.1920
     11 C         -29.4665   -2.0239   30.2150 C.2     1  UNL1        0.3643
     12 O         -29.9140   -2.0424   31.4149 O.co2   1  UNL1       -0.2457
     13 O         -29.9264   -2.6776   29.3377 O.co2   1  UNL1       -0.2457
     14 C         -27.3103    2.1812   31.8409 C.3     1  UNL1        0.0147
     15 C         -26.5546    3.0919   31.6768 C.3     1  UNL1        0.0717
     16 C         -26.1381    4.0590   32.0872 C.2     1  UNL1       -0.0221
     17 C         -25.0420    5.0212   31.7253 C.2     1  UNL1       -0.0038
     18 C         -24.7555    4.8534   30.3991 C.2     1  UNL1        0.0105
     19 C         -25.2353    3.8091   29.6508 C.2     1  UNL1        0.0793
     20 C         -26.0642    2.9717   30.2071 C.3     1  UNL1        0.2309
     21 CL        -26.2771    3.7033   29.2619 Cl      1  UNL1       -0.0748
     22 O         -25.3270    1.3912   29.4939 O.3     1  UNL1       -0.4583
     23 C         -24.6928    0.9592   30.6803 C.ar    1  UNL1        0.1410
     24 CL        -23.8838    3.4210   28.5856 Cl      1  UNL1       -0.0830
     25 C         -23.2649    0.9078   30.5029 C.ar    1  UNL1        0.0370
     26 C         -25.1159    0.1478   31.7141 C.ar    1  UNL1        0.0370
     27 C         -24.2566   -0.6168   32.4930 C.ar    1  UNL1        0.0031
     28 C         -22.4083   -0.0152   31.1629 C.ar    1  UNL1        0.0031
     29 C         -22.9747   -0.7368   32.1858 C.ar    1  UNL1        0.0002
     30 F         -25.9670    2.6963   31.1757 F       1  UNL1       -0.2176
     31 O         -27.7357    2.2327   28.9673 O.3     1  UNL1       -0.3220
     32 C         -28.4535    2.7090   28.4128 C.3     1  UNL1        0.1778
@<TRIPOS>BOND
     1     1     2    1
     2     3     4    1
     3     5     6    1
     4     3     7    1
     5     6     7    1
     6     4     8    1
     7     4     9    1
     8     4    10    1
     9     2    11    1
    10    11    12   ar
    11    11    13   ar
    12     6    14    1
    13    15    16    1
    14    16    17    2
    15    17    18    1
    16    18    19    2
    17    15    20    1
    18    19    20    1
    19    20    21    1
    20     7    22    1
    21    22    23    1
    22    19    24    1
    23    20    30    1
    24     7    31    1
    25    31    32    1
    26    14    15    1
    27     3     1    1
    28     2     5    1
    29    23    25   ar
    30    25    28   ar
    31    28    29   ar
    32    29    27   ar
    33    27    26   ar
    34    26    23   ar
