@<TRIPOS>MOLECULE
No_3799-gen_results/8p0m/2024-11-26-14-13-15/
 29 31 0 0 0
SMALL
GASTEIGER

@<TRIPOS>ATOM
      1 C         -28.0162   -0.8135   28.8779 C.ar    1  UNL1        0.0030
      2 C         -27.0636   -0.1190   28.6079 C.ar    1  UNL1        0.0003
      3 C         -26.8756    1.1325   28.9134 C.ar    1  UNL1        0.0066
      4 C         -25.6883    1.9515   28.5672 C.ar    1  UNL1        0.0811
      5 C         -24.6394    1.2834   27.8753 C.ar    1  UNL1        0.0251
      6 C         -24.8068   -0.0513   27.6040 C.ar    1  UNL1        0.0015
      7 C         -25.9019   -0.7670   27.9511 C.ar    1  UNL1        0.0000
      8 C         -29.2125   -0.1153   29.1222 C.ar    1  UNL1        0.0371
      9 C         -30.3508   -0.8179   29.5782 C.ar    1  UNL1        0.1443
     10 C         -23.3380    1.7591   27.6165 C.2     1  UNL1        0.1244
     11 N         -22.9571    2.6025   26.8770 N.2     1  UNL1       -0.1299
     12 C         -22.2046    1.2804   28.5098 C.3     1  UNL1        0.2581
     13 C         -30.1893   -2.1134   30.0460 C.ar    1  UNL1        0.0371
     14 C         -28.9616   -2.7463   30.1309 C.ar    1  UNL1        0.0031
     15 C         -27.8638   -2.0962   29.6228 C.ar    1  UNL1        0.0002
     16 N         -20.9803    1.6552   28.0066 N.2     1  UNL1       -0.1313
     17 N         -22.3343    0.4202   29.4554 N.3     1  UNL1       -0.0973
     18 N         -21.5421    2.4133   26.8095 N.2     1  UNL1       -0.0454
     19 O         -31.5656   -0.2929   29.5883 O.3     1  UNL1       -0.4243
     20 C         -32.2341   -0.1269   28.5673 C.3     1  UNL1        0.4999
     21 C         -25.5310    3.3315   28.9202 C.2     1  UNL1        0.3878
     22 O         -25.8971    4.2001   28.1287 O.co2   1  UNL1       -0.2406
     23 O         -25.0894    3.6022   30.1548 O.co2   1  UNL1       -0.2406
     24 C         -31.8396    0.7009   27.6064 C.3     1  UNL1        0.4968
     25 F         -31.9309    1.8893   27.9639 F       1  UNL1       -0.1619
     26 F         -30.5469    0.4701   27.3189 F       1  UNL1       -0.1619
     27 F         -32.6512    0.6395   26.4898 F       1  UNL1       -0.1619
     28 F         -33.4901    0.2786   29.0290 F       1  UNL1       -0.1557
     29 F         -32.4358   -1.3921   28.0472 F       1  UNL1       -0.1557
@<TRIPOS>BOND
     1     5    10    1
     2    10    11    2
     3    10    12    1
     4    12    16    1
     5    12    17    1
     6    11    18    1
     7    16    18    2
     8     9    19    1
     9    19    20    1
    10     4    21    1
    11    21    22   ar
    12    21    23   ar
    13    20    24    1
    14    24    25    1
    15    24    26    1
    16    24    27    1
    17    20    28    1
    18    20    29    1
    19     1     2    1
    20     1     8   ar
    21     8     9   ar
    22     9    13   ar
    23    13    14   ar
    24    14    15   ar
    25    15     1   ar
    26     2     3   ar
    27     3     4   ar
    28     4     5   ar
    29     5     6   ar
    30     6     7   ar
    31     7     2   ar
