@<TRIPOS>MOLECULE
No_38-gen_results/8p0m/2024-11-26-14-13-15/
 12 13 0 0 0
SMALL
GASTEIGER

@<TRIPOS>ATOM
      1 C         -28.0162   -0.8135   28.8779 C.ar    1  UNL1        0.0000
      2 C         -27.0636   -0.1189   28.6079 C.ar    1  UNL1        0.0000
      3 C         -26.8756    1.1325   28.9134 C.ar    1  UNL1        0.0000
      4 C         -25.6883    1.9515   28.5672 C.ar    1  UNL1        0.0000
      5 C         -24.6394    1.2834   27.8753 C.ar    1  UNL1        0.0000
      6 C         -23.4556    1.9996   27.5653 C.ar    1  UNL1        0.0000
      7 C         -29.0919   -0.2290   29.6907 C.ar    1  UNL1        0.0000
      8 C         -29.0369    1.0636   30.0407 C.ar    1  UNL1        0.0000
      9 C         -27.9034    1.8034   29.6856 C.ar    1  UNL1        0.0000
     10 C         -25.5124    3.3175   28.8196 C.ar    1  UNL1        0.0000
     11 C         -24.4096    4.0724   28.3119 C.ar    1  UNL1        0.0000
     12 C         -23.3629    3.3495   27.7120 C.ar    1  UNL1        0.0000
@<TRIPOS>BOND
     1     3     4    1
     2     4     5   ar
     3     5     6   ar
     4     6    12   ar
     5    12    11   ar
     6    11    10   ar
     7    10     4   ar
     8     1     2   ar
     9     2     3   ar
    10     3     9   ar
    11     9     8   ar
    12     8     7   ar
    13     7     1   ar
