@<TRIPOS>MOLECULE
No_380-gen_results/8p0m/2024-11-26-14-13-15/
 27 28 0 0 0
SMALL
GASTEIGER

@<TRIPOS>ATOM
      1 C         -28.0162   -0.8135   28.8779 C.2     1  UNL1        0.2717
      2 C         -27.0636   -0.1189   28.6079 C.ar    1  UNL1        0.0555
      3 C         -25.7923   -0.4302   29.0761 C.ar    1  UNL1        0.0045
      4 C         -24.5456    0.3494   28.8225 C.ar    1  UNL1        0.0040
      5 C         -24.6586    1.4196   27.8878 C.ar    1  UNL1        0.0714
      6 C         -25.9471    1.6811   27.3792 C.ar    1  UNL1        0.0040
      7 C         -27.0439    0.9739   27.6871 C.ar    1  UNL1        0.0045
      8 N         -27.9517   -1.7518   29.9375 N.am    1  UNL1       -0.1312
      9 O         -29.1108   -0.7488   28.3347 O.2     1  UNL1       -0.2679
     10 C         -29.0453   -2.6075   30.3999 C.2     1  UNL1        0.3503
     11 C         -23.4628    2.1700   27.6032 C.3     1  UNL1        0.4186
     12 F         -23.6359    3.3151   27.2131 F       1  UNL1       -0.1659
     13 F         -22.6557    1.5343   26.6317 F       1  UNL1       -0.1659
     14 F         -22.6390    2.2963   28.6912 F       1  UNL1       -0.1659
     15 C         -29.5102   -2.1459   31.5912 C.2     1  UNL1        0.3928
     16 O         -28.9697   -1.4745   32.2592 O.2     1  UNL1       -0.2364
     17 N         -30.6062   -2.8959   32.0498 N.am    1  UNL1       -0.1251
     18 C         -31.2740   -2.5179   33.3656 C.2     1  UNL1        0.3828
     19 C         -31.3231   -3.9107   31.3254 C.3     1  UNL1        0.2618
     20 O         -29.2276   -3.5591   29.6821 O.2     1  UNL1       -0.2603
     21 C         -31.9681   -1.8514   33.7829 C.ar    1  UNL1        0.0873
     22 C         -32.6878   -0.8747   32.8951 C.ar    1  UNL1        0.0075
     23 C         -33.5351    0.0460   33.4231 C.ar    1  UNL1        0.0002
     24 C         -33.7735   -0.0044   34.8091 C.ar    1  UNL1        0.0000
     25 C         -33.1761   -0.8424   35.6563 C.ar    1  UNL1        0.0002
     26 C         -32.2331   -1.7291   35.2138 C.ar    1  UNL1        0.0075
     27 N         -30.7761   -3.6282   34.2260 N.2     1  UNL1        0.1937
@<TRIPOS>BOND
     1     1     2    1
     2     1     8   am
     3     1     9    2
     4     8    10   am
     5     5    11    1
     6    11    12    1
     7    11    13    1
     8    11    14    1
     9    10    15    1
    10    15    16    2
    11    15    17   am
    12    17    18    1
    13    17    19    1
    14    10    20    2
    15    18    21    1
    16    18    27    2
    17     2     3   ar
    18     3     4   ar
    19     4     5   ar
    20     5     6   ar
    21     6     7   ar
    22     7     2   ar
    23    21    22   ar
    24    22    23   ar
    25    23    24   ar
    26    24    25   ar
    27    25    26   ar
    28    26    21   ar
