@<TRIPOS>MOLECULE
No_3800-gen_results/8p0m/2024-11-26-14-13-15/
 9 9 0 0 0
SMALL
GASTEIGER

@<TRIPOS>ATOM
      1 O         -28.1229   -1.3353   28.4874 O.3     1  UNL1       -0.1791
      2 C         -27.0637   -0.8242   28.8687 C.3     1  UNL1        0.3321
      3 C         -27.0246    0.1877   29.7358 C.ar    1  UNL1        0.0413
      4 C         -27.8240    0.5330   30.2854 C.ar    1  UNL1        0.0009
      5 F         -25.9546   -1.3314   28.1672 F       1  UNL1       -0.1959
      6 C         -27.7337    1.6301   31.3265 C.ar    1  UNL1       -0.0002
      7 C         -26.4936    2.2824   31.4628 C.ar    1  UNL1       -0.0000
      8 C         -25.4003    1.8142   30.6835 C.ar    1  UNL1       -0.0002
      9 C         -25.5711    0.7265   29.8280 C.ar    1  UNL1        0.0009
@<TRIPOS>BOND
     1     1     2    1
     2     2     3    1
     3     2     5    1
     4     3     4   ar
     5     4     6   ar
     6     6     7   ar
     7     7     8   ar
     8     8     9   ar
     9     9     3   ar
