@<TRIPOS>MOLECULE
No_3801-gen_results/8p0m/2024-11-26-14-13-15/
 23 24 0 0 0
SMALL
GASTEIGER

@<TRIPOS>ATOM
      1 C         -28.0162   -0.8135   28.8779 C.ar    1  UNL1        0.0412
      2 C         -28.4690   -0.7850   29.8287 C.ar    1  UNL1        0.0661
      3 C         -26.5455   -0.8762   28.8500 C.ar    1  UNL1        0.1374
      4 C         -25.8041   -1.0324   30.0571 C.ar    1  UNL1        0.0112
      5 C         -27.9437   -0.9869   31.2075 C.ar    1  UNL1        0.0450
      6 C         -26.5825   -1.0386   31.2231 C.ar    1  UNL1        0.0059
      7 CL        -30.2809   -0.7232   29.8834 Cl      1  UNL1       -0.0817
      8 C         -24.3690   -1.1185   30.0640 C.3     1  UNL1        0.0695
      9 C         -23.6811    0.1519   30.0835 C.ar    1  UNL1        0.0290
     10 C         -23.9535    1.1868   30.6649 C.ar    1  UNL1        0.2186
     11 N         -23.2487    2.3503   30.4164 N.ar    1  UNL1       -0.2168
     12 C         -22.4221    0.2541   29.2570 C.ar    1  UNL1        0.0053
     13 C         -21.8487    1.3022   28.8220 C.ar    1  UNL1        0.0904
     14 C         -22.3503    2.4966   29.4938 C.ar    1  UNL1        0.1051
     15 F         -25.8267   -0.8192   27.7255 F       1  UNL1       -0.2045
     16 C         -20.7787    1.4485   27.8958 C.3     1  UNL1        0.4200
     17 C         -23.8117   -2.3985   30.1479 C.3     1  UNL1        0.1182
     18 F         -24.9498    1.3694   31.4987 F       1  UNL1       -0.1835
     19 N         -23.3583   -2.8782   28.9871 N.3     1  UNL1       -0.1307
     20 F         -19.8076    1.9238   28.1414 F       1  UNL1       -0.1658
     21 F         -21.3828    2.1825   26.7711 F       1  UNL1       -0.1658
     22 F         -20.4518    0.1678   27.4463 F       1  UNL1       -0.1658
     23 BR        -29.0383   -1.0792   32.7708 Br      1  UNL1       -0.0481
@<TRIPOS>BOND
     1     2     7    1
     2     4     8    1
     3     8     9    1
     4     3    15    1
     5    13    16    1
     6     8    17    1
     7    10    18    1
     8    17    19    1
     9    16    20    1
    10    16    21    1
    11    16    22    1
    12     5    23    1
    13     9    10   ar
    14    10    11   ar
    15    11    14   ar
    16    14    13   ar
    17    13    12   ar
    18    12     9   ar
    19     1     2   ar
    20     2     5   ar
    21     5     6   ar
    22     6     4   ar
    23     4     3   ar
    24     3     1   ar
