@<TRIPOS>MOLECULE
No_3802-gen_results/8p0m/2024-11-26-14-13-15/
 16 18 0 0 0
SMALL
GASTEIGER

@<TRIPOS>ATOM
      1 C         -28.0162   -0.8135   28.8779 C.ar    1  UNL1        0.0000
      2 C         -27.0636   -0.1189   28.6079 C.ar    1  UNL1        0.0000
      3 C         -26.9716    0.7139   27.5060 C.ar    1  UNL1        0.0000
      4 C         -25.8205    1.4909   27.1160 C.ar    1  UNL1        0.0000
      5 C         -24.6562    1.4242   27.9180 C.ar    1  UNL1        0.0000
      6 C         -24.7114    0.5419   29.0507 C.ar    1  UNL1        0.0000
      7 C         -25.8042   -0.2058   29.3881 C.ar    1  UNL1        0.0000
      8 C         -28.0673   -1.5382   30.1911 C.ar    1  UNL1        0.0000
      9 C         -26.8381   -1.7680   30.8773 C.ar    1  UNL1        0.0000
     10 C         -25.7411   -1.0297   30.5541 C.ar    1  UNL1        0.0000
     11 C         -28.0790    0.8472   26.5259 C.ar    1  UNL1        0.0000
     12 C         -27.9849    1.1957   25.2795 C.ar    1  UNL1        0.0000
     13 C         -29.1203    1.2455   24.4989 C.ar    1  UNL1        0.0000
     14 C         -30.3195    0.7591   24.9207 C.ar    1  UNL1        0.0000
     15 C         -30.4044    0.2955   26.2151 C.ar    1  UNL1        0.0000
     16 C         -29.3752    0.3507   27.0426 C.ar    1  UNL1        0.0000
@<TRIPOS>BOND
     1     3    11    1
     2    11    12   ar
     3    12    13   ar
     4    13    14   ar
     5    14    15   ar
     6    15    16   ar
     7    16    11   ar
     8     2     3   ar
     9     3     4   ar
    10     4     5   ar
    11     5     6   ar
    12     6     7   ar
    13     1     2   ar
    14     2     7   ar
    15     7    10   ar
    16    10     9   ar
    17     9     8   ar
    18     8     1   ar
