@<TRIPOS>MOLECULE
No_3803-gen_results/8p0m/2024-11-26-14-13-15/
 30 31 0 0 0
SMALL
GASTEIGER

@<TRIPOS>ATOM
      1 O         -28.1229   -1.3353   28.4874 O.2     1  UNL1       -0.2709
      2 C         -28.5208   -0.4363   29.0779 C.2     1  UNL1        0.2711
      3 C         -29.6977    0.0507   28.9764 C.3     1  UNL1        0.2367
      4 N         -27.5405    0.1756   30.0054 N.am    1  UNL1       -0.1776
      5 C         -26.2376   -0.0526   30.0396 C.ar    1  UNL1        0.0731
      6 C         -25.5911   -0.7002   30.5795 C.ar    1  UNL1        0.0166
      7 C         -24.0651   -0.9531   30.4952 C.ar    1  UNL1        0.0010
      8 C         -23.4349   -0.2308   29.4724 C.ar    1  UNL1       -0.0042
      9 C         -24.2772    0.5436   28.6038 C.ar    1  UNL1       -0.0212
     10 C         -25.6322    0.6776   28.8224 C.ar    1  UNL1        0.0123
     11 N         -30.6945   -0.4585   29.5328 N.pl3   1  UNL1       -0.2232
     12 C         -30.6342   -1.2886   30.3769 C.2     1  UNL1        0.0804
     13 C         -29.8399   -1.4460   31.2350 C.2     1  UNL1        0.0132
     14 C         -29.5407   -1.9827   32.1029 C.2     1  UNL1       -0.0205
     15 C         -28.3310   -1.9067   33.0078 C.2     1  UNL1       -0.0042
     16 C         -27.6241   -0.7133   32.8121 C.2     1  UNL1       -0.0003
     17 C         -28.0675    0.3824   33.3023 C.2     1  UNL1       -0.0000
     18 C         -27.3292    1.6578   33.1497 C.ar    1  UNL1       -0.0000
     19 C         -27.8777    2.9508   33.2601 C.ar    1  UNL1       -0.0000
     20 C         -27.2058    4.0941   32.9486 C.ar    1  UNL1        0.0000
     21 C         -25.8613    4.0208   32.4559 C.ar    1  UNL1        0.0000
     22 C         -25.2891    2.7546   32.3009 C.ar    1  UNL1        0.0000
     23 C         -26.0124    1.6220   32.6241 C.ar    1  UNL1       -0.0000
     24 C         -30.4190   -3.1733   32.6541 C.3     1  UNL1        0.0311
     25 C         -23.5798    1.2760   27.5175 C.3     1  UNL1        0.0224
     26 C         -22.2745    1.7282   27.5751 C.3     1  UNL1        0.0047
     27 C         -24.2777    1.5813   26.3227 C.3     1  UNL1        0.0047
     28 C         -29.7970    1.2077   27.9509 C.3     1  UNL1        0.3468
     29 F         -30.2887    0.9026   26.9742 F       1  UNL1       -0.1959
     30 F         -28.5423    1.7208   27.7934 F       1  UNL1       -0.1959
@<TRIPOS>BOND
     1     1     2    2
     2     2     3    1
     3     2     4   am
     4     4     5    1
     5     3    11    1
     6    11    12    1
     7    12    13    2
     8    13    14    1
     9    14    15    2
    10    15    16    1
    11    16    17    2
    12    17    18    1
    13    14    24    1
    14     9    25    1
    15    25    26    1
    16    25    27    1
    17     3    28    1
    18    28    29    1
    19    28    30    1
    20    18    19   ar
    21    19    20   ar
    22    20    21   ar
    23    21    22   ar
    24    22    23   ar
    25    23    18   ar
    26     5     6   ar
    27     6     7   ar
    28     7     8   ar
    29     8     9   ar
    30     9    10   ar
    31    10     5   ar
