@<TRIPOS>MOLECULE
No_3804-gen_results/8p0m/2024-11-26-14-13-15/
 15 15 0 0 0
SMALL
GASTEIGER

@<TRIPOS>ATOM
      1 C         -28.0162   -0.8135   28.8779 C.2     1  UNL1        0.0777
      2 C         -27.0636   -0.1189   28.6079 C.2     1  UNL1       -0.0374
      3 C         -26.9716    0.7139   27.5060 C.3     1  UNL1        0.0222
      4 C         -25.8205    1.4909   27.1160 C.3     1  UNL1        0.0043
      5 C         -24.6562    1.4242   27.9180 C.3     1  UNL1        0.0091
      6 C         -24.6847    0.5901   29.0659 C.3     1  UNL1        0.0992
      7 C         -23.4723    0.4701   29.8435 C.3     1  UNL1        0.3978
      8 C         -25.7941   -0.1679   29.3440 C.3     1  UNL1        0.0307
      9 C         -29.1845    0.0064   29.3819 C.2     1  UNL1        0.3873
     10 O         -29.0130    0.5629   30.4425 O.co2   1  UNL1       -0.2406
     11 O         -30.2030    0.0109   28.6444 O.co2   1  UNL1       -0.2406
     12 F         -23.6848    0.7732   31.0692 F       1  UNL1       -0.1700
     13 F         -22.5159    1.3345   29.4519 F       1  UNL1       -0.1700
     14 F         -22.9483   -0.7397   29.7658 F       1  UNL1       -0.1700
     15 C         -25.8888    2.4020   26.0171 C.3     1  UNL1        0.0003
@<TRIPOS>BOND
     1     1     2    2
     2     2     3    1
     3     3     4    1
     4     4     5    1
     5     5     6    1
     6     6     7    1
     7     2     8    1
     8     6     8    1
     9     1     9    1
    10     9    10   ar
    11     9    11   ar
    12     7    12    1
    13     7    13    1
    14     7    14    1
    15     4    15    1
