@<TRIPOS>MOLECULE
No_3808-gen_results/8p0m/2024-11-26-14-13-15/
 33 37 0 0 0
SMALL
GASTEIGER

@<TRIPOS>ATOM
      1 O         -28.1229   -1.3353   28.4874 O.2     1  UNL1       -0.2726
      2 C         -27.4806   -0.4044   28.7094 C.2     1  UNL1        0.2511
      3 C         -27.1904    0.2460   29.5268 C.3     1  UNL1        0.1089
      4 N         -26.8157    0.1371   27.4262 N.am    1  UNL1       -0.1604
      5 C         -26.3550    1.4196   29.7643 C.3     1  UNL1        0.0601
      6 C         -26.0793    1.1044   27.4711 C.ar    1  UNL1        0.1508
      7 C         -25.7677    1.8659   28.6045 C.ar    1  UNL1        0.0158
      8 C         -27.7596   -0.2149   31.0042 C.ar    1  UNL1       -0.0132
      9 C         -29.0102    0.5023   31.3154 C.ar    1  UNL1       -0.0038
     10 C         -29.6748    0.0001   32.2062 C.ar    1  UNL1       -0.0003
     11 C         -29.2739   -1.1723   33.0282 C.ar    1  UNL1       -0.0000
     12 C         -28.1476   -1.8238   32.6185 C.ar    1  UNL1       -0.0003
     13 C         -27.3786   -1.3784   31.5661 C.ar    1  UNL1       -0.0038
     14 N         -25.4483    1.5566   26.2605 N.ar    1  UNL1       -0.2276
     15 C         -24.4643    2.5211   26.2431 C.ar    1  UNL1        0.1004
     16 C         -24.2812    3.2899   27.4238 C.ar    1  UNL1        0.0205
     17 C         -24.8673    2.9748   28.5620 C.ar    1  UNL1        0.0005
     18 C         -26.0959    2.1513   31.0992 C.ar    1  UNL1       -0.0175
     19 C         -25.0017    1.7903   31.7904 C.ar    1  UNL1       -0.0038
     20 C         -26.9881    3.1857   31.3936 C.ar    1  UNL1       -0.0038
     21 C         -26.6606    4.1765   31.6440 C.ar    1  UNL1        0.0043
     22 C         -25.4323    4.1763   32.6034 C.ar    1  UNL1        0.0550
     23 C         -24.5306    3.1170   32.4979 C.ar    1  UNL1        0.0043
     24 C         -24.9722    5.4126   33.3112 C.2     1  UNL1        0.2651
     25 O         -23.8691    5.9139   33.1323 O.2     1  UNL1       -0.2684
     26 N         -25.9762    6.2491   33.8250 N.am    1  UNL1       -0.1959
     27 C         -27.3214    5.9239   33.9862 C.3     1  UNL1        0.1526
     28 C         -28.0857    6.9317   34.4208 C.3     1  UNL1        0.0293
     29 C         -29.4495    6.7018   34.6599 C.3     1  UNL1        0.0027
     30 C         -29.9621    5.4083   34.3747 C.3     1  UNL1        0.0079
     31 C         -29.1482    4.4040   33.9259 C.3     1  UNL1        0.0663
     32 C         -27.7760    4.6353   33.8308 C.2     1  UNL1        0.1703
     33 O         -27.0667    3.5474   34.0264 O.2     1  UNL1       -0.2943
@<TRIPOS>BOND
     1     1     2    2
     2     2     3    1
     3     2     4   am
     4     3     5    1
     5     5     7    1
     6     3     8    1
     7     5    18    1
     8    22    24    1
     9    24    25    2
    10    24    26   am
    11    26    27    1
    12    28    29    1
    13    30    31    1
    14    27    32    1
    15    31    32    1
    16    32    33    2
    17     6     4    1
    18    27    28    1
    19    29    30    1
    20    18    19   ar
    21    19    23   ar
    22    23    22   ar
    23    22    21   ar
    24    21    20   ar
    25    20    18   ar
    26     6     7   ar
    27     7    17   ar
    28    17    16   ar
    29    16    15   ar
    30    15    14   ar
    31    14     6   ar
    32     8     9   ar
    33     9    10   ar
    34    10    11   ar
    35    11    12   ar
    36    12    13   ar
    37    13     8   ar
