@<TRIPOS>MOLECULE
No_3809-gen_results/8p0m/2024-11-26-14-13-15/
 11 11 0 0 0
SMALL
GASTEIGER

@<TRIPOS>ATOM
      1 O         -28.1229   -1.3353   28.4874 O.2     1  UNL1       -0.2733
      2 C         -27.4806   -0.4044   28.7094 C.2     1  UNL1        0.2423
      3 C         -26.3804   -0.0867   27.9394 C.3     1  UNL1        0.0988
      4 N         -27.6664    0.4468   29.8988 N.am    1  UNL1       -0.2048
      5 C         -25.8048    1.1658   28.0750 C.3     1  UNL1        0.0787
      6 C         -26.0441    1.9125   29.2704 C.3     1  UNL1        0.1359
      7 C         -27.0331    1.5567   30.1007 C.3     1  UNL1        0.1272
      8 BR        -24.3703    1.7399   26.9925 Br      1  UNL1       -0.0805
      9 C         -25.2718    3.1834   29.4462 C.2     1  UNL1        0.3669
     10 O         -24.6308    3.7600   28.7016 O.co2   1  UNL1       -0.2456
     11 O         -25.5182    3.7421   30.7131 O.co2   1  UNL1       -0.2456
@<TRIPOS>BOND
     1     1     2    2
     2     2     3    1
     3     2     4   am
     4     5     6    1
     5     5     8    1
     6     6     9    1
     7     9    10   ar
     8     9    11   ar
     9     3     5    1
    10     6     7    1
    11     7     4    1
