@<TRIPOS>MOLECULE
No_3811-gen_results/8p0m/2024-11-26-14-13-15/
 35 37 0 0 0
SMALL
GASTEIGER

@<TRIPOS>ATOM
      1 C         -28.0162   -0.8135   28.8779 C.3     1  UNL1        0.1371
      2 C         -27.0636   -0.1190   28.6079 C.ar    1  UNL1       -0.0005
      3 C         -26.9716    0.7139   27.5060 C.ar    1  UNL1        0.0542
      4 C         -25.8205    1.4909   27.1160 C.ar    1  UNL1        0.0149
      5 C         -24.6562    1.4242   27.9180 C.ar    1  UNL1        0.0722
      6 C         -24.6847    0.5901   29.0659 C.ar    1  UNL1        0.0036
      7 C         -25.8099   -0.1266   29.3338 C.ar    1  UNL1       -0.0030
      8 C         -28.6943   -0.4734   30.1587 C.2     1  UNL1        0.3260
      9 O         -28.7309    0.5070   30.6385 O.2     1  UNL1       -0.2493
     10 O         -29.2718   -1.6020   30.7621 O.3     1  UNL1       -0.4239
     11 C         -23.4661    2.1973   27.6000 C.3     1  UNL1        0.4186
     12 F         -23.4787    2.9440   26.7309 F       1  UNL1       -0.1659
     13 F         -22.3641    1.2967   27.3177 F       1  UNL1       -0.1659
     14 F         -23.0035    2.8390   28.7474 F       1  UNL1       -0.1659
     15 CL        -28.2932    0.8453   26.4529 Cl      1  UNL1       -0.0826
     16 C         -25.7027   -0.9956   30.5651 C.2     1  UNL1       -0.0048
     17 C         -24.6393   -1.1676   31.1382 C.2     1  UNL1       -0.0258
     18 C         -23.7971   -0.1425   31.7434 C.3     1  UNL1        0.0307
     19 C         -30.4797   -1.5731   31.0930 C.ar    1  UNL1        0.1485
     20 C         -31.2869   -0.9128   31.1572 C.ar    1  UNL1        0.0376
     21 C         -30.8381   -3.0768   31.5405 C.ar    1  UNL1        0.0376
     22 C         -32.6802   -1.0747   31.5327 C.ar    1  UNL1        0.0031
     23 C         -32.1701   -3.3174   31.9341 C.ar    1  UNL1        0.0027
     24 C         -32.4887   -4.6714   32.3464 C.2     1  UNL1       -0.0041
     25 C         -33.0117   -2.2903   31.9316 C.ar    1  UNL1        0.0002
     26 C         -33.0811   -5.3919   31.6099 C.2     1  UNL1       -0.0206
     27 C         -33.4085   -4.9797   30.2904 C.3     1  UNL1        0.0633
     28 C         -32.9102   -5.3314   29.3291 C.ar    1  UNL1       -0.0170
     29 C         -33.0708   -4.7723   27.9688 C.ar    1  UNL1       -0.0039
     30 C         -32.2123   -5.0702   26.8347 C.ar    1  UNL1       -0.0003
     31 C         -31.1354   -5.9898   27.0579 C.ar    1  UNL1       -0.0000
     32 C         -30.8801   -6.4866   28.2963 C.ar    1  UNL1       -0.0003
     33 C         -31.6125   -6.1281   29.3510 C.ar    1  UNL1       -0.0039
     34 C         -34.7121   -4.2352   30.1563 C.3     1  UNL1        0.1180
     35 N         -35.4736   -3.9564   30.9374 N.3     1  UNL1       -0.1307
@<TRIPOS>BOND
     1     1     8    1
     2     8     9    2
     3     8    10    1
     4     5    11    1
     5    11    12    1
     6    11    13    1
     7    11    14    1
     8     3    15    1
     9     7    16    1
    10    16    17    2
    11    17    18    1
    12    10    19    1
    13    23    24    1
    14    24    26    2
    15    26    27    1
    16    27    28    1
    17    27    34    1
    18    34    35    1
    19     1     2    1
    20    19    20   ar
    21    20    22   ar
    22    22    25   ar
    23    25    23   ar
    24    23    21   ar
    25    21    19   ar
    26     2     3   ar
    27     3     4   ar
    28     4     5   ar
    29     5     6   ar
    30     6     7   ar
    31     7     2   ar
    32    28    29   ar
    33    29    30   ar
    34    30    31   ar
    35    31    32   ar
    36    32    33   ar
    37    33    28   ar
