@<TRIPOS>MOLECULE
No_3812-gen_results/8p0m/2024-11-26-14-13-15/
 33 35 0 0 0
SMALL
GASTEIGER

@<TRIPOS>ATOM
      1 C         -28.0162   -0.8135   28.8779 C.ar    1  UNL1        0.0066
      2 C         -28.4690   -0.7850   29.8287 C.ar    1  UNL1        0.0798
      3 C         -26.5455   -0.8762   28.8500 C.ar    1  UNL1        0.0002
      4 C         -25.6825   -0.7773   27.6829 C.ar    1  UNL1        0.0001
      5 C         -27.9181   -1.0034   31.1877 C.ar    1  UNL1        0.0066
      6 C         -26.5308   -1.0794   31.2463 C.ar    1  UNL1        0.0002
      7 C         -25.7798   -1.0462   30.0905 C.ar    1  UNL1        0.0001
      8 C         -24.3676   -0.2501   27.7918 C.ar    1  UNL1        0.0045
      9 C         -23.6808   -0.4762   29.0175 C.ar    1  UNL1        0.0539
     10 C         -24.3913   -1.0668   30.2352 C.ar    1  UNL1        0.0045
     11 C         -22.1994   -0.2524   29.0837 C.2     1  UNL1        0.2528
     12 N         -21.7137    0.7870   28.4007 N.am    1  UNL1       -0.2534
     13 O         -21.4788   -0.9682   29.7488 O.2     1  UNL1       -0.2696
     14 C         -20.2791    1.1694   28.2476 C.3     1  UNL1        0.1203
     15 C         -30.0663   -0.7781   29.9240 C.2     1  UNL1        0.3878
     16 O         -30.6543    0.0461   30.7052 O.co2   1  UNL1       -0.2406
     17 O         -30.6914   -1.4684   29.1279 O.co2   1  UNL1       -0.2406
     18 C         -22.6060    1.7695   27.6599 C.ar    1  UNL1        0.0544
     19 C         -23.2887    2.7008   28.4554 C.ar    1  UNL1        0.0213
     20 C         -24.3528    3.4564   27.8992 C.ar    1  UNL1        0.0769
     21 C         -24.5448    3.4048   26.4960 C.ar    1  UNL1        0.0065
     22 C         -23.6701    2.5841   25.7288 C.ar    1  UNL1        0.0015
     23 C         -22.7816    1.7443   26.3405 C.ar    1  UNL1        0.0149
     24 C         -25.1719    4.4236   28.6299 C.2     1  UNL1        0.3418
     25 O         -25.5879    5.4086   28.2130 O.2     1  UNL1       -0.2449
     26 O         -25.5278    3.9827   29.8442 O.3     1  UNL1       -0.4331
     27 C         -26.7742    4.0412   30.3076 C.3     1  UNL1        0.3170
     28 C         -27.0925    2.9383   31.1445 C.2     1  UNL1        0.3622
     29 O         -28.3255    2.5344   31.0673 O.2     1  UNL1       -0.2459
     30 O         -26.2978    2.3423   31.8839 O.3     1  UNL1       -0.4450
     31 C         -26.5957    2.1025   33.2492 C.3     1  UNL1        0.2207
     32 C         -27.8135    1.7010   33.5391 C.3     1  UNL1        0.1149
     33 BR        -29.2921    2.3571   32.9159 Br      1  UNL1       -0.0767
@<TRIPOS>BOND
     1     9    11    1
     2    11    12   am
     3    11    13    2
     4    12    14    1
     5     2    15    1
     6    15    16   ar
     7    15    17   ar
     8    12    18    1
     9    20    24    1
    10    24    25    2
    11    24    26    1
    12    26    27    1
    13    27    28    1
    14    28    29    2
    15    28    30    1
    16    30    31    1
    17    31    32    1
    18    32    33    1
    19    18    19   ar
    20    19    20   ar
    21    20    21   ar
    22    21    22   ar
    23    22    23   ar
    24    23    18   ar
    25     1     2   ar
    26     2     5   ar
    27     5     6   ar
    28     6     7   ar
    29     3     1   ar
    30     3     4   ar
    31     4     8   ar
    32     8     9   ar
    33     9    10   ar
    34    10     7   ar
    35     7     3   ar
