@<TRIPOS>MOLECULE
No_3813-gen_results/8p0m/2024-11-26-14-13-15/
 18 19 0 0 0
SMALL
GASTEIGER

@<TRIPOS>ATOM
      1 C         -28.0162   -0.8135   28.8779 C.ar    1  UNL1       -0.0039
      2 C         -28.4690   -0.7850   29.8287 C.ar    1  UNL1       -0.0003
      3 C         -28.1960    0.3478   28.0550 C.ar    1  UNL1       -0.0181
      4 C         -29.0191    1.3501   28.3782 C.ar    1  UNL1       -0.0039
      5 C         -29.4107    0.1803   30.3782 C.ar    1  UNL1       -0.0000
      6 C         -29.6059    1.2495   29.6193 C.ar    1  UNL1       -0.0003
      7 C         -27.4597    0.3802   26.7091 C.3     1  UNL1        0.0486
      8 C         -26.0094    0.3317   26.7236 C.3     1  UNL1        0.0351
      9 C         -25.2570    1.3161   27.3387 C.ar    1  UNL1       -0.0215
     10 C         -23.8757    1.1200   27.5504 C.ar    1  UNL1       -0.0042
     11 C         -23.0019    2.2258   27.5778 C.ar    1  UNL1       -0.0003
     12 C         -23.5650    3.4752   27.5329 C.ar    1  UNL1       -0.0000
     13 C         -25.7443    2.3299   28.1241 C.ar    1  UNL1       -0.0042
     14 C         -24.9164    3.6160   27.8798 C.ar    1  UNL1       -0.0003
     15 C         -28.1270    0.6181   25.5542 C.2     1  UNL1       -0.0217
     16 C         -28.8314    1.6949   25.2998 C.2     1  UNL1       -0.0042
     17 C         -29.5500    1.8612   24.0869 C.2     1  UNL1       -0.0003
     18 C         -29.5708    0.7847   23.2075 C.2     1  UNL1       -0.0000
@<TRIPOS>BOND
     1     3     7    1
     2     7     8    1
     3     8     9    1
     4     7    15    1
     5    15    16    2
     6    16    17    1
     7    17    18    2
     8     1     2   ar
     9     2     5   ar
    10     5     6   ar
    11     6     4   ar
    12     4     3   ar
    13     3     1   ar
    14     9    10   ar
    15    10    11   ar
    16    11    12   ar
    17    12    14   ar
    18    14    13   ar
    19    13     9   ar
