@<TRIPOS>MOLECULE
No_3815-gen_results/8p0m/2024-11-26-14-13-15/
 15 16 0 0 0
SMALL
GASTEIGER

@<TRIPOS>ATOM
      1 C         -28.0162   -0.8135   28.8779 C.ar    1  UNL1        0.0066
      2 C         -27.0636   -0.1189   28.6079 C.ar    1  UNL1        0.0002
      3 C         -25.7647   -0.3897   29.0360 C.ar    1  UNL1        0.0000
      4 C         -25.5296   -1.5302   29.9014 C.ar    1  UNL1        0.0002
      5 C         -26.6577   -2.2915   30.2035 C.ar    1  UNL1        0.0066
      6 C         -27.8548   -1.9555   29.7630 C.ar    1  UNL1        0.0798
      7 C         -24.5349    0.4128   28.7431 C.ar    1  UNL1        0.0000
      8 C         -23.3062    0.0366   29.0393 C.ar    1  UNL1        0.0000
      9 C         -22.1759    0.8277   28.6836 C.ar    1  UNL1        0.0000
     10 C         -22.3552    1.8290   27.6875 C.ar    1  UNL1        0.0000
     11 C         -24.5941    1.4954   27.7678 C.ar    1  UNL1        0.0000
     12 C         -23.5500    2.1700   27.3300 C.ar    1  UNL1        0.0000
     13 C         -29.0227   -2.7733   30.1850 C.2     1  UNL1        0.3878
     14 O         -29.3140   -2.7476   31.3207 O.co2   1  UNL1       -0.2406
     15 O         -29.4757   -3.6825   29.4063 O.co2   1  UNL1       -0.2406
@<TRIPOS>BOND
     1     3     7    1
     2     6    13    1
     3    13    14   ar
     4    13    15   ar
     5     7     8   ar
     6     8     9   ar
     7     9    10   ar
     8    10    12   ar
     9    12    11   ar
    10    11     7   ar
    11     1     2   ar
    12     2     3   ar
    13     3     4   ar
    14     4     5   ar
    15     5     6   ar
    16     6     1   ar
