@<TRIPOS>MOLECULE
No_3817-gen_results/8p0m/2024-11-26-14-13-15/
 19 20 0 0 0
SMALL
GASTEIGER

@<TRIPOS>ATOM
      1 C         -28.0162   -0.8135   28.8779 C.2     1  UNL1        0.2490
      2 C         -27.0636   -0.1190   28.6079 C.ar    1  UNL1        0.0536
      3 C         -26.9287    1.1713   29.0083 C.ar    1  UNL1        0.0045
      4 C         -25.7702    2.0341   28.6884 C.ar    1  UNL1        0.0040
      5 C         -24.7141    1.4431   27.9188 C.ar    1  UNL1        0.0714
      6 C         -24.8590    0.0783   27.5836 C.ar    1  UNL1        0.0040
      7 C         -25.9647   -0.6606   27.9164 C.ar    1  UNL1        0.0045
      8 N         -27.9820   -1.6112   30.1028 N.am    1  UNL1       -0.2748
      9 C         -23.5351    2.1704   27.5550 C.3     1  UNL1        0.4186
     10 F         -22.6455    1.5740   27.1506 F       1  UNL1       -0.1659
     11 F         -23.0609    2.8934   28.6474 F       1  UNL1       -0.1659
     12 F         -23.8997    3.1900   26.7043 F       1  UNL1       -0.1659
     13 O         -29.2056   -0.5663   28.5128 O.2     1  UNL1       -0.2699
     14 C         -29.0477   -2.4990   30.5761 C.3     1  UNL1        0.1099
     15 C         -26.6853   -2.3463   30.2876 C.3     1  UNL1        0.0938
     16 C         -28.8511   -3.7603   30.7683 C.3     1  UNL1        0.0997
     17 CL        -30.1846   -4.4998   31.5968 Cl      1  UNL1       -0.1132
     18 C         -27.7154   -4.4866   30.9408 C.3     1  UNL1        0.0198
     19 C         -26.5833   -3.7072   30.4446 C.3     1  UNL1        0.0228
@<TRIPOS>BOND
     1     1     2    1
     2     1     8   am
     3     5     9    1
     4     9    10    1
     5     9    11    1
     6     9    12    1
     7     1    13    2
     8     8    14    1
     9     8    15    1
    10    16    17    1
    11    16    18    1
    12    14    16    1
    13    18    19    1
    14    19    15    1
    15     2     3   ar
    16     3     4   ar
    17     4     5   ar
    18     5     6   ar
    19     6     7   ar
    20     7     2   ar
