@<TRIPOS>MOLECULE
No_3819-gen_results/8p0m/2024-11-26-14-13-15/
 18 19 0 0 0
SMALL
GASTEIGER

@<TRIPOS>ATOM
      1 C         -28.0162   -0.8135   28.8779 C.ar    1  UNL1        0.0091
      2 C         -28.4690   -0.7850   29.8287 C.ar    1  UNL1        0.0537
      3 C         -26.5455   -0.8762   28.8500 C.ar    1  UNL1        0.0552
      4 C         -25.8041   -1.0324   30.0571 C.ar    1  UNL1        0.0046
      5 C         -27.9437   -0.9869   31.2075 C.ar    1  UNL1        0.0045
      6 C         -26.5825   -1.0386   31.2231 C.ar    1  UNL1        0.0003
      7 C         -30.0606   -0.7371   29.9024 C.2     1  UNL1        0.2490
      8 N         -30.6056   -0.0348   29.0093 N.am    1  UNL1       -0.2761
      9 C         -30.1203    1.0098   28.5447 C.3     1  UNL1        0.0937
     10 C         -30.3257    1.1953   27.0449 C.3     1  UNL1        0.0216
     11 C         -31.0377    0.4313   26.3733 C.3     1  UNL1        0.0035
     12 C         -31.7018   -0.6733   27.0209 C.3     1  UNL1        0.0216
     13 C         -31.4372   -0.9369   28.2714 C.3     1  UNL1        0.0937
     14 O         -30.6558   -1.2443   30.9205 O.2     1  UNL1       -0.2699
     15 C         -25.7288   -0.7563   27.5868 C.2     1  UNL1        0.2648
     16 N         -26.1839   -0.0790   26.6036 N.am    1  UNL1       -0.1998
     17 C         -25.5160    0.1223   25.4932 C.3     1  UNL1        0.1388
     18 O         -24.6326   -1.1634   27.6507 O.2     1  UNL1       -0.2684
@<TRIPOS>BOND
     1     2     7    1
     2     7     8   am
     3     8     9    1
     4    10    11    1
     5     8    13    1
     6    12    13    1
     7     7    14    2
     8     3    15    1
     9    15    16   am
    10    16    17    1
    11    15    18    2
    12     9    10    1
    13    11    12    1
    14     1     2   ar
    15     2     5   ar
    16     5     6   ar
    17     6     4   ar
    18     4     3   ar
    19     3     1   ar
