@<TRIPOS>MOLECULE
No_382-gen_results/8p0m/2024-11-26-14-13-15/
 28 31 0 0 0
SMALL
GASTEIGER

@<TRIPOS>ATOM
      1 C         -28.0162   -0.8135   28.8779 C.ar    1  UNL1        0.2131
      2 C         -27.0636   -0.1190   28.6079 C.ar    1  UNL1        0.1207
      3 C         -25.7923   -0.4302   29.0761 C.ar    1  UNL1        0.0224
      4 C         -25.5756   -1.5654   29.9363 C.ar    1  UNL1        0.0018
      5 C         -26.7354   -2.3004   30.2173 C.ar    1  UNL1        0.0034
      6 C         -27.9184   -1.9537   29.7629 C.ar    1  UNL1        0.0436
      7 N         -27.1059    1.0338   27.8185 N.2     1  UNL1       -0.2348
      8 C         -27.8211    1.6842   27.5015 C.2     1  UNL1        0.1203
      9 C         -29.1186    1.6494   28.0075 C.3     1  UNL1        0.0836
     10 C         -29.3601    1.4119   29.1563 C.ar    1  UNL1       -0.0189
     11 C         -30.6562    1.7744   29.7648 C.ar    1  UNL1       -0.0039
     12 C         -30.8999    1.5481   31.1409 C.ar    1  UNL1       -0.0003
     13 C         -29.8558    0.8917   31.8567 C.ar    1  UNL1       -0.0003
     14 C         -28.6595    0.5934   31.3594 C.ar    1  UNL1       -0.0042
     15 C         -28.4173    0.8042   30.0471 C.ar    1  UNL1       -0.0213
     16 C         -27.2372    1.7983   30.2095 C.3     1  UNL1        0.0523
     17 O         -29.1048   -0.8576   28.2695 O.3     1  UNL1       -0.2850
     18 C         -27.4253    3.2980   30.4380 C.ar    1  UNL1       -0.0178
     19 C         -27.3578    3.7056   31.5878 C.ar    1  UNL1       -0.0039
     20 C         -27.3845    5.1540   31.8183 C.ar    1  UNL1       -0.0003
     21 C         -27.7079    4.1179   29.3584 C.ar    1  UNL1       -0.0039
     22 C         -27.7837    5.5088   29.5102 C.ar    1  UNL1       -0.0003
     23 C         -27.6391    6.0164   30.7960 C.ar    1  UNL1       -0.0000
     24 CL        -27.5491    2.7523   26.0937 Cl      1  UNL1       -0.0658
     25 C         -31.7544    2.2675   28.9796 C.ar    1  UNL1       -0.0003
     26 C         -32.7479    2.8059   29.5496 C.ar    1  UNL1       -0.0000
     27 C         -33.0015    2.5697   30.9561 C.ar    1  UNL1       -0.0000
     28 C         -32.1022    1.9631   31.7622 C.ar    1  UNL1       -0.0000
@<TRIPOS>BOND
     1     2     7    1
     2     7     8    2
     3     8     9    1
     4    15    16    1
     5     1    17    1
     6    16    18    1
     7     8    24    1
     8     9    10    1
     9    12    28   ar
    10    28    27   ar
    11    27    26   ar
    12    26    25   ar
    13    25    11   ar
    14     1     2   ar
    15     2     3   ar
    16     3     4   ar
    17     4     5   ar
    18     5     6   ar
    19     6     1   ar
    20    10    11   ar
    21    11    12   ar
    22    12    13   ar
    23    13    14   ar
    24    14    15   ar
    25    15    10   ar
    26    18    19   ar
    27    19    20   ar
    28    20    23   ar
    29    23    22   ar
    30    22    21   ar
    31    21    18   ar
