@<TRIPOS>MOLECULE
No_3820-gen_results/8p0m/2024-11-26-14-13-15/
 13 14 0 0 0
SMALL
GASTEIGER

@<TRIPOS>ATOM
      1 C         -28.0162   -0.8135   28.8779 C.ar    1  UNL1       -0.0030
      2 C         -28.4690   -0.7850   29.8287 C.ar    1  UNL1       -0.0080
      3 C         -26.5042   -0.7777   28.8766 C.ar    1  UNL1       -0.0003
      4 C         -25.8103   -0.8531   30.1028 C.ar    1  UNL1       -0.0000
      5 C         -27.9906   -0.8916   31.2257 C.ar    1  UNL1       -0.0030
      6 C         -26.6042   -0.8676   31.2652 C.ar    1  UNL1       -0.0003
      7 C         -30.0739   -0.8360   29.8615 C.3     1  UNL1        0.0781
      8 N         -30.6454   -0.1837   28.9598 N.3     1  UNL1       -0.2167
      9 C         -31.5454    0.3635   28.8287 C.3     1  UNL1        0.0890
     10 C         -32.3569    0.6416   29.9170 C.3     1  UNL1        0.0189
     11 C         -31.9405   -0.1081   31.0621 C.3     1  UNL1        0.0032
     12 C         -30.4935   -0.1030   31.2240 C.3     1  UNL1        0.0203
     13 C         -30.5722   -2.2761   30.0656 C.3     1  UNL1        0.0219
@<TRIPOS>BOND
     1     2     7    1
     2     7     8    1
     3     8     9    1
     4    10    11    1
     5     7    12    1
     6    11    12    1
     7     7    13    1
     8     9    10    1
     9     1     2   ar
    10     2     5   ar
    11     5     6   ar
    12     6     4   ar
    13     4     3   ar
    14     3     1   ar
