@<TRIPOS>MOLECULE
No_3821-gen_results/8p0m/2024-11-26-14-13-15/
 17 18 0 0 0
SMALL
GASTEIGER

@<TRIPOS>ATOM
      1 C         -28.0162   -0.8135   28.8779 C.3     1  UNL1        0.1296
      2 C         -27.0636   -0.1189   28.6079 C.ar    1  UNL1       -0.0140
      3 C         -27.0010    0.6913   27.4910 C.ar    1  UNL1       -0.0039
      4 C         -25.8548    1.4825   27.0830 C.ar    1  UNL1        0.0040
      5 C         -24.6901    1.4526   27.8807 C.ar    1  UNL1        0.0517
      6 C         -23.4878    2.1451   27.6011 C.2     1  UNL1        0.2687
      7 C         -25.8122   -0.1656   29.4299 C.ar    1  UNL1       -0.0078
      8 C         -24.6457    0.5887   29.0806 C.ar    1  UNL1       -0.0136
      9 C         -28.6694   -0.4862   30.2406 C.3     1  UNL1        0.4017
     10 N         -22.4600    1.5995   27.2436 N.am    1  UNL1       -0.1745
     11 F         -29.4307   -1.4847   30.6374 F       1  UNL1       -0.1697
     12 F         -29.4913    0.5893   30.1946 F       1  UNL1       -0.1697
     13 F         -27.7845   -0.3514   31.2315 F       1  UNL1       -0.1697
     14 O         -23.6416    3.4392   27.4197 O.2     1  UNL1       -0.2680
     15 C         -21.9577    0.4135   27.8508 C.2     1  UNL1        0.0847
     16 C         -22.4730   -0.2335   28.7711 C.2     1  UNL1       -0.0035
     17 C         -23.8374   -0.4016   29.1177 C.3     1  UNL1        0.0538
@<TRIPOS>BOND
     1     1     2    1
     2     5     6    1
     3     1     9    1
     4     6    10   am
     5     9    11    1
     6     9    12    1
     7     9    13    1
     8     6    14    2
     9    10    15    1
    10    15    16    2
    11     8    17    1
    12    16    17    1
    13     2     3   ar
    14     3     4   ar
    15     4     5   ar
    16     5     8   ar
    17     8     7   ar
    18     7     2   ar
