@<TRIPOS>MOLECULE
No_3822-gen_results/8p0m/2024-11-26-14-13-15/
 35 39 0 0 0
SMALL
GASTEIGER

@<TRIPOS>ATOM
      1 C         -28.0162   -0.8135   28.8779 C.ar    1  UNL1        0.0006
      2 C         -28.4690   -0.7850   29.8287 C.ar    1  UNL1        0.0539
      3 C         -26.5042   -0.7777   28.8766 C.ar    1  UNL1       -0.0176
      4 C         -25.8103   -0.8531   30.1028 C.ar    1  UNL1       -0.0039
      5 C         -27.9906   -0.8916   31.2257 C.ar    1  UNL1        0.0045
      6 C         -26.6042   -0.8676   31.2652 C.ar    1  UNL1       -0.0002
      7 C         -30.0739   -0.8360   29.8615 C.2     1  UNL1        0.2565
      8 O         -30.6891   -1.6554   30.2229 O.2     1  UNL1       -0.2692
      9 N         -30.6139    0.2846   29.2227 N.am    1  UNL1       -0.2339
     10 C         -29.9311    1.4151   28.7449 C.ar    1  UNL1        0.0584
     11 C         -30.0921    1.9904   27.6785 C.ar    1  UNL1        0.0152
     12 C         -29.3468    3.1650   27.2124 C.ar    1  UNL1        0.0013
     13 C         -28.2688    3.6126   28.0361 C.ar    1  UNL1        0.0001
     14 C         -28.0334    2.8844   29.2245 C.ar    1  UNL1        0.0013
     15 C         -28.7559    1.8582   29.5858 C.ar    1  UNL1        0.0152
     16 C         -25.6697   -0.6355   27.6697 C.3     1  UNL1        0.0526
     17 C         -25.3002    0.7087   27.3416 C.ar    1  UNL1       -0.0178
     18 C         -24.1507    1.2034   27.8798 C.ar    1  UNL1       -0.0039
     19 C         -23.6542    2.4896   27.3965 C.ar    1  UNL1       -0.0003
     20 C         -24.3333    3.1517   26.4052 C.ar    1  UNL1       -0.0000
     21 C         -25.9304    1.3980   26.2823 C.ar    1  UNL1       -0.0039
     22 C         -25.4791    2.7058   25.9278 C.ar    1  UNL1       -0.0003
     23 C         -26.9118    3.4289   30.0827 C.ar    1  UNL1        0.0002
     24 C         -26.6234    2.9623   31.2987 C.ar    1  UNL1        0.0033
     25 C         -25.4679    3.3821   31.9395 C.ar    1  UNL1        0.0420
     26 C         -26.0300    4.4475   29.5873 C.ar    1  UNL1        0.0033
     27 C         -25.0535    5.0573   30.3634 C.ar    1  UNL1        0.0420
     28 C         -24.7301    4.4854   31.5524 C.ar    1  UNL1        0.1957
     29 O         -23.7215    4.9420   32.2784 O.3     1  UNL1       -0.2866
     30 C         -32.0158    0.3332   29.0017 C.ar    1  UNL1        0.0584
     31 C         -32.9180   -0.1359   29.7259 C.ar    1  UNL1        0.0152
     32 C         -34.2550    0.0112   29.4624 C.ar    1  UNL1        0.0013
     33 C         -34.5917    0.7125   28.2934 C.ar    1  UNL1        0.0001
     34 C         -33.6638    1.2068   27.4580 C.ar    1  UNL1        0.0013
     35 C         -32.3578    1.0778   27.7917 C.ar    1  UNL1        0.0152
@<TRIPOS>BOND
     1     2     7    1
     2     7     8    2
     3     7     9   am
     4     9    10    1
     5     3    16    1
     6    16    17    1
     7    14    23    1
     8    28    29    1
     9     9    30    1
    10    17    18   ar
    11    18    19   ar
    12    19    20   ar
    13    20    22   ar
    14    22    21   ar
    15    21    17   ar
    16    23    24   ar
    17    24    25   ar
    18    25    28   ar
    19    28    27   ar
    20    27    26   ar
    21    26    23   ar
    22    30    31   ar
    23    31    32   ar
    24    32    33   ar
    25    33    34   ar
    26    34    35   ar
    27    35    30   ar
    28    10    11   ar
    29    11    12   ar
    30    12    13   ar
    31    13    14   ar
    32    14    15   ar
    33    15    10   ar
    34     1     2   ar
    35     2     5   ar
    36     5     6   ar
    37     6     4   ar
    38     4     3   ar
    39     3     1   ar
