@<TRIPOS>MOLECULE
No_3823-gen_results/8p0m/2024-11-26-14-13-15/
 17 19 0 0 0
SMALL
GASTEIGER

@<TRIPOS>ATOM
      1 C         -28.0162   -0.8135   28.8779 C.ar    1  UNL1       -0.0043
      2 C         -28.4690   -0.7850   29.8287 C.ar    1  UNL1       -0.0003
      3 C         -28.1816    0.4277   28.1134 C.ar    1  UNL1       -0.0222
      4 C         -28.9841    1.4155   28.5154 C.ar    1  UNL1       -0.0043
      5 C         -29.3802    0.1384   30.4612 C.ar    1  UNL1       -0.0000
      6 C         -29.5415    1.2736   29.7242 C.ar    1  UNL1       -0.0003
      7 C         -27.5429    0.6374   26.7442 C.3     1  UNL1        0.0263
      8 C         -26.1537    0.5302   26.7496 C.3     1  UNL1        0.0258
      9 C         -25.3229    1.4531   27.3080 C.2     1  UNL1       -0.0496
     10 C         -23.9306    1.2456   27.4851 C.2     1  UNL1       -0.0220
     11 C         -23.0404    2.3160   27.6019 C.3     1  UNL1        0.1471
     12 N         -21.7389    1.9178   27.8131 N.2     1  UNL1       -0.2687
     13 C         -27.9727    1.7861   26.0919 C.3     1  UNL1        0.0050
     14 C         -21.7354    0.5617   28.1846 C.2     1  UNL1        0.0715
     15 C         -23.1050    0.2193   28.0071 C.3     1  UNL1        0.0698
     16 C         -25.8409    2.7985   27.5460 C.3     1  UNL1        0.0215
     17 C         -27.2930    3.0001   26.7691 C.3     1  UNL1        0.0047
@<TRIPOS>BOND
     1     3     7    1
     2     7     8    1
     3     8     9    1
     4     9    10    2
     5    10    11    1
     6    11    12    1
     7     7    13    1
     8    12    14    2
     9    10    15    1
    10    14    15    1
    11     9    16    1
    12    13    17    1
    13    16    17    1
    14     1     2   ar
    15     2     5   ar
    16     5     6   ar
    17     6     4   ar
    18     4     3   ar
    19     3     1   ar
