@<TRIPOS>MOLECULE
No_3826-gen_results/8p0m/2024-11-26-14-13-15/
 10 10 0 0 0
SMALL
GASTEIGER

@<TRIPOS>ATOM
      1 O         -28.1229   -1.3353   28.4874 O.2     1  UNL1       -0.2623
      2 C         -28.5208   -0.4363   29.0779 C.2     1  UNL1        0.2844
      3 BR        -29.9664    0.3062   29.2138 Br      1  UNL1        0.0146
      4 N         -27.5567   -0.0058   30.0974 N.am    1  UNL1       -0.2588
      5 C         -27.5604    1.0875   30.8665 C.3     1  UNL1        0.0953
      6 C         -26.8175    1.0230   31.8778 C.3     1  UNL1        0.0217
      7 C         -25.6065    0.1764   32.0419 C.3     1  UNL1        0.0048
      8 C         -25.5689   -0.8410   31.0891 C.3     1  UNL1        0.0369
      9 C         -26.5220   -1.0122   30.2070 C.3     1  UNL1        0.1563
     10 CL        -26.5031   -2.2995   29.1516 Cl      1  UNL1       -0.0927
@<TRIPOS>BOND
     1     1     2    2
     2     2     3    1
     3     2     4   am
     4     4     5    1
     5     6     7    1
     6     4     9    1
     7     8     9    1
     8     9    10    1
     9     5     6    1
    10     7     8    1
