@<TRIPOS>MOLECULE
No_3828-gen_results/8p0m/2024-11-26-14-13-15/
 11 11 0 0 0
SMALL
GASTEIGER

@<TRIPOS>ATOM
      1 F         -28.0727   -1.2542   28.5316 F       1  UNL1       -0.1697
      2 C         -27.3591   -0.3792   28.7224 C.3     1  UNL1        0.4017
      3 F         -26.3180   -0.6608   29.1159 F       1  UNL1       -0.1697
      4 C         -27.2545    0.4794   27.4896 C.3     1  UNL1        0.1297
      5 F         -27.9307    0.4754   29.6895 F       1  UNL1       -0.1697
      6 C         -25.9910    0.8564   27.1683 C.ar    1  UNL1       -0.0137
      7 C         -25.6253    1.6144   26.0213 C.ar    1  UNL1       -0.0040
      8 C         -24.2285    1.9862   25.8074 C.ar    1  UNL1       -0.0003
      9 C         -23.2282    1.5927   26.7771 C.ar    1  UNL1       -0.0000
     10 C         -23.6199    0.8422   27.9144 C.ar    1  UNL1       -0.0003
     11 C         -24.9170    0.4961   28.0626 C.ar    1  UNL1       -0.0040
@<TRIPOS>BOND
     1     1     2    1
     2     2     3    1
     3     2     4    1
     4     2     5    1
     5     4     6    1
     6     6     7   ar
     7     7     8   ar
     8     8     9   ar
     9     9    10   ar
    10    10    11   ar
    11    11     6   ar
