@<TRIPOS>MOLECULE
No_3831-gen_results/8p0m/2024-11-26-14-13-15/
 30 33 0 0 0
SMALL
GASTEIGER

@<TRIPOS>ATOM
      1 C         -28.0162   -0.8135   28.8779 C.ar    1  UNL1        0.0044
      2 C         -28.4690   -0.7850   29.8287 C.ar    1  UNL1        0.0272
      3 C         -27.1356    0.2359   28.5352 C.ar    1  UNL1        0.0537
      4 C         -26.8745    1.2825   29.3982 C.ar    1  UNL1        0.0045
      5 C         -27.5070    1.2380   30.6295 C.ar    1  UNL1       -0.0000
      6 C         -28.3293    0.1745   30.9350 C.ar    1  UNL1       -0.0001
      7 C         -26.4077    0.3070   27.2259 C.2     1  UNL1        0.2527
      8 N         -26.8825    0.5866   26.2352 N.am    1  UNL1       -0.2535
      9 O         -25.1906   -0.3624   27.2006 O.2     1  UNL1       -0.2696
     10 C         -26.2498    0.4650   24.8941 C.3     1  UNL1        0.1203
     11 C         -28.2005    1.2730   26.0563 C.ar    1  UNL1        0.0560
     12 C         -28.0557    2.5103   25.8826 C.ar    1  UNL1        0.0148
     13 C         -29.3308    0.5506   25.9275 C.ar    1  UNL1        0.0609
     14 C         -30.5376    1.1763   25.8306 C.ar    1  UNL1        0.0030
     15 C         -29.3371    3.2862   25.7065 C.ar    1  UNL1        0.0013
     16 C         -30.5297    2.6074   25.6797 C.ar    1  UNL1       -0.0000
     17 C         -29.4103   -2.0000   30.3295 C.3     1  UNL1        0.2514
     18 O         -29.1123   -3.0187   30.2070 O.3     1  UNL1       -0.1956
     19 N         -30.8160   -1.7037   30.3691 N.pl3   1  UNL1       -0.2761
     20 C         -31.7215   -2.7720   30.6087 C.3     1  UNL1        0.1149
     21 C         -31.3402   -0.6460   29.5696 C.ar    1  UNL1        0.0844
     22 C         -32.5853   -0.0865   30.1634 C.ar    1  UNL1        0.0177
     23 C         -32.4952    0.8814   30.9109 C.ar    1  UNL1        0.0015
     24 C         -31.6132    1.9017   30.5924 C.ar    1  UNL1        0.0032
     25 C         -30.8505    1.8160   29.4110 C.ar    1  UNL1        0.0383
     26 C         -30.3954    0.6168   29.5678 C.ar    1  UNL1        0.1549
     27 O         -29.4317    0.4696   29.2537 O.3     1  UNL1       -0.4478
     28 C         -29.5107    0.3841   27.8051 C.3     1  UNL1        0.3139
     29 O         -30.8406   -0.2077   27.7846 O.3     1  UNL1       -0.3144
     30 C         -31.6820   -0.9904   27.0933 C.3     1  UNL1        0.1783
@<TRIPOS>BOND
     1     3     7    1
     2     7     8   am
     3     7     9    2
     4     8    10    1
     5     8    11    1
     6     2    17    1
     7    17    18    1
     8    17    19    1
     9    19    20    1
    10    19    21    1
    11    26    27    1
    12    13    28    1
    13    27    28    1
    14    28    29    1
    15    29    30    1
    16    11    12   ar
    17    12    15   ar
    18    15    16   ar
    19    16    14   ar
    20    14    13   ar
    21    13    11   ar
    22     1     2   ar
    23     2     6   ar
    24     6     5   ar
    25     5     4   ar
    26     4     3   ar
    27     3     1   ar
    28    21    22   ar
    29    22    23   ar
    30    23    24   ar
    31    24    25   ar
    32    25    26   ar
    33    26    21   ar
