@<TRIPOS>MOLECULE
No_3832-gen_results/8p0m/2024-11-26-14-13-15/
 17 18 0 0 0
SMALL
GASTEIGER

@<TRIPOS>ATOM
      1 C         -28.0162   -0.8135   28.8779 C.ar    1  UNL1        0.0114
      2 C         -27.0636   -0.1189   28.6079 C.ar    1  UNL1        0.0009
      3 C         -25.7647   -0.3897   29.0360 C.ar    1  UNL1        0.0000
      4 C         -25.5296   -1.5302   29.9014 C.ar    1  UNL1        0.0009
      5 C         -26.6888   -2.2893   30.1810 C.ar    1  UNL1        0.0114
      6 C         -27.8727   -1.9508   29.7373 C.ar    1  UNL1        0.0577
      7 C         -24.5491    0.4100   28.7341 C.ar    1  UNL1        0.0039
      8 C         -24.0931    1.3779   29.5761 C.ar    1  UNL1        0.0714
      9 C         -22.9754    2.1437   29.2395 C.ar    1  UNL1        0.0039
     10 C         -22.2571    1.9096   28.0218 C.ar    1  UNL1       -0.0001
     11 C         -23.6567    0.4472   27.6688 C.ar    1  UNL1       -0.0001
     12 C         -22.6846    1.0110   27.2583 C.ar    1  UNL1       -0.0000
     13 CL        -29.2196   -2.9083   30.2119 Cl      1  UNL1       -0.0822
     14 C         -24.7591    1.6422   30.9165 C.3     1  UNL1        0.4186
     15 F         -24.6421    2.9021   31.3157 F       1  UNL1       -0.1659
     16 F         -24.1597    0.8330   31.8851 F       1  UNL1       -0.1659
     17 F         -26.0607    1.4446   30.8500 F       1  UNL1       -0.1659
@<TRIPOS>BOND
     1     3     7    1
     2     6    13    1
     3     8    14    1
     4    14    15    1
     5    14    16    1
     6    14    17    1
     7     7     8   ar
     8     8     9   ar
     9     9    10   ar
    10    10    12   ar
    11    12    11   ar
    12    11     7   ar
    13     1     2   ar
    14     2     3   ar
    15     3     4   ar
    16     4     5   ar
    17     5     6   ar
    18     6     1   ar
