@<TRIPOS>MOLECULE
No_3833-gen_results/8p0m/2024-11-26-14-13-15/
 35 38 0 0 0
SMALL
GASTEIGER

@<TRIPOS>ATOM
      1 C         -28.0162   -0.8135   28.8779 C.ar    1  UNL1        0.0045
      2 C         -27.0636   -0.1190   28.6079 C.ar    1  UNL1        0.0047
      3 C         -27.0010    0.6913   27.4910 C.ar    1  UNL1        0.0715
      4 C         -25.8548    1.4825   27.0830 C.ar    1  UNL1        0.0067
      5 C         -24.6901    1.4526   27.8807 C.ar    1  UNL1        0.0347
      6 C         -24.7379    0.6010   29.0416 C.ar    1  UNL1        0.0035
      7 C         -25.8234   -0.1688   29.3887 C.ar    1  UNL1        0.0097
      8 C         -28.0376   -1.5350   30.2052 C.ar    1  UNL1        0.0546
      9 C         -26.8472   -1.6620   30.9516 C.ar    1  UNL1        0.0148
     10 C         -25.7454   -0.9236   30.5912 C.ar    1  UNL1        0.0686
     11 C         -23.5008    2.2313   27.5415 C.2     1  UNL1        0.1735
     12 C         -22.7496    1.6936   26.3771 C.3     1  UNL1        0.0773
     13 C         -28.1033    0.7873   26.5236 C.3     1  UNL1        0.4186
     14 F         -27.8199    0.6672   25.3226 F       1  UNL1       -0.1659
     15 F         -28.7720    1.9601   26.7739 F       1  UNL1       -0.1659
     16 F         -29.0602   -0.1364   26.7469 F       1  UNL1       -0.1659
     17 C         -29.2293   -2.3524   30.5945 C.2     1  UNL1        0.2528
     18 O         -30.0693   -1.9186   31.1249 O.2     1  UNL1       -0.2696
     19 N         -29.0813   -3.6812   30.2554 N.am    1  UNL1       -0.2534
     20 C         -30.1465   -4.6191   30.5267 C.ar    1  UNL1        0.0542
     21 C         -27.8707   -4.3411   29.7558 C.3     1  UNL1        0.1203
     22 C         -30.1828   -5.3439   31.5285 C.ar    1  UNL1        0.0149
     23 C         -31.1787   -6.3580   31.7531 C.ar    1  UNL1        0.0013
     24 C         -32.1562   -6.4850   30.7716 C.ar    1  UNL1        0.0001
     25 C         -31.0711   -4.7450   29.4873 C.ar    1  UNL1        0.0149
     26 C         -32.0302   -5.6686   29.6033 C.ar    1  UNL1        0.0012
     27 O         -23.1779    3.2166   28.2516 O.2     1  UNL1       -0.2913
     28 C         -33.0611   -5.8399   28.5462 C.ar    1  UNL1        0.0000
     29 C         -33.8572   -5.1588   28.2312 C.ar    1  UNL1        0.0000
     30 C         -32.8015   -7.0980   27.7030 C.ar    1  UNL1        0.0000
     31 C         -34.7848   -5.2859   27.1276 C.ar    1  UNL1        0.0000
     32 C         -33.6508   -7.2886   26.6017 C.ar    1  UNL1        0.0000
     33 C         -34.6096   -6.3879   26.3025 C.ar    1  UNL1        0.0000
     34 C         -24.5320   -0.9733   31.3945 C.1     1  UNL1        0.1004
     35 N         -24.1394   -0.6050   32.4452 N.1     1  UNL1       -0.1908
@<TRIPOS>BOND
     1     5    11    1
     2    11    12    1
     3     3    13    1
     4    13    14    1
     5    13    15    1
     6    13    16    1
     7     8    17    1
     8    17    18    2
     9    17    19   am
    10    19    20    1
    11    19    21    1
    12    11    27    2
    13    26    28    1
    14    10    34    1
    15    34    35    3
    16    20    22   ar
    17    22    23   ar
    18    23    24   ar
    19    24    26   ar
    20    26    25   ar
    21    25    20   ar
    22     2     3   ar
    23     3     4   ar
    24     4     5   ar
    25     5     6   ar
    26     6     7   ar
    27     1     2   ar
    28     2     7   ar
    29     7    10   ar
    30    10     9   ar
    31     9     8   ar
    32     8     1   ar
    33    28    29   ar
    34    29    31   ar
    35    31    33   ar
    36    33    32   ar
    37    32    30   ar
    38    30    28   ar
