@<TRIPOS>MOLECULE
No_3835-gen_results/8p0m/2024-11-26-14-13-15/
 9 9 0 0 0
SMALL
GASTEIGER

@<TRIPOS>ATOM
      1 C         -28.0162   -0.8135   28.8779 C.ar    1  UNL1       -0.0003
      2 C         -28.4690   -0.7850   29.8287 C.2     1  UNL1       -0.0046
      3 C         -26.5042   -0.7777   28.8766 C.ar    1  UNL1       -0.0000
      4 C         -25.6540   -0.6597   27.7191 C.ar    1  UNL1       -0.0000
      5 C         -29.9920   -0.8134   29.9579 C.2     1  UNL1       -0.0258
      6 C         -26.1232   -0.1174   26.5796 C.ar    1  UNL1       -0.0000
      7 C         -27.4869    0.2318   26.5236 C.ar    1  UNL1       -0.0000
      8 C         -28.2249    0.0063   27.6335 C.ar    1  UNL1       -0.0000
      9 C         -30.7354   -1.1327   31.1027 C.3     1  UNL1        0.0307
@<TRIPOS>BOND
     1     1     2    1
     2     2     5    2
     3     5     9    1
     4     1     3   ar
     5     3     4   ar
     6     4     6   ar
     7     6     7   ar
     8     7     8   ar
     9     8     1   ar
