@<TRIPOS>MOLECULE
No_3836-gen_results/8p0m/2024-11-26-14-13-15/
 20 21 0 0 0
SMALL
GASTEIGER

@<TRIPOS>ATOM
      1 C         -28.0162   -0.8135   28.8779 C.3     1  UNL1        0.1418
      2 C         -27.0636   -0.1189   28.6079 C.ar    1  UNL1       -0.0006
      3 C         -27.0010    0.6913   27.4910 C.ar    1  UNL1       -0.0026
      4 C         -25.8548    1.4825   27.0830 C.ar    1  UNL1        0.0036
      5 C         -24.6901    1.4526   27.8807 C.ar    1  UNL1        0.0714
      6 C         -24.7379    0.6010   29.0416 C.ar    1  UNL1        0.0036
      7 C         -25.8234   -0.1688   29.3887 C.ar    1  UNL1       -0.0026
      8 N         -28.7568   -0.5479   30.0191 N.am    1  UNL1       -0.1968
      9 C         -29.7597   -1.3260   30.5171 C.2     1  UNL1        0.2651
     10 C         -30.2314   -2.2937   29.8869 C.ar    1  UNL1        0.0551
     11 C         -31.4006   -2.6851   29.8625 C.ar    1  UNL1        0.0046
     12 C         -31.8665   -3.8465   29.0951 C.ar    1  UNL1        0.0001
     13 C         -30.9822   -4.9383   29.0122 C.ar    1  UNL1        0.0000
     14 C         -29.6151   -4.7160   29.4389 C.ar    1  UNL1        0.0001
     15 C         -29.2194   -3.4953   29.9766 C.ar    1  UNL1        0.0046
     16 O         -30.3356   -0.7798   31.5511 O.2     1  UNL1       -0.2684
     17 C         -23.5166    2.1948   27.5436 C.3     1  UNL1        0.4186
     18 F         -23.5906    2.9364   26.6224 F       1  UNL1       -0.1659
     19 F         -22.4341    1.3066   27.2171 F       1  UNL1       -0.1659
     20 F         -23.0324    2.8629   28.6803 F       1  UNL1       -0.1659
@<TRIPOS>BOND
     1     1     2    1
     2     1     8    1
     3     8     9   am
     4     9    10    1
     5     9    16    2
     6     5    17    1
     7    17    18    1
     8    17    19    1
     9    17    20    1
    10     2     3   ar
    11     3     4   ar
    12     4     5   ar
    13     5     6   ar
    14     6     7   ar
    15     7     2   ar
    16    10    11   ar
    17    11    12   ar
    18    12    13   ar
    19    13    14   ar
    20    14    15   ar
    21    15    10   ar
