@<TRIPOS>MOLECULE
No_3838-gen_results/8p0m/2024-11-26-14-13-15/
 18 18 0 0 0
SMALL
GASTEIGER

@<TRIPOS>ATOM
      1 C         -28.0162   -0.8135   28.8779 C.ar    1  UNL1       -0.0065
      2 C         -28.4690   -0.7850   29.8287 C.ar    1  UNL1       -0.0010
      3 C         -26.5042   -0.7777   28.8766 C.ar    1  UNL1       -0.0181
      4 C         -25.6540   -0.6597   27.7191 C.3     1  UNL1        0.0520
      5 C         -27.9180   -0.9374   31.1824 C.ar    1  UNL1       -0.0026
      6 C         -26.5423   -0.9399   31.2606 C.ar    1  UNL1       -0.0006
      7 C         -25.7832   -0.8935   30.1201 C.ar    1  UNL1       -0.0040
      8 C         -25.9259    0.2819   26.7445 C.2     1  UNL1       -0.0257
      9 C         -24.9904    0.6776   25.8676 C.2     1  UNL1       -0.0217
     10 C         -24.1885    1.6080   25.8479 C.3     1  UNL1        0.1290
     11 C         -24.1204    2.5824   26.9652 C.3     1  UNL1        0.4017
     12 F         -23.4494    3.3739   26.9136 F       1  UNL1       -0.1697
     13 F         -23.7252    1.7839   28.1058 F       1  UNL1       -0.1697
     14 F         -25.4047    2.9878   27.2020 F       1  UNL1       -0.1697
     15 C         -30.0600   -0.7337   29.8704 C.3     1  UNL1        0.1386
     16 N         -30.6473    0.3652   30.2424 N.pl3   1  UNL1       -0.2315
     17 C         -31.7718    0.6566   30.1762 C.2     1  UNL1        0.0805
     18 C         -32.2950    1.9642   30.5730 C.2     1  UNL1        0.0188
@<TRIPOS>BOND
     1     3     4    1
     2     4     8    1
     3     8     9    2
     4     9    10    1
     5    10    11    1
     6    11    12    1
     7    11    13    1
     8    11    14    1
     9     2    15    1
    10    15    16    1
    11    16    17    1
    12    17    18    2
    13     1     2   ar
    14     2     5   ar
    15     5     6   ar
    16     6     7   ar
    17     7     3   ar
    18     3     1   ar
