@<TRIPOS>MOLECULE
No_3839-gen_results/8p0m/2024-11-26-14-13-15/
 17 19 0 0 0
SMALL
GASTEIGER

@<TRIPOS>ATOM
      1 C         -28.0162   -0.8135   28.8779 C.ar    1  UNL1       -0.0000
      2 C         -27.0636   -0.1189   28.6079 C.ar    1  UNL1       -0.0003
      3 C         -26.9716    0.7139   27.5060 C.ar    1  UNL1       -0.0034
      4 C         -28.1053    0.7744   26.6421 C.ar    1  UNL1       -0.0003
      5 C         -29.2041    0.1179   27.0477 C.ar    1  UNL1       -0.0000
      6 C         -29.2127   -0.6088   28.1281 C.ar    1  UNL1       -0.0000
      7 C         -25.7106    1.4519   27.1380 C.2     1  UNL1       -0.0143
      8 C         -25.3772    2.0455   26.1737 C.2     1  UNL1       -0.0039
      9 C         -24.0750    2.7193   25.9782 C.2     1  UNL1       -0.0042
     10 C         -23.1297    2.3728   26.9226 C.2     1  UNL1       -0.0177
     11 C         -24.2225    1.2888   27.9349 C.3     1  UNL1        0.0664
     12 C         -23.7647    0.6299   28.9640 C.ar    1  UNL1       -0.0143
     13 C         -23.7964    1.1449   30.1873 C.ar    1  UNL1       -0.0036
     14 C         -23.3037   -0.6960   28.7536 C.ar    1  UNL1       -0.0036
     15 C         -22.9730   -1.5302   29.8438 C.ar    1  UNL1       -0.0003
     16 C         -23.4799    0.3762   31.3482 C.ar    1  UNL1       -0.0003
     17 C         -23.0559   -0.9837   31.1422 C.ar    1  UNL1       -0.0000
@<TRIPOS>BOND
     1     3     7    1
     2     7     8    2
     3     8     9    1
     4     9    10    2
     5     7    11    1
     6    10    11    1
     7    11    12    1
     8     1     2   ar
     9     2     3   ar
    10     3     4   ar
    11     4     5   ar
    12     5     6   ar
    13     6     1   ar
    14    12    13   ar
    15    13    16   ar
    16    16    17   ar
    17    17    15   ar
    18    15    14   ar
    19    14    12   ar
