@<TRIPOS>MOLECULE
No_3840-gen_results/8p0m/2024-11-26-14-13-15/
 19 19 0 0 0
SMALL
GASTEIGER

@<TRIPOS>ATOM
      1 C         -28.0162   -0.8135   28.8779 C.3     1  UNL1        0.1420
      2 C         -27.0636   -0.1190   28.6079 C.ar    1  UNL1       -0.0004
      3 C         -26.9287    1.1713   29.0083 C.ar    1  UNL1        0.0012
      4 C         -25.7702    2.0341   28.6884 C.ar    1  UNL1        0.0471
      5 C         -24.7141    1.4431   27.9188 C.ar    1  UNL1       -0.0035
      6 C         -24.8590    0.0783   27.5836 C.ar    1  UNL1       -0.0032
      7 C         -25.9647   -0.6606   27.9164 C.ar    1  UNL1       -0.0028
      8 N         -28.6995   -0.6441   30.0766 N.am    1  UNL1       -0.1912
      9 C         -29.8035   -1.3645   30.5061 C.2     1  UNL1        0.3452
     10 C         -30.3751   -2.1790   29.7448 C.2     1  UNL1        0.4419
     11 O         -31.3013   -1.8341   29.0537 O.co2   1  UNL1       -0.2354
     12 C         -23.5331    2.1744   27.5692 C.3     1  UNL1        0.1022
     13 CL        -22.4912    2.0267   27.7505 Cl      1  UNL1       -0.1102
     14 C         -24.0512    3.1789   26.4563 C.3     1  UNL1        0.0223
     15 O         -30.0949   -3.4684   29.8250 O.co2   1  UNL1       -0.2354
     16 O         -30.1165   -1.1621   31.7890 O.2     1  UNL1       -0.2611
     17 C         -25.7117    3.4351   29.0270 C.2     1  UNL1        0.2533
     18 O         -25.3561    3.7230   30.1271 O.2     1  UNL1       -0.2740
     19 CL        -26.2743    4.6283   27.9372 Cl      1  UNL1       -0.0383
@<TRIPOS>BOND
     1     1     2    1
     2     1     8    1
     3     8     9   am
     4     9    10    1
     5    10    11   ar
     6     5    12    1
     7    12    13    1
     8    12    14    1
     9    10    15   ar
    10     9    16    2
    11     4    17    1
    12    17    18    2
    13    17    19    1
    14     2     3   ar
    15     3     4   ar
    16     4     5   ar
    17     5     6   ar
    18     6     7   ar
    19     7     2   ar
