@<TRIPOS>MOLECULE
No_3841-gen_results/8p0m/2024-11-26-14-13-15/
 14 15 0 0 0
SMALL
GASTEIGER

@<TRIPOS>ATOM
      1 F         -28.0727   -1.2542   28.5316 F       1  UNL1       -0.2293
      2 C         -27.0607   -0.6291   28.8721 C.3     1  UNL1        0.2179
      3 C         -26.1528   -1.1557   29.4537 C.3     1  UNL1        0.0430
      4 C         -24.8778   -0.5788   29.8639 C.3     1  UNL1        0.0040
      5 C         -24.7426    0.8273   29.4808 C.3     1  UNL1        0.0119
      6 C         -25.7883    1.3927   28.7628 C.3     1  UNL1        0.0826
      7 C         -26.9145    0.7309   28.4427 C.2     1  UNL1        0.1865
      8 C         -25.5328    2.8344   28.3724 C.ar    1  UNL1       -0.0154
      9 C         -26.1310    3.5088   27.4212 C.ar    1  UNL1       -0.0039
     10 C         -25.7860    4.8560   27.0763 C.ar    1  UNL1       -0.0003
     11 C         -24.8377    5.5320   27.7111 C.ar    1  UNL1       -0.0000
     12 C         -24.2042    4.8830   28.7740 C.ar    1  UNL1       -0.0003
     13 C         -24.5189    3.5415   29.1081 C.ar    1  UNL1       -0.0039
     14 O         -27.8612    1.2733   27.7194 O.2     1  UNL1       -0.2929
@<TRIPOS>BOND
     1     1     2    1
     2     3     4    1
     3     5     6    1
     4     2     7    1
     5     6     7    1
     6     6     8    1
     7     7    14    2
     8     2     3    1
     9     4     5    1
    10     8     9   ar
    11     9    10   ar
    12    10    11   ar
    13    11    12   ar
    14    12    13   ar
    15    13     8   ar
