@<TRIPOS>MOLECULE
No_3844-gen_results/8p0m/2024-11-26-14-13-15/
 30 32 0 0 0
SMALL
GASTEIGER

@<TRIPOS>ATOM
      1 C         -28.0162   -0.8135   28.8779 C.ar    1  UNL1        0.0373
      2 C         -27.0636   -0.1189   28.6079 C.ar    1  UNL1        0.0093
      3 C         -25.7923   -0.4302   29.0761 C.ar    1  UNL1        0.0006
      4 C         -25.5314   -1.5875   29.6105 C.ar    1  UNL1        0.0031
      5 C         -26.6366   -2.4336   29.9654 C.ar    1  UNL1        0.0371
      6 C         -27.8411   -2.0285   29.6196 C.ar    1  UNL1        0.1443
      7 C         -26.9564    1.2066   27.8319 C.ar    1  UNL1        0.0763
      8 C         -25.9832    1.7188   27.4112 C.ar    1  UNL1        0.0130
      9 C         -24.6221    1.3104   27.9309 C.ar    1  UNL1        0.0800
     10 C         -24.4477    0.5058   28.7021 C.ar    1  UNL1        0.0066
     11 C         -23.5818    2.3934   27.6017 C.2     1  UNL1        0.3878
     12 O         -23.6053    3.0746   26.5256 O.co2   1  UNL1       -0.2406
     13 O         -22.3869    2.2677   28.1786 O.co2   1  UNL1       -0.2406
     14 O         -28.8982   -2.8202   29.9920 O.3     1  UNL1       -0.4243
     15 C         -29.3023   -2.8265   31.3164 C.3     1  UNL1        0.4999
     16 C         -29.8250   -4.0921   31.6939 C.3     1  UNL1        0.4968
     17 F         -29.3913   -5.0988   31.1840 F       1  UNL1       -0.1619
     18 F         -31.1728   -4.2013   31.7568 F       1  UNL1       -0.1619
     19 F         -29.4239   -4.6751   32.9094 F       1  UNL1       -0.1619
     20 F         -30.1128   -1.7929   31.5810 F       1  UNL1       -0.1557
     21 C         -28.3750    1.5798   27.2799 C.2     1  UNL1        0.3457
     22 O         -29.0932    2.1367   27.9007 O.2     1  UNL1       -0.2445
     23 O         -28.4115    1.4445   25.9605 O.3     1  UNL1       -0.4210
     24 C         -29.5201    0.9055   25.3605 C.ar    1  UNL1        0.1488
     25 C         -30.3775    0.6695   25.8312 C.ar    1  UNL1        0.0376
     26 C         -31.5077   -0.1588   25.2165 C.ar    1  UNL1        0.0031
     27 C         -31.2936   -0.4457   23.8609 C.ar    1  UNL1        0.0002
     28 C         -29.1901    0.4752   23.9732 C.ar    1  UNL1        0.0376
     29 C         -30.1166   -0.2066   23.2929 C.ar    1  UNL1        0.0031
     30 F         -28.2018   -2.5714   32.1699 F       1  UNL1       -0.1557
@<TRIPOS>BOND
     1     9    11    1
     2    11    12   ar
     3    11    13   ar
     4     6    14    1
     5    14    15    1
     6    15    16    1
     7    16    17    1
     8    16    18    1
     9    16    19    1
    10    15    20    1
    11     7    21    1
    12    21    22    2
    13    21    23    1
    14    23    24    1
    15    15    30    1
    16     1     2   ar
    17     3     4   ar
    18     4     5   ar
    19     5     6   ar
    20     6     1   ar
    21     2     3   ar
    22     3    10   ar
    23    10     9   ar
    24     9     8   ar
    25     8     7   ar
    26     7     2   ar
    27    24    25   ar
    28    25    26   ar
    29    26    27   ar
    30    27    29   ar
    31    29    28   ar
    32    28    24   ar
