@<TRIPOS>MOLECULE
No_3845-gen_results/8p0m/2024-11-26-14-13-15/
 23 24 0 0 0
SMALL
GASTEIGER

@<TRIPOS>ATOM
      1 C         -28.0162   -0.8135   28.8779 C.ar    1  UNL1        0.0369
      2 C         -27.0636   -0.1189   28.6079 C.ar    1  UNL1        0.0027
      3 C         -25.7647   -0.3897   29.0360 C.ar    1  UNL1       -0.0041
      4 C         -25.5296   -1.5302   29.9014 C.ar    1  UNL1       -0.0192
      5 C         -24.2910   -1.8751   30.3797 C.3     1  UNL1        0.0264
      6 C         -27.9084   -1.9224   29.8277 C.ar    1  UNL1        0.1382
      7 C         -26.6512   -2.2902   30.3071 C.ar    1  UNL1        0.0326
      8 C         -23.6310   -0.8510   31.1806 C.3     1  UNL1        0.0044
      9 C         -27.1352    1.1006   27.7400 C.ar    1  UNL1        0.0001
     10 C         -26.5285    2.0661   27.6541 C.ar    1  UNL1        0.0000
     11 C         -26.6208    3.1709   26.7182 C.ar    1  UNL1        0.0000
     12 C         -27.5402    3.0167   25.6822 C.ar    1  UNL1        0.0000
     13 C         -28.1259    0.9575   26.5696 C.ar    1  UNL1        0.0000
     14 C         -28.2516    1.9283   25.6489 C.ar    1  UNL1        0.0000
     15 C         -22.5064   -0.1668   30.6521 C.3     1  UNL1        0.0003
     16 C         -24.1620   -0.5080   32.5043 C.3     1  UNL1        0.0003
     17 O         -29.0075   -2.6118   30.1866 O.3     1  UNL1       -0.4754
     18 C         -29.3215   -2.8034   31.5203 C.3     1  UNL1        0.2072
     19 C         -29.7082   -4.0933   31.8503 C.3     1  UNL1        0.0707
     20 C         -29.7680   -4.9991   30.8311 C.3     1  UNL1        0.1195
     21 N         -30.9320   -4.9958   30.1806 N.am    1  UNL1       -0.1976
     22 C         -31.3382   -4.3246   29.4872 C.2     1  UNL1        0.3201
     23 O         -32.3394   -4.6311   28.7230 O.2     1  UNL1       -0.2633
@<TRIPOS>BOND
     1     4     5    1
     2     5     8    1
     3     2     9    1
     4     8    15    1
     5     8    16    1
     6     6    17    1
     7    17    18    1
     8    18    19    1
     9    19    20    1
    10    20    21    1
    11    21    22   am
    12    22    23    2
    13     9    10   ar
    14    10    11   ar
    15    11    12   ar
    16    12    14   ar
    17    14    13   ar
    18    13     9   ar
    19     1     2   ar
    20     2     3   ar
    21     3     4   ar
    22     4     7   ar
    23     7     6   ar
    24     6     1   ar
