@<TRIPOS>MOLECULE
No_3846-gen_results/8p0m/2024-11-26-14-13-15/
 11 11 0 0 0
SMALL
GASTEIGER

@<TRIPOS>ATOM
      1 C         -28.0162   -0.8135   28.8779 C.2     1  UNL1        0.0161
      2 C         -27.0636   -0.1190   28.6079 C.2     1  UNL1        0.0985
      3 N         -25.8176   -0.3427   29.0488 N.2     1  UNL1       -0.2438
      4 C         -24.6506    0.4444   28.7649 C.ar    1  UNL1        0.0814
      5 C         -24.7153    1.3122   27.7191 C.ar    1  UNL1        0.0191
      6 C         -23.6123    2.0895   27.3593 C.ar    1  UNL1        0.0015
      7 C         -22.3656    1.7793   27.9567 C.ar    1  UNL1        0.0001
      8 C         -22.2742    0.8511   28.9741 C.ar    1  UNL1        0.0015
      9 C         -23.4448    0.1138   29.3645 C.ar    1  UNL1        0.0191
     10 C         -27.8128   -1.8074   29.9704 C.2     1  UNL1       -0.0242
     11 C         -26.5854   -2.1829   30.3933 C.3     1  UNL1        0.0307
@<TRIPOS>BOND
     1     1     2    1
     2     2     3    2
     3     3     4    1
     4     1    10    2
     5    10    11    1
     6     4     5   ar
     7     5     6   ar
     8     6     7   ar
     9     7     8   ar
    10     8     9   ar
    11     9     4   ar
