@<TRIPOS>MOLECULE
No_3847-gen_results/8p0m/2024-11-26-14-13-15/
 12 12 0 0 0
SMALL
GASTEIGER

@<TRIPOS>ATOM
      1 C         -28.0162   -0.8135   28.8779 C.3     1  UNL1        0.0468
      2 C         -27.0636   -0.1190   28.6079 C.ar    1  UNL1       -0.0207
      3 C         -26.9716    0.7139   27.5060 C.ar    1  UNL1       -0.0040
      4 C         -25.8205    1.4909   27.1160 C.ar    1  UNL1        0.0063
      5 C         -24.6562    1.4242   27.9180 C.ar    1  UNL1        0.0798
      6 C         -24.7114    0.5419   29.0507 C.ar    1  UNL1        0.0063
      7 C         -25.8042   -0.2058   29.3881 C.ar    1  UNL1       -0.0040
      8 C         -29.2771   -0.1377   29.0363 C.3     1  UNL1        0.1140
      9 N         -30.3344   -0.9048   29.1301 N.3     1  UNL1       -0.1310
     10 C         -23.4611    2.1525   27.6193 C.2     1  UNL1        0.3878
     11 O         -22.5904    1.6696   27.2044 O.co2   1  UNL1       -0.2406
     12 O         -23.4697    3.4076   28.0569 O.co2   1  UNL1       -0.2406
@<TRIPOS>BOND
     1     1     8    1
     2     8     9    1
     3     5    10    1
     4    10    11   ar
     5    10    12   ar
     6     1     2    1
     7     2     3   ar
     8     3     4   ar
     9     4     5   ar
    10     5     6   ar
    11     6     7   ar
    12     7     2   ar
