@<TRIPOS>MOLECULE
No_3848-gen_results/8p0m/2024-11-26-14-13-15/
 10 10 0 0 0
SMALL
GASTEIGER

@<TRIPOS>ATOM
      1 C         -28.0162   -0.8135   28.8779 C.ar    1  UNL1       -0.0026
      2 C         -28.4690   -0.7850   29.8287 C.ar    1  UNL1       -0.0007
      3 C         -27.0871    0.2903   28.6377 C.ar    1  UNL1       -0.0003
      4 C         -26.0239    0.3644   29.2526 C.ar    1  UNL1       -0.0000
      5 C         -27.5370   -0.6187   31.0883 C.ar    1  UNL1       -0.0026
      6 C         -26.3844    0.1834   30.8012 C.ar    1  UNL1       -0.0003
      7 C         -29.6227   -1.6698   30.2973 C.3     1  UNL1        0.1386
      8 N         -30.7608   -1.2865   29.8258 N.pl3   1  UNL1       -0.2315
      9 C         -31.7152   -0.9951   30.4301 C.2     1  UNL1        0.0805
     10 C         -33.0011   -0.8985   29.7881 C.2     1  UNL1        0.0188
@<TRIPOS>BOND
     1     2     7    1
     2     7     8    1
     3     8     9    1
     4     9    10    2
     5     1     2   ar
     6     2     5   ar
     7     5     6   ar
     8     6     4   ar
     9     4     3   ar
    10     3     1   ar
