@<TRIPOS>MOLECULE
No_3849-gen_results/8p0m/2024-11-26-14-13-15/
 24 27 0 0 0
SMALL
GASTEIGER

@<TRIPOS>ATOM
      1 C         -28.0162   -0.8135   28.8779 C.ar    1  UNL1        0.0369
      2 C         -27.0636   -0.1190   28.6079 C.ar    1  UNL1        0.0031
      3 C         -25.7923   -0.4302   29.0761 C.ar    1  UNL1        0.0002
      4 C         -24.5456    0.3494   28.8225 C.ar    1  UNL1        0.0000
      5 C         -23.2409    0.0217   29.3323 C.ar    1  UNL1        0.0000
      6 C         -23.1926   -1.2816   29.8967 C.ar    1  UNL1        0.0000
      7 C         -27.8703   -1.9138   29.8642 C.ar    1  UNL1        0.1391
      8 C         -26.6310   -2.3256   30.2990 C.ar    1  UNL1        0.0369
      9 C         -25.5115   -1.5728   29.9655 C.ar    1  UNL1        0.0030
     10 C         -24.2124   -1.9703   30.3280 C.ar    1  UNL1        0.0001
     11 C         -24.5933    1.5941   27.9969 C.ar    1  UNL1        0.0000
     12 C         -23.6636    1.7009   26.9977 C.ar    1  UNL1        0.0000
     13 C         -25.4619    2.5872   28.3019 C.ar    1  UNL1        0.0000
     14 C         -25.6618    3.6555   27.4638 C.ar    1  UNL1        0.0000
     15 C         -23.7339    2.8226   26.1191 C.ar    1  UNL1        0.0000
     16 C         -24.6682    3.8538   26.3900 C.ar    1  UNL1        0.0000
     17 O         -29.0223   -2.5918   30.1526 O.3     1  UNL1       -0.4706
     18 C         -28.9784   -3.7573   30.7938 C.3     1  UNL1        0.2320
     19 C         -30.3152   -4.2839   31.0565 C.ar    1  UNL1        0.0212
     20 C         -30.3871   -5.5331   31.5068 C.ar    1  UNL1       -0.0007
     21 C         -31.6454   -6.1614   31.6907 C.ar    1  UNL1       -0.0002
     22 C         -32.8176   -5.4692   31.3825 C.ar    1  UNL1       -0.0000
     23 C         -32.7109   -4.2093   30.9089 C.ar    1  UNL1       -0.0002
     24 C         -31.4585   -3.5943   30.7131 C.ar    1  UNL1       -0.0007
@<TRIPOS>BOND
     1     4    11    1
     2     7    17    1
     3    17    18    1
     4    18    19    1
     5    11    12   ar
     6    12    15   ar
     7    15    16   ar
     8    16    14   ar
     9    14    13   ar
    10    13    11   ar
    11     1     2   ar
    12     2     3   ar
    13     9     8   ar
    14     8     7   ar
    15     7     1   ar
    16    19    20   ar
    17    20    21   ar
    18    21    22   ar
    19    22    23   ar
    20    23    24   ar
    21    24    19   ar
    22     3     4   ar
    23     4     5   ar
    24     5     6   ar
    25     6    10   ar
    26    10     9   ar
    27     9     3   ar
