@<TRIPOS>MOLECULE
No_385-gen_results/8p0m/2024-11-26-14-13-15/
 21 22 0 0 0
SMALL
GASTEIGER

@<TRIPOS>ATOM
      1 CL        -28.1493   -0.8198   28.9079 Cl      1  UNL1       -0.0814
      2 C         -27.8339    0.4961   29.0598 C.ar    1  UNL1        0.0721
      3 C         -27.5135    1.2383   28.0485 C.ar    1  UNL1        0.0684
      4 C         -27.0548    2.6251   28.1330 C.ar    1  UNL1        0.0187
      5 C         -26.9438    3.1838   29.4305 C.ar    1  UNL1        0.0769
      6 C         -27.2205    2.3582   30.5116 C.ar    1  UNL1        0.0112
      7 C         -27.5987    1.0586   30.3700 C.ar    1  UNL1        0.0830
      8 C         -26.4856    4.5602   29.5942 C.2     1  UNL1        0.3457
      9 O         -25.8765    4.7989   30.6005 O.3     1  UNL1       -0.4210
     10 O         -26.9602    5.4809   28.8785 O.2     1  UNL1       -0.2445
     11 CL        -27.5856    0.7352   26.4024 Cl      1  UNL1       -0.0814
     12 C         -27.8720    0.2778   31.5955 C.3     1  UNL1        0.4194
     13 F         -27.9451    1.1392   32.5123 F       1  UNL1       -0.1658
     14 F         -26.9043   -0.5872   31.7662 F       1  UNL1       -0.1658
     15 F         -29.0701   -0.2916   31.4997 F       1  UNL1       -0.1658
     16 C         -26.1320    5.8747   31.5250 C.ar    1  UNL1        0.1488
     17 C         -25.9358    5.7461   32.5651 C.ar    1  UNL1        0.0376
     18 C         -26.2087    6.8340   33.6170 C.ar    1  UNL1        0.0031
     19 C         -26.6779    8.0379   33.0972 C.ar    1  UNL1        0.0002
     20 C         -26.5226    7.0661   30.8637 C.ar    1  UNL1        0.0376
     21 C         -26.7944    8.1663   31.7383 C.ar    1  UNL1        0.0031
@<TRIPOS>BOND
     1     1     2    1
     2     5     8    1
     3     8     9    1
     4     8    10    2
     5     3    11    1
     6     7    12    1
     7    12    13    1
     8    12    14    1
     9    12    15    1
    10     9    16    1
    11     2     3   ar
    12     3     4   ar
    13     4     5   ar
    14     5     6   ar
    15     6     7   ar
    16     7     2   ar
    17    16    17   ar
    18    17    18   ar
    19    18    19   ar
    20    19    21   ar
    21    21    20   ar
    22    20    16   ar
