@<TRIPOS>MOLECULE
No_3850-gen_results/8p0m/2024-11-26-14-13-15/
 34 38 0 0 0
SMALL
GASTEIGER

@<TRIPOS>ATOM
      1 C         -28.0162   -0.8135   28.8779 C.ar    1  UNL1        0.0536
      2 C         -27.0636   -0.1189   28.6079 C.ar    1  UNL1        0.0045
      3 C         -27.0010    0.6913   27.4910 C.ar    1  UNL1        0.0001
      4 C         -28.1373    0.7363   26.6350 C.ar    1  UNL1        0.0000
      5 C         -29.2360    0.0765   27.0690 C.ar    1  UNL1        0.0001
      6 C         -29.2177   -0.6429   28.1747 C.ar    1  UNL1        0.0045
      7 C         -28.0030   -1.6604   30.1266 C.2     1  UNL1        0.2490
      8 O         -27.1218   -2.5017   30.2445 O.2     1  UNL1       -0.2699
      9 N         -29.0108   -1.6366   31.0273 N.am    1  UNL1       -0.2761
     10 C         -30.0672   -0.6697   31.0659 C.3     1  UNL1        0.0937
     11 C         -31.0881   -1.0957   31.7573 C.3     1  UNL1        0.0216
     12 C         -29.4452   -2.8297   31.6604 C.3     1  UNL1        0.0937
     13 C         -30.5085   -2.9546   32.3798 C.3     1  UNL1        0.0216
     14 C         -31.3709   -2.0176   32.5541 C.3     1  UNL1        0.0035
     15 C         -28.0917    1.5579   25.4329 C.2     1  UNL1       -0.0000
     16 C         -27.0061    1.7107   24.7544 C.2     1  UNL1       -0.0000
     17 C         -29.3369    2.1139   24.9474 C.ar    1  UNL1       -0.0000
     18 C         -30.1979    2.7173   25.7269 C.ar    1  UNL1       -0.0003
     19 C         -31.3872    3.3147   25.2309 C.ar    1  UNL1       -0.0027
     20 C         -31.6328    3.1914   23.8442 C.ar    1  UNL1       -0.0044
     21 C         -30.7725    2.5068   23.0171 C.ar    1  UNL1       -0.0027
     22 C         -29.5129    1.9143   23.5256 C.ar    1  UNL1       -0.0003
     23 C         -32.8501    3.7291   23.2469 C.3     1  UNL1        0.0953
     24 N         -33.8475    3.2444   23.2383 N.pl3   1  UNL1       -0.3054
     25 C         -35.0018    3.6105   22.7200 C.3     1  UNL1        0.0910
     26 C         -35.0153    4.8115   22.0269 C.3     1  UNL1        0.0215
     27 C         -33.8136    5.5396   21.9149 C.3     1  UNL1        0.0038
     28 C         -32.6958    5.0853   22.5372 C.3     1  UNL1        0.0243
     29 C         -34.1775    1.9910   24.0021 C.ar    1  UNL1        0.0480
     30 C         -33.9050    0.8172   23.3487 C.ar    1  UNL1        0.0145
     31 C         -35.4656    1.9414   24.7323 C.ar    1  UNL1        0.0145
     32 C         -35.8092    0.7283   25.1486 C.ar    1  UNL1        0.0013
     33 C         -35.5622   -0.4545   24.4311 C.ar    1  UNL1        0.0001
     34 C         -34.2321   -0.4365   23.8805 C.ar    1  UNL1        0.0013
@<TRIPOS>BOND
     1     1     7    1
     2     7     8    2
     3     7     9   am
     4     9    10    1
     5     9    12    1
     6    12    13    1
     7    11    14    1
     8     4    15    1
     9    15    16    2
    10    15    17    1
    11    20    23    1
    12    23    24    1
    13    24    25    1
    14    26    27    1
    15    23    28    1
    16    27    28    1
    17    24    29    1
    18    10    11    1
    19    14    13    1
    20    26    25    1
    21     1     2   ar
    22     2     3   ar
    23     3     4   ar
    24     4     5   ar
    25     5     6   ar
    26     6     1   ar
    27    29    30   ar
    28    30    34   ar
    29    34    33   ar
    30    33    32   ar
    31    32    31   ar
    32    31    29   ar
    33    17    18   ar
    34    18    19   ar
    35    19    20   ar
    36    20    21   ar
    37    21    22   ar
    38    22    17   ar
