@<TRIPOS>MOLECULE
No_3851-gen_results/8p0m/2024-11-26-14-13-15/
 35 38 0 0 0
SMALL
GASTEIGER

@<TRIPOS>ATOM
      1 CL        -28.1493   -0.8198   28.9079 Cl      1  UNL1       -0.0822
      2 C         -26.9116   -0.0797   28.9452 C.ar    1  UNL1        0.0578
      3 C         -26.0490   -0.0718   27.8591 C.ar    1  UNL1        0.0115
      4 C         -24.7194    0.4034   27.9174 C.ar    1  UNL1        0.0055
      5 C         -24.2099    0.9302   29.0839 C.ar    1  UNL1        0.0567
      6 C         -25.0231    0.9078   30.1875 C.ar    1  UNL1        0.0057
      7 C         -26.2531    0.3904   30.1401 C.ar    1  UNL1        0.0166
      8 C         -22.8500    1.4478   29.0593 C.2     1  UNL1        0.2842
      9 N         -22.0944    1.5228   27.9761 N.am    1  UNL1       -0.0837
     10 O         -22.4857    1.9544   29.9987 O.2     1  UNL1       -0.2667
     11 C         -27.0787    0.3463   31.4316 C.ar    1  UNL1        0.0696
     12 C         -26.5414   -0.3367   32.3806 C.ar    1  UNL1        0.1425
     13 C         -27.2480   -0.3767   33.6781 C.ar    1  UNL1        0.0493
     14 C         -28.5642    0.0511   33.6916 C.ar    1  UNL1        0.0742
     15 C         -29.1033    0.6694   32.6185 C.ar    1  UNL1        0.1022
     16 C         -28.3929    0.8051   31.4293 C.ar    1  UNL1        0.1532
     17 CL        -30.6830    1.2992   32.6605 Cl      1  UNL1       -0.0782
     18 CL        -29.4018   -0.0430   35.2156 Cl      1  UNL1       -0.0812
     19 O         -25.2752   -0.7852   32.4020 O.3     1  UNL1       -0.4713
     20 C         -24.3794   -0.4835   33.4442 C.3     1  UNL1        0.2525
     21 O         -28.9378    1.3981   30.3900 O.3     1  UNL1       -0.4697
     22 C         -28.6206    2.6976   30.1496 C.3     1  UNL1        0.2317
     23 C         -29.7006    3.5088   29.8275 C.ar    1  UNL1        0.0175
     24 C         -30.7938    3.1863   29.5188 C.ar    1  UNL1       -0.0010
     25 C         -31.9162    4.0361   29.2204 C.ar    1  UNL1       -0.0002
     26 C         -31.6423    5.4337   29.2735 C.ar    1  UNL1       -0.0003
     27 C         -30.4077    5.8961   29.5681 C.ar    1  UNL1       -0.0041
     28 C         -29.3752    5.0070   29.8620 C.ar    1  UNL1       -0.0183
     29 C         -28.0677    5.5133   30.2063 C.3     1  UNL1        0.0524
     30 C         -27.5838    6.3664   29.6737 C.ar    1  UNL1       -0.0178
     31 C         -26.4717    6.6828   29.3511 C.ar    1  UNL1       -0.0039
     32 C         -25.9198    7.8266   28.6084 C.ar    1  UNL1       -0.0003
     33 C         -26.8863    8.7407   28.2238 C.ar    1  UNL1       -0.0000
     34 C         -28.1733    8.4940   28.5080 C.ar    1  UNL1       -0.0003
     35 C         -28.5806    7.4268   29.1777 C.ar    1  UNL1       -0.0039
@<TRIPOS>BOND
     1     1     2    1
     2     5     8    1
     3     8     9   am
     4     8    10    2
     5     7    11    1
     6    15    17    1
     7    14    18    1
     8    12    19    1
     9    19    20    1
    10    16    21    1
    11    21    22    1
    12    22    23    1
    13    28    29    1
    14    29    30    1
    15    11    12   ar
    16    12    13   ar
    17    13    14   ar
    18    14    15   ar
    19    15    16   ar
    20    16    11   ar
    21     2     3   ar
    22     3     4   ar
    23     4     5   ar
    24     5     6   ar
    25     6     7   ar
    26     7     2   ar
    27    23    24   ar
    28    24    25   ar
    29    25    26   ar
    30    26    27   ar
    31    27    28   ar
    32    28    23   ar
    33    30    31   ar
    34    31    32   ar
    35    32    33   ar
    36    33    34   ar
    37    34    35   ar
    38    35    30   ar
