@<TRIPOS>MOLECULE
No_3852-gen_results/8p0m/2024-11-26-14-13-15/
 18 19 0 0 0
SMALL
GASTEIGER

@<TRIPOS>ATOM
      1 C         -28.0162   -0.8135   28.8779 C.ar    1  UNL1        0.0450
      2 C         -28.4690   -0.7850   29.8287 C.ar    1  UNL1        0.0636
      3 C         -26.5455   -0.8762   28.8500 C.ar    1  UNL1        0.1414
      4 C         -25.8041   -1.0324   30.0571 C.ar    1  UNL1        0.0297
      5 C         -27.9437   -0.9869   31.2075 C.ar    1  UNL1        0.0155
      6 C         -26.5825   -1.0386   31.2231 C.ar    1  UNL1        0.0036
      7 N         -29.9648   -0.7353   29.8902 N.am    1  UNL1       -0.2007
      8 C         -30.6477    0.3169   30.2682 C.ar    1  UNL1        0.0622
      9 C         -30.0738    1.3599   30.4675 C.ar    1  UNL1        0.0154
     10 C         -30.8901    2.6109   30.8165 C.ar    1  UNL1        0.0022
     11 C         -32.2668    2.4049   30.8221 C.ar    1  UNL1        0.0115
     12 C         -32.0564    0.2010   30.2983 C.ar    1  UNL1        0.0267
     13 C         -32.8165    1.2527   30.5908 C.ar    1  UNL1        0.0589
     14 C         -30.5999   -1.9991   29.5551 C.2     1  UNL1        0.4546
     15 O         -30.2897   -3.0527   29.9717 O.co2   1  UNL1       -0.2216
     16 O         -31.5310   -2.0052   28.6731 O.co2   1  UNL1       -0.2216
     17 F         -25.8217   -0.8497   27.7234 F       1  UNL1       -0.2041
     18 CL        -34.5179    1.0741   30.6510 Cl      1  UNL1       -0.0822
@<TRIPOS>BOND
     1     2     7    1
     2     7     8    1
     3     7    14   am
     4    14    15   ar
     5    14    16   ar
     6     3    17    1
     7    13    18    1
     8     1     2   ar
     9     2     5   ar
    10     5     6   ar
    11     6     4   ar
    12     4     3   ar
    13     3     1   ar
    14     8     9   ar
    15     9    10   ar
    16    10    11   ar
    17    11    13   ar
    18    13    12   ar
    19    12     8   ar
