@<TRIPOS>MOLECULE
No_3853-gen_results/8p0m/2024-11-26-14-13-15/
 30 32 0 0 0
SMALL
GASTEIGER

@<TRIPOS>ATOM
      1 O         -28.1229   -1.3353   28.4874 O.2     1  UNL1       -0.2745
      2 C         -28.5208   -0.4363   29.0779 C.2     1  UNL1        0.2293
      3 C         -28.5894    0.5916   28.9464 C.3     1  UNL1        0.0990
      4 N         -29.1246   -0.9399   30.4266 N.am    1  UNL1       -0.2793
      5 C         -29.2955    1.6366   29.4337 C.3     1  UNL1        0.0152
      6 C         -29.7997    0.0136   31.1591 C.3     1  UNL1        0.0934
      7 C         -29.8824    1.2875   30.7463 C.3     1  UNL1        0.0223
      8 C         -27.9295    1.0222   27.5316 C.ar    1  UNL1       -0.0139
      9 C         -26.9947    2.1089   27.5742 C.ar    1  UNL1       -0.0038
     10 C         -26.2282    2.3917   26.4961 C.ar    1  UNL1       -0.0003
     11 C         -26.2137    1.5145   25.3761 C.ar    1  UNL1       -0.0000
     12 C         -27.0317    0.4441   25.3722 C.ar    1  UNL1       -0.0003
     13 C         -27.7925    0.1197   26.4889 C.ar    1  UNL1       -0.0038
     14 C         -28.9758   -2.3413   30.8515 C.3     1  UNL1        0.0937
     15 C         -29.8984   -2.8708   31.6425 C.3     1  UNL1        0.0259
     16 C         -31.0975   -3.1817   31.0196 C.3     1  UNL1        0.0245
     17 C         -31.2304   -3.1012   29.7229 C.ar    1  UNL1       -0.0194
     18 C         -31.5922   -2.4579   29.0335 C.ar    1  UNL1        0.0164
     19 C         -31.7882   -2.4775   27.5504 C.ar    1  UNL1        0.0986
     20 N         -31.8006   -3.7643   27.1551 N.ar    1  UNL1       -0.2423
     21 C         -31.2290   -4.5535   28.9850 C.ar    1  UNL1        0.0164
     22 C         -31.4901   -4.7423   27.7528 C.ar    1  UNL1        0.0986
     23 C         -32.3360   -3.3465   31.8189 C.3     1  UNL1        0.0091
     24 C         -33.1816   -2.5238   31.9236 C.3     1  UNL1        0.0260
     25 C         -33.0508   -1.1133   31.6445 C.2     1  UNL1       -0.0304
     26 C         -34.1126   -0.1465   31.6704 C.2     1  UNL1       -0.0260
     27 C         -33.8671    1.1734   31.5282 C.3     1  UNL1        0.0513
     28 C         -34.7925    2.0863   31.3540 C.2     1  UNL1       -0.0260
     29 C         -36.1288    1.6918   31.3800 C.2     1  UNL1       -0.0300
     30 C         -36.4136    0.3565   31.5080 C.3     1  UNL1        0.0304
@<TRIPOS>BOND
     1     1     2    2
     2     2     3    1
     3     2     4   am
     4     4     6    1
     5     5     7    1
     6     3     8    1
     7     4    14    1
     8    14    15    1
     9    15    16    1
    10    16    17    1
    11    16    23    1
    12    23    24    1
    13    24    25    1
    14    25    26    2
    15    26    27    1
    16    27    28    1
    17    28    29    2
    18    29    30    1
    19     3     5    1
    20     7     6    1
    21    17    18   ar
    22    18    19   ar
    23    19    20   ar
    24    20    22   ar
    25    22    21   ar
    26    21    17   ar
    27     8     9   ar
    28     9    10   ar
    29    10    11   ar
    30    11    12   ar
    31    12    13   ar
    32    13     8   ar
