@<TRIPOS>MOLECULE
No_3854-gen_results/8p0m/2024-11-26-14-13-15/
 7 7 0 0 0
SMALL
GASTEIGER

@<TRIPOS>ATOM
      1 C         -28.0162   -0.8135   28.8779 C.ar    1  UNL1        0.0114
      2 C         -28.4690   -0.7850   29.8287 C.ar    1  UNL1        0.0009
      3 C         -26.5455   -0.8762   28.8500 C.ar    1  UNL1        0.0577
      4 C         -25.8041   -1.0324   30.0571 C.ar    1  UNL1        0.0114
      5 C         -26.5373   -1.0386   31.2171 C.ar    1  UNL1        0.0009
      6 C         -27.8929   -0.9601   31.1743 C.ar    1  UNL1        0.0001
      7 CL        -25.6130   -0.8033   27.4237 Cl      1  UNL1       -0.0822
@<TRIPOS>BOND
     1     3     7    1
     2     1     2   ar
     3     2     6   ar
     4     6     5   ar
     5     5     4   ar
     6     4     3   ar
     7     3     1   ar
