@<TRIPOS>MOLECULE
No_3855-gen_results/8p0m/2024-11-26-14-13-15/
 13 14 0 0 0
SMALL
GASTEIGER

@<TRIPOS>ATOM
      1 C         -28.0162   -0.8135   28.8779 C.ar    1  UNL1        0.0000
      2 C         -27.0636   -0.1189   28.6079 C.ar    1  UNL1        0.0000
      3 C         -25.7647   -0.3897   29.0360 C.ar    1  UNL1        0.0001
      4 C         -24.5517    0.4058   28.7646 C.ar    1  UNL1        0.0046
      5 C         -24.6957    1.4480   27.7988 C.ar    1  UNL1        0.0567
      6 C         -25.9755    1.7250   27.3077 C.ar    1  UNL1        0.0046
      7 C         -27.0718    1.0134   27.6535 C.ar    1  UNL1        0.0001
      8 C         -27.9653   -1.6216   30.1356 C.ar    1  UNL1        0.0000
      9 C         -26.6745   -2.1506   30.4964 C.ar    1  UNL1        0.0000
     10 C         -25.5535   -1.4129   30.0823 C.ar    1  UNL1        0.0000
     11 C         -23.4812    2.2323   27.4585 C.2     1  UNL1        0.2842
     12 N         -22.3998    1.5319   27.0724 N.am    1  UNL1       -0.0837
     13 O         -23.5965    3.4847   27.3698 O.2     1  UNL1       -0.2667
@<TRIPOS>BOND
     1     5    11    1
     2    11    12   am
     3    11    13    2
     4     3     4   ar
     5     4     5   ar
     6     5     6   ar
     7     6     7   ar
     8     7     2   ar
     9     1     2   ar
    10     2     3   ar
    11     3    10   ar
    12    10     9   ar
    13     9     8   ar
    14     8     1   ar
