@<TRIPOS>MOLECULE
No_3857-gen_results/8p0m/2024-11-26-14-13-15/
 16 17 0 0 0
SMALL
GASTEIGER

@<TRIPOS>ATOM
      1 C         -28.0162   -0.8135   28.8779 C.ar    1  UNL1       -0.0040
      2 C         -28.4690   -0.7850   29.8287 C.ar    1  UNL1       -0.0003
      3 C         -27.0871    0.2903   28.6377 C.ar    1  UNL1       -0.0187
      4 C         -26.2516    0.4114   27.4223 C.3     1  UNL1        0.0409
      5 C         -28.3141   -0.1267   30.7102 C.ar    1  UNL1       -0.0000
      6 C         -27.4825    1.0076   30.8097 C.ar    1  UNL1       -0.0003
      7 C         -26.7770    1.1718   29.6871 C.ar    1  UNL1       -0.0040
      8 C         -24.9531    0.3511   27.6693 C.2     1  UNL1       -0.0367
      9 C         -24.0008    0.5572   26.6925 C.2     1  UNL1       -0.0082
     10 C         -22.6380    0.8434   27.0978 C.2     1  UNL1       -0.0049
     11 C         -22.2897    0.6139   28.4640 C.2     1  UNL1       -0.0224
     12 C         -24.1941    0.3485   28.9554 C.3     1  UNL1        0.0405
     13 C         -26.7644    1.3528   26.5328 C.3     1  UNL1        0.0091
     14 C         -24.0763   -0.0244   30.2052 C.3     1  UNL1        0.0078
     15 C         -24.6723   -0.4936   31.0149 C.3     1  UNL1        0.0007
     16 C         -22.5615    0.4977   30.4404 C.3     1  UNL1        0.0007
@<TRIPOS>BOND
     1     3     4    1
     2     4     8    1
     3     8     9    2
     4     9    10    1
     5    10    11    2
     6     8    12    1
     7    11    12    1
     8     4    13    1
     9    12    14    1
    10    14    15    1
    11    14    16    1
    12     1     2   ar
    13     2     5   ar
    14     5     6   ar
    15     6     7   ar
    16     7     3   ar
    17     3     1   ar
