@<TRIPOS>MOLECULE
No_3858-gen_results/8p0m/2024-11-26-14-13-15/
 20 22 0 0 0
SMALL
GASTEIGER

@<TRIPOS>ATOM
      1 C         -28.0162   -0.8135   28.8779 C.ar    1  UNL1        0.0375
      2 C         -28.4690   -0.7850   29.8287 C.ar    1  UNL1        0.1453
      3 C         -27.0871    0.2903   28.6377 C.ar    1  UNL1        0.0030
      4 C         -26.0238    0.3644   29.2526 C.ar    1  UNL1        0.0002
      5 C         -27.5370   -0.6187   31.0883 C.ar    1  UNL1        0.0375
      6 C         -26.3844    0.1834   30.8012 C.ar    1  UNL1        0.0031
      7 O         -29.5100   -1.6195   30.2653 O.3     1  UNL1       -0.4535
      8 C         -30.7241   -1.2384   29.8510 C.ar    1  UNL1        0.1453
      9 C         -31.5691   -2.3374   29.6640 C.ar    1  UNL1        0.0375
     10 C         -32.8126   -2.1391   28.9632 C.ar    1  UNL1        0.0031
     11 C         -33.1076   -0.8096   28.5644 C.ar    1  UNL1        0.0002
     12 C         -32.1979    0.1817   28.7641 C.ar    1  UNL1        0.0031
     13 C         -30.9352   -0.0421   29.3629 C.ar    1  UNL1        0.0375
     14 C         -26.8263    0.6339   27.1237 C.ar    1  UNL1       -0.0002
     15 C         -27.7178    0.8786   26.3344 C.2     1  UNL1       -0.0046
     16 C         -27.4697    1.1185   24.9874 C.2     1  UNL1       -0.0258
     17 C         -25.5770    1.1202   26.7288 C.ar    1  UNL1       -0.0000
     18 C         -24.3725    1.0729   27.6523 C.ar    1  UNL1       -0.0000
     19 C         -24.6998    0.7904   29.0500 C.ar    1  UNL1        0.0000
     20 C         -28.5980    1.2313   24.1406 C.3     1  UNL1        0.0307
@<TRIPOS>BOND
     1     2     7    1
     2     7     8    1
     3    14    15    1
     4    15    16    2
     5    16    20    1
     6     4    19   ar
     7    19    18   ar
     8    18    17   ar
     9    17    14   ar
    10    14     3   ar
    11     8     9   ar
    12     9    10   ar
    13    10    11   ar
    14    11    12   ar
    15    12    13   ar
    16    13     8   ar
    17     1     2   ar
    18     2     5   ar
    19     5     6   ar
    20     6     4   ar
    21     4     3   ar
    22     3     1   ar
