@<TRIPOS>MOLECULE
No_3859-gen_results/8p0m/2024-11-26-14-13-15/
 23 24 0 0 0
SMALL
GASTEIGER

@<TRIPOS>ATOM
      1 C         -28.0162   -0.8135   28.8779 C.2     1  UNL1        0.2770
      2 C         -27.0636   -0.1190   28.6079 C.ar    1  UNL1        0.1318
      3 N         -25.8176   -0.3427   29.0488 N.ar    1  UNL1       -0.2394
      4 C         -24.6506    0.4444   28.7649 C.ar    1  UNL1        0.1036
      5 C         -24.7153    1.3122   27.7191 C.ar    1  UNL1        0.0755
      6 C         -25.9996    1.5243   27.1533 C.ar    1  UNL1        0.0039
      7 C         -27.0905    0.8203   27.5377 C.ar    1  UNL1        0.0059
      8 N         -29.2589   -0.2577   28.9163 N.am    1  UNL1       -0.1885
      9 O         -27.8926   -1.9261   29.5889 O.2     1  UNL1       -0.2675
     10 C         -29.5980    0.8749   28.3321 C.2     1  UNL1        0.0444
     11 C         -30.9152    1.3148   28.2057 C.2     1  UNL1        0.0113
     12 C         -28.6483    1.6430   27.5459 C.3     1  UNL1        0.0699
     13 C         -23.5138    2.0378   27.3092 C.2     1  UNL1        0.2857
     14 N         -22.3197    1.6666   27.8395 N.am    1  UNL1       -0.0837
     15 O         -23.5804    2.9638   26.4545 O.2     1  UNL1       -0.2666
     16 C         -30.4042   -0.9898   29.4897 C.2     1  UNL1        0.3526
     17 C         -31.1430    2.5750   27.6205 C.2     1  UNL1        0.0010
     18 O         -30.3270   -1.2478   30.5493 O.2     1  UNL1       -0.2483
     19 N         -31.2850   -1.5130   28.6211 N.am    1  UNL1       -0.0685
     20 C         -32.2918    3.1958   27.7740 C.2     1  UNL1       -0.0003
     21 C         -32.5662    4.4629   27.2768 C.2     1  UNL1       -0.0046
     22 C         -31.5567    5.0766   26.4753 C.2     1  UNL1       -0.0258
     23 C         -30.3549    4.4241   26.2257 C.3     1  UNL1        0.0307
@<TRIPOS>BOND
     1     1     2    1
     2     1     8   am
     3     1     9    2
     4     8    10    1
     5    10    11    2
     6     7    12    1
     7    10    12    1
     8     5    13    1
     9    13    14   am
    10    13    15    2
    11     8    16   am
    12    11    17    1
    13    16    18    2
    14    16    19   am
    15    17    20    2
    16    20    21    1
    17    21    22    2
    18    22    23    1
    19     2     3   ar
    20     3     4   ar
    21     4     5   ar
    22     5     6   ar
    23     6     7   ar
    24     7     2   ar
