@<TRIPOS>MOLECULE
No_386-gen_results/8p0m/2024-11-26-14-13-15/
 7 7 0 0 0
SMALL
GASTEIGER

@<TRIPOS>ATOM
      1 CL        -28.1493   -0.8198   28.9079 Cl      1  UNL1       -0.0822
      2 C         -26.9116   -0.0797   28.9452 C.ar    1  UNL1        0.0577
      3 C         -26.7384    1.0439   29.2534 C.ar    1  UNL1        0.0114
      4 C         -25.4244    1.5757   29.4244 C.ar    1  UNL1        0.0009
      5 C         -24.2627    0.8479   29.0317 C.ar    1  UNL1        0.0001
      6 C         -24.4866   -0.4397   28.6728 C.ar    1  UNL1        0.0009
      7 C         -25.7217   -0.9285   28.6162 C.ar    1  UNL1        0.0114
@<TRIPOS>BOND
     1     1     2    1
     2     2     3   ar
     3     3     4   ar
     4     4     5   ar
     5     5     6   ar
     6     6     7   ar
     7     7     2   ar
