@<TRIPOS>MOLECULE
No_3860-gen_results/8p0m/2024-11-26-14-13-15/
 32 34 0 0 0
SMALL
GASTEIGER

@<TRIPOS>ATOM
      1 C         -28.0162   -0.8135   28.8779 C.ar    1  UNL1        0.0063
      2 C         -28.4690   -0.7850   29.8287 C.ar    1  UNL1        0.0798
      3 C         -26.5042   -0.7777   28.8766 C.ar    1  UNL1       -0.0041
      4 C         -25.8103   -0.8531   30.1028 C.ar    1  UNL1       -0.0223
      5 C         -27.9906   -0.8916   31.2257 C.ar    1  UNL1        0.0063
      6 C         -26.6042   -0.8676   31.2652 C.ar    1  UNL1       -0.0041
      7 C         -24.3894   -0.8049   30.1638 C.3     1  UNL1        0.0289
      8 C         -23.8172    0.4762   29.9118 C.3     1  UNL1        0.1028
      9 C         -22.5010    0.5449   29.4097 C.3     1  UNL1        0.0114
     10 C         -21.7696   -0.6524   29.2129 C.3     1  UNL1        0.0006
     11 C         -23.6939   -1.8206   29.2518 C.3     1  UNL1        0.0046
     12 C         -22.3030   -1.7892   29.1620 C.3     1  UNL1        0.0004
     13 C         -23.8764   -1.2295   31.6716 C.3     1  UNL1        0.0049
     14 C         -24.4271    1.7392   30.3631 C.2     1  UNL1        0.3172
     15 O         -24.5041    2.1460   31.5027 O.2     1  UNL1       -0.2501
     16 O         -25.2069    2.3329   29.4186 O.3     1  UNL1       -0.4431
     17 C         -30.0532   -0.9069   29.9664 C.2     1  UNL1        0.3878
     18 O         -30.6842   -0.2995   29.2076 O.co2   1  UNL1       -0.2406
     19 O         -30.6174   -1.6551   30.8329 O.co2   1  UNL1       -0.2406
     20 C         -25.9130    3.4685   29.7958 C.3     1  UNL1        0.2129
     21 C         -26.0711    4.3187   28.7362 C.ar    1  UNL1        0.0216
     22 C         -26.0257    5.5977   28.9522 C.ar    1  UNL1       -0.0005
     23 C         -25.8687    6.5650   27.8356 C.ar    1  UNL1       -0.0002
     24 C         -25.7407    5.9907   26.5340 C.ar    1  UNL1       -0.0000
     25 C         -25.4643    4.6623   26.4907 C.ar    1  UNL1       -0.0002
     26 C         -25.6239    3.8066   27.5017 C.ar    1  UNL1       -0.0005
     27 C         -27.3651    2.9750   30.1604 C.2     1  UNL1        0.0171
     28 C         -28.4525    3.0649   29.3247 C.2     1  UNL1       -0.0221
     29 C         -29.7011    2.7319   29.8802 C.3     1  UNL1        0.0514
     30 C         -30.8493    3.0503   29.1763 C.2     1  UNL1       -0.0260
     31 C         -30.7313    3.5108   27.8757 C.2     1  UNL1       -0.0300
     32 C         -29.4657    3.8313   27.3368 C.3     1  UNL1        0.0304
@<TRIPOS>BOND
     1     4     7    1
     2     7     8    1
     3     9    10    1
     4     7    11    1
     5    10    12    1
     6     7    13    1
     7     8    14    1
     8    14    15    2
     9    14    16    1
    10     2    17    1
    11    17    18   ar
    12    17    19   ar
    13    16    20    1
    14    20    21    1
    15    20    27    1
    16    27    28    2
    17    28    29    1
    18    29    30    1
    19    30    31    2
    20    31    32    1
    21     8     9    1
    22    12    11    1
    23     1     2   ar
    24     2     5   ar
    25     5     6   ar
    26     6     4   ar
    27     4     3   ar
    28     3     1   ar
    29    21    22   ar
    30    22    23   ar
    31    23    24   ar
    32    24    25   ar
    33    25    26   ar
    34    26    21   ar
