@<TRIPOS>MOLECULE
No_3861-gen_results/8p0m/2024-11-26-14-13-15/
 19 21 0 0 0
SMALL
GASTEIGER

@<TRIPOS>ATOM
      1 C         -28.0162   -0.8135   28.8779 C.ar    1  UNL1        0.0191
      2 C         -28.4690   -0.7850   29.8287 C.ar    1  UNL1        0.0015
      3 C         -26.5455   -0.8762   28.8500 C.ar    1  UNL1        0.0812
      4 C         -25.8041   -1.0324   30.0571 C.ar    1  UNL1        0.0177
      5 C         -24.3697   -1.0998   30.0718 C.ar    1  UNL1        0.0030
      6 C         -27.9902   -1.0051   31.2092 C.ar    1  UNL1        0.0001
      7 C         -26.5616   -1.1368   31.2600 C.ar    1  UNL1        0.0015
      8 C         -23.6342   -0.7826   29.0667 C.ar    1  UNL1        0.0174
      9 C         -22.1763   -0.6779   29.1657 C.ar    1  UNL1        0.0015
     10 C         -21.4400   -0.1303   28.1207 C.ar    1  UNL1       -0.0002
     11 C         -22.1014    0.8765   27.3078 C.ar    1  UNL1       -0.0028
     12 C         -23.5471    0.9961   27.3643 C.ar    1  UNL1       -0.0042
     13 C         -24.1994   -0.3868   27.8137 C.ar    1  UNL1        0.0773
     14 N         -25.8014   -0.6692   27.7471 N.ar    1  UNL1       -0.2457
     15 C         -24.2849    1.8228   26.3958 C.3     1  UNL1        0.0325
     16 C         -25.1961    2.6872   27.0217 C.3     1  UNL1        0.0304
     17 C         -24.7028    3.5991   27.8410 C.2     1  UNL1       -0.0303
     18 C         -25.5287    4.6517   28.4291 C.2     1  UNL1       -0.0303
     19 C         -25.1535    5.4327   29.4585 C.3     1  UNL1        0.0303
@<TRIPOS>BOND
     1    12    15    1
     2    15    16    1
     3    16    17    1
     4    17    18    2
     5    18    19    1
     6     1     2   ar
     7     2     6   ar
     8     6     7   ar
     9     7     4   ar
    10     3     1   ar
    11     8     9   ar
    12     9    10   ar
    13    10    11   ar
    14    11    12   ar
    15    12    13   ar
    16     3     4   ar
    17     4     5   ar
    18     5     8   ar
    19     8    13   ar
    20    13    14   ar
    21    14     3   ar
