@<TRIPOS>MOLECULE
No_3862-gen_results/8p0m/2024-11-26-14-13-15/
 13 13 0 0 0
SMALL
GASTEIGER

@<TRIPOS>ATOM
      1 C         -28.0162   -0.8135   28.8779 C.3     1  UNL1        0.1520
      2 C         -27.0636   -0.1190   28.6079 C.ar    1  UNL1       -0.0098
      3 C         -25.7647   -0.3897   29.0360 C.ar    1  UNL1       -0.0036
      4 C         -24.5516    0.4058   28.7646 C.ar    1  UNL1        0.0013
      5 C         -24.6957    1.4480   27.7988 C.ar    1  UNL1        0.0209
      6 C         -25.9755    1.7250   27.3077 C.ar    1  UNL1        0.0013
      7 C         -27.0718    1.0134   27.6535 C.ar    1  UNL1       -0.0036
      8 C         -28.6178   -0.4695   30.2207 C.2     1  UNL1        0.3914
      9 N         -28.3380    0.4496   30.8246 N.2     1  UNL1       -0.0569
     10 N         -29.7431   -1.2676   30.5704 N.pl3   1  UNL1        0.2109
     11 C         -28.9240    0.7858   32.1021 C.3     1  UNL1        0.3205
     12 C         -23.5207    2.2513   27.4943 C.2     1  UNL1        0.1221
     13 N         -22.4958    2.0026   27.1792 N.2     1  UNL1       -0.1464
@<TRIPOS>BOND
     1     1     8    1
     2     8     9    2
     3     8    10    1
     4     9    11    1
     5     5    12    1
     6    12    13    2
     7     1     2    1
     8     2     3   ar
     9     3     4   ar
    10     4     5   ar
    11     5     6   ar
    12     6     7   ar
    13     7     2   ar
