@<TRIPOS>MOLECULE
No_3863-gen_results/8p0m/2024-11-26-14-13-15/
 24 28 0 0 0
SMALL
GASTEIGER

@<TRIPOS>ATOM
      1 C         -28.0162   -0.8135   28.8779 C.ar    1  UNL1        0.0473
      2 C         -28.4690   -0.7850   29.8287 C.ar    1  UNL1        0.1415
      3 C         -26.5042   -0.7777   28.8766 C.ar    1  UNL1        0.0870
      4 C         -25.8103   -0.8531   30.1028 C.ar    1  UNL1        0.0105
      5 C         -27.9906   -0.8916   31.2257 C.ar    1  UNL1        0.0294
      6 C         -26.6042   -0.8676   31.2652 C.ar    1  UNL1        0.0007
      7 F         -29.9203   -0.8331   29.8239 F       1  UNL1       -0.2041
      8 C         -24.3796   -0.8022   30.1424 C.3     1  UNL1        0.0993
      9 N         -23.8531    0.5413   30.2083 N.3     1  UNL1       -0.2654
     10 C         -23.3162    1.1576   29.1423 C.3     1  UNL1        0.0817
     11 C         -22.2800    0.6569   28.4577 C.3     1  UNL1        0.0238
     12 C         -24.3908    1.7250   28.1734 C.ar    1  UNL1        0.0072
     13 C         -24.0494    3.0618   27.6927 C.ar    1  UNL1       -0.0017
     14 C         -24.5107    1.3533   31.2633 C.3     1  UNL1        0.0901
     15 C         -24.9318    3.4487   26.5118 C.ar    1  UNL1       -0.0002
     16 N         -25.7446   -0.7185   27.7067 N.pl3   1  UNL1       -0.1460
     17 C         -26.2305    3.0794   26.5984 C.ar    1  UNL1        0.0013
     18 C         -26.5349    1.8411   27.2148 C.ar    1  UNL1        0.0159
     19 C         -25.6166    1.2886   28.0520 C.ar    1  UNL1        0.0657
     20 N         -25.6120    0.0020   28.1483 N.pl3   1  UNL1       -0.2059
     21 C         -24.2305   -0.7458   28.2038 C.3     1  UNL1        0.1664
     22 C         -23.0234   -0.5711   28.0389 C.3     1  UNL1        0.0414
     23 N         -24.1916   -2.0586   28.5917 N.3     1  UNL1       -0.1969
     24 C         -23.6977   -1.7270   29.5266 C.3     1  UNL1        0.1110
@<TRIPOS>BOND
     1     2     7    1
     2     4     8    1
     3     8     9    1
     4     9    10    1
     5    10    11    1
     6    10    12    1
     7     9    14    1
     8     3    16    1
     9    16    20    1
    10    19    20    1
    11    20    21    1
    12    11    22    1
    13    21    22    1
    14    21    23    1
    15     8    24    1
    16    23    24    1
    17    12    13   ar
    18    13    15   ar
    19    15    17   ar
    20    17    18   ar
    21    18    19   ar
    22    19    12   ar
    23     1     2   ar
    24     2     5   ar
    25     5     6   ar
    26     6     4   ar
    27     4     3   ar
    28     3     1   ar
