@<TRIPOS>MOLECULE
No_3864-gen_results/8p0m/2024-11-26-14-13-15/
 35 37 0 0 0
SMALL
GASTEIGER

@<TRIPOS>ATOM
      1 C         -28.0162   -0.8135   28.8779 C.2     1  UNL1       -0.0295
      2 C         -27.0636   -0.1189   28.6079 C.2     1  UNL1       -0.0401
      3 C         -25.7647   -0.3897   29.0360 C.3     1  UNL1        0.0214
      4 C         -24.5516    0.4058   28.7646 C.3     1  UNL1        0.0154
      5 C         -24.6957    1.4480   27.7988 C.3     1  UNL1        0.1045
      6 C         -25.9755    1.7250   27.3077 C.3     1  UNL1        0.0244
      7 C         -27.0718    1.0134   27.6535 C.3     1  UNL1        0.0952
      8 C         -28.6043   -0.4743   30.2323 C.3     1  UNL1        0.0512
      9 C         -29.6579   -1.2837   30.7259 C.2     1  UNL1       -0.0192
     10 C         -23.4948    2.1975   27.4898 C.2     1  UNL1        0.3643
     11 O         -23.5825    3.1591   26.7173 O.co2   1  UNL1       -0.2457
     12 O         -22.2369    1.6895   27.6320 O.co2   1  UNL1       -0.2457
     13 C         -30.0281   -2.2853   30.0237 C.2     1  UNL1        0.0536
     14 C         -31.2709   -2.8734   30.4175 C.2     1  UNL1        0.3835
     15 O         -31.6184   -3.7840   29.7459 O.co2   1  UNL1       -0.2409
     16 O         -32.0844   -2.5716   31.4031 O.co2   1  UNL1       -0.2409
     17 C         -28.3859    1.2844   27.0565 C.2     1  UNL1        0.2290
     18 O         -29.2747    1.7089   27.6748 O.2     1  UNL1       -0.2745
     19 N         -28.4621    0.9672   25.7297 N.am    1  UNL1       -0.2758
     20 C         -29.6409    1.1026   24.9557 C.3     1  UNL1        0.1149
     21 C         -27.3250    0.5368   24.8961 C.3     1  UNL1        0.1149
     22 C         -25.4814   -1.5151   29.9851 C.3     1  UNL1        0.0341
     23 C         -24.3843   -2.2797   29.7577 C.3     1  UNL1        0.0028
     24 C         -25.5430   -1.1541   31.4842 C.3     1  UNL1        0.0028
     25 C         -26.6274   -2.6651   29.7106 C.3     1  UNL1        0.1822
     26 C         -26.0805   -3.9956   30.3471 C.3     1  UNL1        0.1821
     27 C         -27.0253   -5.0026   29.6519 C.3     1  UNL1        0.0359
     28 O         -26.6491   -2.9123   28.4101 O.3     1  UNL1       -0.2204
     29 C         -24.4124   -0.4565   32.0009 C.3     1  UNL1        0.0001
     30 C         -24.7247    0.6100   32.9080 C.3     1  UNL1        0.0000
     31 C         -23.1135   -0.8896   31.7665 C.3     1  UNL1        0.0000
     32 C         -23.0396   -1.4006   30.1118 C.3     1  UNL1        0.0001
     33 C         -28.5091   -4.4650   29.8862 C.3     1  UNL1        0.0076
     34 C         -29.0183   -3.6651   30.6642 C.3     1  UNL1        0.0328
     35 O         -24.8394   -4.2564   29.7672 O.3     1  UNL1       -0.2204
@<TRIPOS>BOND
     1     1     2    2
     2     2     3    1
     3     3     4    1
     4     4     5    1
     5     5     6    1
     6     2     7    1
     7     6     7    1
     8     1     8    1
     9     8     9    1
    10     5    10    1
    11    10    11   ar
    12    10    12   ar
    13     9    13    2
    14    13    14    1
    15    14    15   ar
    16    14    16   ar
    17     7    17    1
    18    17    18    2
    19    17    19   am
    20    19    20    1
    21    19    21    1
    22     3    22    1
    23    22    23    1
    24    22    24    1
    25    22    25    1
    26    25    26    1
    27    26    27    1
    28    25    28    1
    29    24    29    1
    30    29    30    1
    31    29    31    1
    32    23    32    1
    33    31    32    1
    34    27    33    1
    35    13    34    1
    36    33    34    1
    37    26    35    1
