@<TRIPOS>MOLECULE
No_3866-gen_results/8p0m/2024-11-26-14-13-15/
 11 11 0 0 0
SMALL
GASTEIGER

@<TRIPOS>ATOM
      1 F         -28.0727   -1.2542   28.5316 F       1  UNL1       -0.2017
      2 C         -27.0607   -0.6291   28.8721 C.ar    1  UNL1        0.1705
      3 C         -27.1759    0.6153   29.3693 C.ar    1  UNL1        0.1955
      4 C         -25.7305   -1.2692   28.7241 C.ar    1  UNL1        0.0444
      5 C         -24.5526   -0.5078   29.0132 C.ar    1  UNL1        0.0728
      6 C         -25.9465    1.3753   29.6814 C.ar    1  UNL1        0.1809
      7 C         -24.6746    0.8198   29.5066 C.ar    1  UNL1        0.0980
      8 CL        -23.2634    1.6976   29.8437 Cl      1  UNL1       -0.0789
      9 CL        -22.9859   -1.1327   28.8708 Cl      1  UNL1       -0.0812
     10 F         -28.2982    1.1796   29.5345 F       1  UNL1       -0.1994
     11 F         -26.0220    2.6254   30.1661 F       1  UNL1       -0.2008
@<TRIPOS>BOND
     1     1     2    1
     2     7     8    1
     3     5     9    1
     4     3    10    1
     5     6    11    1
     6     2     3   ar
     7     3     6   ar
     8     6     7   ar
     9     7     5   ar
    10     5     4   ar
    11     4     2   ar
