@<TRIPOS>MOLECULE
No_3867-gen_results/8p0m/2024-11-26-14-13-15/
 22 24 0 0 0
SMALL
GASTEIGER

@<TRIPOS>ATOM
      1 C         -28.0162   -0.8135   28.8779 C.ar    1  UNL1        0.0060
      2 C         -28.4690   -0.7850   29.8287 C.ar    1  UNL1        0.0537
      3 C         -26.5042   -0.7777   28.8766 C.ar    1  UNL1        0.0177
      4 C         -25.8103   -0.8531   30.1028 C.ar    1  UNL1        0.0655
      5 C         -27.9906   -0.8916   31.2257 C.ar    1  UNL1        0.0060
      6 C         -26.6042   -0.8676   31.2652 C.ar    1  UNL1        0.0177
      7 N         -24.4858   -0.8015   30.1495 N.ar    1  UNL1       -0.2864
      8 C         -23.7751   -0.6199   30.9088 C.ar    1  UNL1        0.1828
      9 N         -22.3447   -0.5930   30.7647 N.ar    1  UNL1       -0.2220
     10 C         -23.3189   -1.1837   29.1822 C.ar    1  UNL1        0.1022
     11 C         -22.1634   -0.9238   29.6007 C.ar    1  UNL1        0.1196
     12 C         -30.0818   -0.7543   29.8392 C.2     1  UNL1        0.2494
     13 O         -30.4978   -0.3204   28.8762 O.2     1  UNL1       -0.2699
     14 N         -30.8086   -1.2107   30.8806 N.am    1  UNL1       -0.2686
     15 C         -32.2516   -1.1625   30.8154 C.3     1  UNL1        0.0942
     16 C         -32.8249   -1.9212   31.5830 C.3     1  UNL1        0.0216
     17 C         -32.1962   -2.6208   32.6793 C.3     1  UNL1        0.0040
     18 C         -30.7905   -2.6745   32.7115 C.3     1  UNL1        0.0304
     19 C         -30.1258   -2.0856   31.7858 C.3     1  UNL1        0.1669
     20 C         -28.6828   -1.9249   31.9902 C.2     1  UNL1        0.3283
     21 O         -28.1598   -2.4028   32.9953 O.2     1  UNL1       -0.2573
     22 F         -28.2451   -2.7749   31.4380 F       1  UNL1       -0.1618
@<TRIPOS>BOND
     1     4     7    1
     2     7     8   ar
     3     8     9   ar
     4     7    10   ar
     5     9    11   ar
     6    10    11   ar
     7     2    12    1
     8    12    13    2
     9    12    14   am
    10    14    15    1
    11    16    17    1
    12    14    19    1
    13    18    19    1
    14    19    20    1
    15    20    21    2
    16    20    22    1
    17    15    16    1
    18    17    18    1
    19     1     2   ar
    20     2     5   ar
    21     5     6   ar
    22     6     4   ar
    23     4     3   ar
    24     3     1   ar
