@<TRIPOS>MOLECULE
No_3869-gen_results/8p0m/2024-11-26-14-13-15/
 31 33 0 0 0
SMALL
GASTEIGER

@<TRIPOS>ATOM
      1 C         -28.0162   -0.8135   28.8779 C.3     1  UNL1        0.0339
      2 C         -27.0636   -0.1189   28.6079 C.ar    1  UNL1       -0.0155
      3 C         -27.0010    0.6913   27.4910 C.ar    1  UNL1        0.0717
      4 C         -25.8548    1.4825   27.0830 C.ar    1  UNL1        0.0100
      5 C         -24.6901    1.4526   27.8807 C.ar    1  UNL1        0.0716
      6 C         -24.7379    0.6010   29.0416 C.ar    1  UNL1        0.0035
      7 C         -25.8234   -0.1688   29.3887 C.ar    1  UNL1       -0.0041
      8 C         -28.7350   -0.4637   30.1419 C.3     1  UNL1        0.0620
      9 C         -28.7831    0.6118   30.5175 C.3     1  UNL1        0.0077
     10 C         -29.5935    0.9569   31.7959 C.3     1  UNL1        0.0009
     11 C         -30.1904   -0.1138   32.4264 C.3     1  UNL1        0.0078
     12 C         -29.4171   -1.5941   30.8826 C.2     1  UNL1        0.1506
     13 C         -30.1029   -1.3710   32.0011 C.3     1  UNL1        0.0645
     14 C         -23.4894    2.1644   27.5625 C.3     1  UNL1        0.4186
     15 F         -23.6278    3.2614   27.0404 F       1  UNL1       -0.1659
     16 F         -22.6926    2.4118   28.6765 F       1  UNL1       -0.1659
     17 F         -22.6578    1.4166   26.7696 F       1  UNL1       -0.1659
     18 C         -28.1530    0.8806   26.6062 C.2     1  UNL1        0.3413
     19 O         -28.2539    0.3764   25.5303 O.2     1  UNL1       -0.2449
     20 O         -29.3090    1.2314   27.2833 O.3     1  UNL1       -0.4371
     21 C         -30.2229    1.9531   26.5822 C.3     1  UNL1        0.2749
     22 C         -30.0361    3.1941   26.4350 C.2     1  UNL1        0.4045
     23 O         -30.5357    3.6858   25.4084 O.co2   1  UNL1       -0.2416
     24 O         -29.2405    3.9282   27.1801 O.co2   1  UNL1       -0.2416
     25 C         -31.4719    1.2875   26.4548 C.3     1  UNL1        0.0796
     26 C         -31.6973    0.5245   25.3812 C.2     1  UNL1       -0.0144
     27 C         -31.9334   -0.6954   25.5792 C.2     1  UNL1        0.0137
     28 C         -32.0048   -1.6966   24.4118 C.2     1  UNL1        0.0929
     29 N         -31.6799   -1.0510   23.2762 N.2     1  UNL1       -0.2644
     30 C         -31.5263    0.6217   23.9581 C.3     1  UNL1        0.1479
     31 O         -29.2733   -2.8996   30.6231 O.2     1  UNL1       -0.2961
@<TRIPOS>BOND
     1     1     2    1
     2     1     8    1
     3     9    10    1
     4     8    12    1
     5    11    13    1
     6    12    13    1
     7     5    14    1
     8    14    15    1
     9    14    16    1
    10    14    17    1
    11     3    18    1
    12    18    19    2
    13    18    20    1
    14    20    21    1
    15    21    22    1
    16    22    23   ar
    17    22    24   ar
    18    21    25    1
    19    25    26    1
    20    26    27    2
    21    27    28    1
    22    28    29    2
    23    26    30    1
    24    29    30    1
    25    12    31    2
    26     8     9    1
    27    10    11    1
    28     2     3   ar
    29     3     4   ar
    30     4     5   ar
    31     5     6   ar
    32     6     7   ar
    33     7     2   ar
