@<TRIPOS>MOLECULE
No_387-gen_results/8p0m/2024-11-26-14-13-15/
 15 16 0 0 0
SMALL
GASTEIGER

@<TRIPOS>ATOM
      1 F         -28.0727   -1.2542   28.5316 F       1  UNL1       -0.2028
      2 C         -27.0607   -0.6291   28.8721 C.ar    1  UNL1        0.1556
      3 C         -27.1759    0.6153   29.3693 C.ar    1  UNL1        0.0767
      4 C         -25.7305   -1.2692   28.7241 C.ar    1  UNL1        0.0614
      5 C         -24.5526   -0.5078   29.0132 C.ar    1  UNL1        0.1529
      6 C         -25.9465    1.3753   29.6814 C.ar    1  UNL1        0.0305
      7 C         -24.6746    0.8198   29.5066 C.ar    1  UNL1        0.0864
      8 CL        -23.2634    1.6976   29.8437 Cl      1  UNL1       -0.0799
      9 F         -23.3297   -0.9798   28.8990 F       1  UNL1       -0.2032
     10 N         -28.3460    1.2020   29.5539 N.pl3   1  UNL1       -0.3057
     11 C         -28.9930    1.8209   28.5543 C.3     1  UNL1        0.0908
     12 C         -30.3121    2.2169   28.7594 C.3     1  UNL1        0.0215
     13 C         -28.9768    1.0327   30.7968 C.3     1  UNL1        0.0908
     14 C         -30.2893    1.4688   31.0449 C.3     1  UNL1        0.0215
     15 C         -30.9148    2.1429   29.9917 C.3     1  UNL1        0.0035
@<TRIPOS>BOND
     1     1     2    1
     2     7     8    1
     3     5     9    1
     4     3    10    1
     5    10    11    1
     6    10    13    1
     7    12    15    1
     8    14    15    1
     9    11    12    1
    10    14    13    1
    11     2     3   ar
    12     3     6   ar
    13     6     7   ar
    14     7     5   ar
    15     5     4   ar
    16     4     2   ar
