@<TRIPOS>MOLECULE
No_3870-gen_results/8p0m/2024-11-26-14-13-15/
 15 16 0 0 0
SMALL
GASTEIGER

@<TRIPOS>ATOM
      1 C         -28.0162   -0.8135   28.8779 C.ar    1  UNL1        0.0115
      2 C         -28.4690   -0.7850   29.8287 C.ar    1  UNL1        0.0577
      3 C         -27.0871    0.2903   28.6377 C.ar    1  UNL1        0.0047
      4 C         -26.8317    1.2487   29.5869 C.ar    1  UNL1        0.0364
      5 C         -28.3914    0.0801   31.0065 C.ar    1  UNL1        0.0115
      6 C         -27.4940    1.1521   30.7841 C.ar    1  UNL1        0.0040
      7 C         -26.2596    0.6039   27.4149 C.ar    1  UNL1        0.0139
      8 C         -25.1967    1.0461   27.3445 C.ar    1  UNL1        0.0881
      9 C         -24.8438    2.0437   28.4640 C.ar    1  UNL1        0.1842
     10 C         -25.5969    2.0134   29.6123 C.ar    1  UNL1        0.1667
     11 F         -23.7489    2.7896   28.2583 F       1  UNL1       -0.2001
     12 CL        -29.7652   -2.0862   30.1760 Cl      1  UNL1       -0.0822
     13 CL        -24.2338    1.2744   25.9308 Cl      1  UNL1       -0.0798
     14 O         -25.2588    2.8385   30.6254 O.3     1  UNL1       -0.4691
     15 C         -24.3416    2.2959   31.5418 C.3     1  UNL1        0.2526
@<TRIPOS>BOND
     1     9    11    1
     2     2    12    1
     3     8    13    1
     4    10    14    1
     5    14    15    1
     6     4    10   ar
     7    10     9   ar
     8     9     8   ar
     9     8     7   ar
    10     7     3   ar
    11     1     2   ar
    12     2     5   ar
    13     5     6   ar
    14     6     4   ar
    15     4     3   ar
    16     3     1   ar
