@<TRIPOS>MOLECULE
No_3871-gen_results/8p0m/2024-11-26-14-13-15/
 18 19 0 0 0
SMALL
GASTEIGER

@<TRIPOS>ATOM
      1 C         -28.0162   -0.8135   28.8779 C.ar    1  UNL1        0.0077
      2 C         -28.4690   -0.7850   29.8287 C.ar    1  UNL1        0.0551
      3 C         -27.0871    0.2903   28.6377 C.ar    1  UNL1        0.0391
      4 C         -26.8317    1.2487   29.5869 C.ar    1  UNL1        0.0032
      5 C         -29.4442   -1.9481   30.1840 C.2     1  UNL1        0.2648
      6 C         -27.4956    1.1303   30.8222 C.ar    1  UNL1        0.0002
      7 C         -28.3376    0.0364   31.0331 C.ar    1  UNL1        0.0046
      8 O         -29.1546   -3.1425   30.2218 O.2     1  UNL1       -0.2684
      9 N         -30.7935   -1.6903   30.4822 N.am    1  UNL1       -0.1998
     10 C         -31.7087   -2.7319   30.7124 C.3     1  UNL1        0.1388
     11 C         -26.3226    0.4249   27.3392 C.2     1  UNL1        0.1955
     12 C         -25.1533    0.8499   27.2138 C.ar    1  UNL1        0.0390
     13 C         -24.1384    0.7114   28.1669 C.ar    1  UNL1        0.0032
     14 C         -22.8773    1.3073   27.9756 C.ar    1  UNL1        0.0001
     15 C         -22.6300    2.0264   26.8094 C.ar    1  UNL1        0.0000
     16 C         -24.8019    1.6643   26.0543 C.ar    1  UNL1        0.0032
     17 C         -23.5375    2.2062   25.8695 C.ar    1  UNL1        0.0001
     18 O         -26.9899   -0.0615   26.2861 O.2     1  UNL1       -0.2866
@<TRIPOS>BOND
     1     2     5    1
     2     5     8    2
     3     5     9   am
     4     9    10    1
     5     3    11    1
     6    11    12    1
     7    11    18    2
     8    12    13   ar
     9    13    14   ar
    10    14    15   ar
    11    15    17   ar
    12    17    16   ar
    13    16    12   ar
    14     1     2   ar
    15     2     7   ar
    16     7     6   ar
    17     6     4   ar
    18     4     3   ar
    19     3     1   ar
