@<TRIPOS>MOLECULE
No_3872-gen_results/8p0m/2024-11-26-14-13-15/
 10 10 0 0 0
SMALL
GASTEIGER

@<TRIPOS>ATOM
      1 N         -28.0544   -1.0498   28.7246 N.ar    1  UNL1       -0.2323
      2 C         -26.9659   -0.4722   28.7709 C.ar    1  UNL1        0.1384
      3 C         -26.5486    0.3876   27.8310 C.ar    1  UNL1        0.0310
      4 C         -27.4759    0.7264   26.7673 C.ar    1  UNL1        0.0086
      5 C         -28.6984    0.1676   26.8682 C.ar    1  UNL1        0.0758
      6 C         -28.9965   -0.5970   27.9089 C.ar    1  UNL1        0.1044
      7 C         -29.6464    0.5427   25.8022 C.2     1  UNL1        0.2857
      8 N         -29.2799    0.7216   24.6368 N.am    1  UNL1       -0.0837
      9 O         -30.7910    0.0231   25.9971 O.2     1  UNL1       -0.2666
     10 CL        -25.7522   -0.9545   30.0100 Cl      1  UNL1       -0.0613
@<TRIPOS>BOND
     1     5     7    1
     2     7     8   am
     3     7     9    2
     4     2    10    1
     5     1     2   ar
     6     2     3   ar
     7     3     4   ar
     8     4     5   ar
     9     5     6   ar
    10     6     1   ar
