@<TRIPOS>MOLECULE
No_3873-gen_results/8p0m/2024-11-26-14-13-15/
 25 27 0 0 0
SMALL
GASTEIGER

@<TRIPOS>ATOM
      1 C         -28.0162   -0.8135   28.8779 C.ar    1  UNL1        0.0066
      2 C         -28.4690   -0.7850   29.8287 C.ar    1  UNL1        0.0798
      3 C         -27.1356    0.2359   28.5352 C.ar    1  UNL1        0.0002
      4 C         -26.3351    0.2900   27.2835 C.ar    1  UNL1        0.0002
      5 C         -29.3807   -1.9134   30.3549 C.2     1  UNL1        0.3878
      6 C         -28.2295    0.3010   30.9036 C.ar    1  UNL1        0.0066
      7 C         -25.3800    1.2740   27.0672 C.ar    1  UNL1        0.0064
      8 C         -27.4150    1.3108   30.6139 C.ar    1  UNL1        0.0002
      9 C         -26.7451    1.3177   29.4039 C.ar    1  UNL1        0.0002
     10 C         -25.1639    2.3202   27.9821 C.ar    1  UNL1        0.0757
     11 C         -25.8103    2.3449   29.1044 C.ar    1  UNL1        0.0064
     12 O         -29.8646   -1.8116   31.4748 O.co2   1  UNL1       -0.2406
     13 O         -29.4674   -2.9346   29.6950 O.co2   1  UNL1       -0.2406
     14 C         -24.1238    3.3345   27.5349 C.2     1  UNL1        0.3415
     15 O         -23.4008    3.1283   26.4655 O.2     1  UNL1       -0.2449
     16 O         -24.4324    4.6612   27.7601 O.3     1  UNL1       -0.4404
     17 C         -25.6734    5.1649   27.3925 C.3     1  UNL1        0.2352
     18 C         -25.7074    6.5239   27.8038 C.2     1  UNL1        0.0208
     19 C         -24.7523    7.2315   28.1392 C.2     1  UNL1       -0.0009
     20 C         -24.7990    8.6485   28.6029 C.ar    1  UNL1       -0.0002
     21 C         -23.6868    9.3624   29.0854 C.ar    1  UNL1       -0.0000
     22 C         -23.7075   10.2194   30.1421 C.ar    1  UNL1       -0.0000
     23 C         -25.0173   10.6862   30.5135 C.ar    1  UNL1       -0.0000
     24 C         -26.1217   10.0936   30.0276 C.ar    1  UNL1       -0.0000
     25 C         -26.0694    9.0294   29.1614 C.ar    1  UNL1       -0.0000
@<TRIPOS>BOND
     1     2     5    1
     2     5    12   ar
     3     5    13   ar
     4    10    14    1
     5    14    15    2
     6    14    16    1
     7    16    17    1
     8    17    18    1
     9    18    19    2
    10    19    20    1
    11     3     4   ar
    12     4     7   ar
    13     7    10   ar
    14    10    11   ar
    15    11     9   ar
    16     1     2   ar
    17     2     6   ar
    18     6     8   ar
    19     8     9   ar
    20     9     3   ar
    21     3     1   ar
    22    20    21   ar
    23    21    22   ar
    24    22    23   ar
    25    23    24   ar
    26    24    25   ar
    27    25    20   ar
