@<TRIPOS>MOLECULE
No_3874-gen_results/8p0m/2024-11-26-14-13-15/
 35 38 0 0 0
SMALL
GASTEIGER

@<TRIPOS>ATOM
      1 O         -28.1229   -1.3353   28.4874 O.2     1  UNL1       -0.2730
      2 C         -27.0637   -0.8242   28.8687 C.2     1  UNL1        0.2450
      3 C         -26.9592    0.0926   29.7582 C.3     1  UNL1        0.1010
      4 N         -25.8011   -1.3566   28.3971 N.am    1  UNL1       -0.2046
      5 C         -25.7368    0.7239   30.2099 C.3     1  UNL1        0.0266
      6 C         -24.5490   -0.8600   28.7870 C.3     1  UNL1        0.1264
      7 C         -24.5149    0.1880   29.6985 C.3     1  UNL1        0.1258
      8 C         -23.2206    0.7326   30.0471 C.2     1  UNL1        0.3661
      9 O         -22.1493    0.1095   29.7183 O.co2   1  UNL1       -0.2456
     10 O         -23.1336    1.5229   31.0883 O.co2   1  UNL1       -0.2456
     11 C         -28.2019    0.6614   30.3559 C.ar    1  UNL1       -0.0136
     12 C         -28.8099    0.0434   31.2306 C.ar    1  UNL1       -0.0038
     13 C         -30.0419    0.5593   31.8812 C.ar    1  UNL1       -0.0001
     14 C         -30.4850    1.8087   31.4490 C.ar    1  UNL1        0.0064
     15 C         -29.7569    2.4704   30.4672 C.ar    1  UNL1        0.0754
     16 C         -28.5678    1.9721   29.9355 C.ar    1  UNL1        0.0026
     17 C         -30.1815    3.8351   30.0240 C.2     1  UNL1        0.3416
     18 O         -30.1224    4.2199   29.0032 O.2     1  UNL1       -0.2449
     19 O         -30.9335    4.4888   31.0138 O.3     1  UNL1       -0.4371
     20 C         -31.0474    5.8099   30.8930 C.3     1  UNL1        0.2751
     21 C         -30.1341    6.5995   31.3553 C.2     1  UNL1        0.4045
     22 O         -29.6194    6.3157   32.4081 O.co2   1  UNL1       -0.2416
     23 O         -29.7218    7.6217   30.6980 O.co2   1  UNL1       -0.2416
     24 C         -32.4238    6.1505   31.5889 C.3     1  UNL1        0.0819
     25 C         -32.5995    6.0356   32.8515 C.ar    1  UNL1       -0.0180
     26 C         -33.9000    6.2303   33.3777 C.ar    1  UNL1       -0.0037
     27 C         -34.0987    6.1167   34.7905 C.ar    1  UNL1        0.0019
     28 C         -35.3476    6.3258   35.4048 C.ar    1  UNL1        0.0296
     29 C         -36.4197    6.5513   34.5500 C.ar    1  UNL1        0.1401
     30 C         -36.2247    6.6136   33.1787 C.ar    1  UNL1        0.0296
     31 C         -34.9577    6.4375   32.5857 C.ar    1  UNL1        0.0020
     32 F         -37.6155    6.7643   35.0085 F       1  UNL1       -0.2042
     33 C         -32.8162    5.7371   35.4994 C.ar    1  UNL1        0.0001
     34 C         -31.6563    5.5440   34.9378 C.ar    1  UNL1       -0.0003
     35 C         -31.5216    5.6586   33.7337 C.ar    1  UNL1       -0.0041
@<TRIPOS>BOND
     1     1     2    2
     2     2     3    1
     3     2     4   am
     4     3     5    1
     5     5     7    1
     6     6     7    1
     7     7     8    1
     8     8     9   ar
     9     8    10   ar
    10     3    11    1
    11    15    17    1
    12    17    18    2
    13    17    19    1
    14    19    20    1
    15    20    21    1
    16    21    22   ar
    17    21    23   ar
    18    20    24    1
    19    24    25    1
    20    29    32    1
    21     6     4    1
    22    27    28   ar
    23    28    29   ar
    24    29    30   ar
    25    30    31   ar
    26    31    26   ar
    27    11    12   ar
    28    12    13   ar
    29    13    14   ar
    30    14    15   ar
    31    15    16   ar
    32    16    11   ar
    33    25    26   ar
    34    26    27   ar
    35    27    33   ar
    36    33    34   ar
    37    34    35   ar
    38    35    25   ar
