@<TRIPOS>MOLECULE
No_3875-gen_results/8p0m/2024-11-26-14-13-15/
 24 26 0 0 0
SMALL
GASTEIGER

@<TRIPOS>ATOM
      1 C         -28.0162   -0.8135   28.8779 C.ar    1  UNL1        0.0064
      2 C         -28.4690   -0.7850   29.8287 C.ar    1  UNL1        0.0756
      3 C         -26.5455   -0.8762   28.8500 C.ar    1  UNL1        0.0002
      4 C         -25.8041   -1.0324   30.0571 C.ar    1  UNL1        0.0000
      5 C         -27.9437   -0.9869   31.2075 C.ar    1  UNL1        0.0064
      6 C         -26.5825   -1.0386   31.2231 C.ar    1  UNL1        0.0002
      7 C         -24.3810   -1.1082   30.0855 C.ar    1  UNL1        0.0000
      8 C         -23.7590   -1.1322   30.8961 C.ar    1  UNL1        0.0000
      9 C         -22.2395   -1.0663   30.9853 C.ar    1  UNL1        0.0000
     10 C         -21.6850   -0.8653   29.7652 C.ar    1  UNL1        0.0000
     11 C         -22.4213   -0.7283   28.5819 C.ar    1  UNL1        0.0000
     12 C         -23.8520   -0.8586   28.7157 C.ar    1  UNL1        0.0000
     13 C         -30.0822   -0.7307   30.0457 C.2     1  UNL1        0.3413
     14 O         -30.6630   -0.0119   29.3672 O.3     1  UNL1       -0.4425
     15 O         -30.6871   -1.4732   30.9167 O.2     1  UNL1       -0.2449
     16 C         -31.9987   -0.1216   28.9402 C.3     1  UNL1        0.2413
     17 C         -32.1472   -0.1876   27.6621 C.3     1  UNL1        0.1828
     18 CL        -31.1017    0.5821   26.6538 Cl      1  UNL1       -0.0930
     19 N         -32.2041   -1.6131   27.1094 N.3     1  UNL1       -0.2581
     20 C         -32.2188   -1.8559   25.7777 C.3     1  UNL1        0.0732
     21 C         -32.3258   -2.7084   27.9746 C.3     1  UNL1        0.0732
     22 C         -32.4327   -3.9882   27.4112 C.3     1  UNL1        0.0174
     23 C         -32.3255   -3.1930   25.2573 C.3     1  UNL1        0.0174
     24 C         -32.4190   -4.2157   26.0703 C.3     1  UNL1        0.0029
@<TRIPOS>BOND
     1     4     7    1
     2     2    13    1
     3    13    14    1
     4    13    15    2
     5    14    16    1
     6    16    17    1
     7    17    18    1
     8    17    19    1
     9    19    20    1
    10    19    21    1
    11    22    24    1
    12    23    24    1
    13    20    23    1
    14    22    21    1
    15     1     2   ar
    16     2     5   ar
    17     5     6   ar
    18     6     4   ar
    19     4     3   ar
    20     3     1   ar
    21     7     8   ar
    22     8     9   ar
    23     9    10   ar
    24    10    11   ar
    25    11    12   ar
    26    12     7   ar
