@<TRIPOS>MOLECULE
No_3876-gen_results/8p0m/2024-11-26-14-13-15/
 35 38 0 0 0
SMALL
GASTEIGER

@<TRIPOS>ATOM
      1 C         -28.0162   -0.8135   28.8779 C.ar    1  UNL1        0.0075
      2 C         -27.0636   -0.1189   28.6079 C.ar    1  UNL1        0.0341
      3 C         -25.7923   -0.4302   29.0761 C.ar    1  UNL1        0.0030
      4 C         -25.5756   -1.5654   29.9363 C.ar    1  UNL1        0.0002
      5 C         -26.7354   -2.3004   30.2173 C.ar    1  UNL1        0.0045
      6 C         -27.9184   -1.9537   29.7629 C.ar    1  UNL1        0.0537
      7 C         -27.1057    1.1023   27.7593 C.ar    1  UNL1        0.1392
      8 C         -26.1219    1.4820   27.0232 C.ar    1  UNL1        0.0381
      9 C         -24.7142    1.1299   27.4889 C.ar    1  UNL1        0.0162
     10 C         -24.5718    0.0966   28.4066 C.ar    1  UNL1        0.0014
     11 C         -23.5495    1.7790   26.9027 C.2     1  UNL1        0.0553
     12 N         -22.4536    1.9030   27.6175 N.2     1  UNL1       -0.2725
     13 C         -23.5345    2.2077   25.5484 C.3     1  UNL1        0.0658
     14 C         -29.0839   -2.7162   30.2574 C.2     1  UNL1        0.2490
     15 N         -30.1918   -2.2526   30.3285 N.am    1  UNL1       -0.2761
     16 O         -28.9087   -3.9449   30.6047 O.2     1  UNL1       -0.2699
     17 C         -31.4143   -2.9861   30.7506 C.3     1  UNL1        0.0937
     18 C         -32.4473   -2.3928   30.8882 C.3     1  UNL1        0.0216
     19 C         -32.5651   -1.2260   30.3587 C.3     1  UNL1        0.0035
     20 C         -31.5821   -0.3723   29.8547 C.3     1  UNL1        0.0216
     21 C         -30.4054   -0.8868   29.8993 C.3     1  UNL1        0.0937
     22 C         -22.2721    2.6976   25.1301 C.3     1  UNL1        0.1156
     23 C         -22.4375    1.5726   28.9398 C.3     1  UNL1        0.1513
     24 O         -28.3455    1.5138   27.4317 O.3     1  UNL1       -0.4656
     25 C         -28.8676    1.5862   26.2621 C.3     1  UNL1        0.2896
     26 C         -30.1178    1.2598   26.1137 C.2     1  UNL1        0.2702
     27 N         -31.0019    1.6035   26.9901 N.am    1  UNL1       -0.2765
     28 C         -30.8710    2.4310   27.8450 C.3     1  UNL1        0.0935
     29 C         -32.4145    0.9980   26.8696 C.3     1  UNL1        0.0935
     30 O         -30.4543    0.3674   25.1904 O.2     1  UNL1       -0.2708
     31 N         -21.4506    2.0416   25.1216 N.3     1  UNL1       -0.1310
     32 C         -32.0267    3.2896   28.3191 C.3     1  UNL1        0.0199
     33 C         -33.4653    1.9145   27.1077 C.3     1  UNL1        0.0216
     34 C         -33.3267    2.7690   28.2708 C.3     1  UNL1        0.0035
     35 C         -31.7711    4.4517   29.2582 C.3     1  UNL1        0.0018
@<TRIPOS>BOND
     1     9    11    1
     2    11    12    2
     3    11    13    1
     4     6    14    1
     5    14    15   am
     6    14    16    2
     7    15    17    1
     8    17    18    1
     9    19    20    1
    10    15    21    1
    11    13    22    1
    12    12    23    1
    13     7    24    1
    14    24    25    1
    15    25    26    1
    16    26    27   am
    17    27    28    1
    18    27    29    1
    19    26    30    2
    20    22    31    1
    21    29    33    1
    22    32    34    1
    23    32    35    1
    24    28    32    1
    25    34    33    1
    26    18    19    1
    27    20    21    1
    28     1     2   ar
    29     3     4   ar
    30     4     5   ar
    31     5     6   ar
    32     6     1   ar
    33     2     3   ar
    34     3    10   ar
    35    10     9   ar
    36     9     8   ar
    37     8     7   ar
    38     7     2   ar
