@<TRIPOS>MOLECULE
No_3877-gen_results/8p0m/2024-11-26-14-13-15/
 13 13 0 0 0
SMALL
GASTEIGER

@<TRIPOS>ATOM
      1 O         -28.1229   -1.3353   28.4874 O.2     1  UNL1       -0.2567
      2 C         -27.0637   -0.8242   28.8687 C.2     1  UNL1        0.3105
      3 CL        -25.8078   -1.2265   28.9669 Cl      1  UNL1       -0.0222
      4 N         -27.2294    0.6419   29.2856 N.am    1  UNL1       -0.2587
      5 C         -28.4738    1.2765   29.2675 C.3     1  UNL1        0.1216
      6 C         -29.1710    1.1150   30.2217 C.2     1  UNL1       -0.0026
      7 C         -28.7637    1.1967   31.4695 C.2     1  UNL1       -0.0029
      8 C         -27.3672    1.5685   31.7070 C.2     1  UNL1       -0.0031
      9 C         -26.2106    1.2891   30.9998 C.2     1  UNL1       -0.0047
     10 C         -26.1340    1.0968   29.8352 C.3     1  UNL1        0.1213
     11 C         -30.6680    1.1822   30.1031 C.2     1  UNL1       -0.0072
     12 C         -31.3730    0.0905   30.3872 C.2     1  UNL1       -0.0261
     13 C         -32.8056    0.0303   30.1981 C.3     1  UNL1        0.0307
@<TRIPOS>BOND
     1     1     2    2
     2     2     3    1
     3     2     4   am
     4     4     5    1
     5     5     6    1
     6     6     7    2
     7     7     8    1
     8     8     9    2
     9     4    10    1
    10     9    10    1
    11     6    11    1
    12    11    12    2
    13    12    13    1
