@<TRIPOS>MOLECULE
No_3878-gen_results/8p0m/2024-11-26-14-13-15/
 10 9 0 0 0
SMALL
GASTEIGER

@<TRIPOS>ATOM
      1 CL        -28.1493   -0.8198   28.9079 Cl      1  UNL1       -0.0424
      2 C         -27.8339    0.4961   29.0598 C.3     1  UNL1        0.3499
      3 F         -27.8833    1.0376   30.1944 F       1  UNL1       -0.1825
      4 C         -26.3797    0.7729   28.5385 C.2     1  UNL1        0.0556
      5 F         -28.6112    1.2493   28.2241 F       1  UNL1       -0.1825
      6 C         -26.0297    0.7143   27.2839 C.2     1  UNL1        0.0051
      7 C         -26.9655    0.4209   26.3783 C.2     1  UNL1        0.0373
      8 C         -28.2803    0.6791   26.4637 C.2     1  UNL1        0.1736
      9 C         -29.3636    0.8022   25.8014 C.3     1  UNL1        0.0773
     10 O         -29.0386    0.8336   27.1228 O.2     1  UNL1       -0.2913
@<TRIPOS>BOND
     1     1     2    1
     2     2     3    1
     3     2     4    1
     4     2     5    1
     5     4     6    2
     6     6     7    1
     7     7     8    2
     8     8     9    1
     9     8    10    1
