@<TRIPOS>MOLECULE
No_3879-gen_results/8p0m/2024-11-26-14-13-15/
 12 12 0 0 0
SMALL
GASTEIGER

@<TRIPOS>ATOM
      1 O         -28.1229   -1.3353   28.4874 O.2     1  UNL1       -0.2733
      2 C         -27.4806   -0.4044   28.7094 C.2     1  UNL1        0.2412
      3 C         -27.1904    0.2460   29.5268 C.3     1  UNL1        0.0822
      4 N         -26.8157    0.1371   27.4262 N.am    1  UNL1       -0.2054
      5 C         -26.3550    1.4196   29.7643 C.3     1  UNL1        0.0113
      6 C         -26.0125    1.2307   27.4050 C.3     1  UNL1        0.1152
      7 C         -25.7456    1.9087   28.5801 C.3     1  UNL1        0.0239
      8 C         -27.7749   -0.3773   30.8629 C.3     1  UNL1        0.0303
      9 C         -27.0571   -0.5769   31.8175 C.3     1  UNL1        0.0052
     10 C         -29.0773    0.3363   31.2291 C.2     1  UNL1       -0.0305
     11 C         -29.9466    0.5712   30.4488 C.2     1  UNL1       -0.0304
     12 C         -29.9692    0.1965   29.0584 C.3     1  UNL1        0.0303
@<TRIPOS>BOND
     1     1     2    2
     2     2     3    1
     3     2     4   am
     4     4     6    1
     5     5     7    1
     6     3     8    1
     7     8     9    1
     8     8    10    1
     9    10    11    2
    10    11    12    1
    11     3     5    1
    12     7     6    1
