@<TRIPOS>MOLECULE
No_388-gen_results/8p0m/2024-11-26-14-13-15/
 8 8 0 0 0
SMALL
GASTEIGER

@<TRIPOS>ATOM
      1 C         -28.0162   -0.8135   28.8779 C.ar    1  UNL1        0.0410
      2 C         -27.0636   -0.1189   28.6079 C.ar    1  UNL1        0.1410
      3 C         -25.7923   -0.4302   29.0761 C.ar    1  UNL1        0.0297
      4 C         -25.5756   -1.5654   29.9363 C.ar    1  UNL1        0.0032
      5 C         -26.7354   -2.3004   30.2173 C.ar    1  UNL1        0.0115
      6 C         -27.8207   -1.9449   29.7721 C.ar    1  UNL1        0.0599
      7 F         -27.1356    0.9933   27.8755 F       1  UNL1       -0.2041
      8 CL        -29.2344   -2.9224   30.2254 Cl      1  UNL1       -0.0822
@<TRIPOS>BOND
     1     2     7    1
     2     6     8    1
     3     1     2   ar
     4     2     3   ar
     5     3     4   ar
     6     4     5   ar
     7     5     6   ar
     8     6     1   ar
