@<TRIPOS>MOLECULE
No_3880-gen_results/8p0m/2024-11-26-14-13-15/
 21 24 0 0 0
SMALL
GASTEIGER

@<TRIPOS>ATOM
      1 C         -28.0162   -0.8135   28.8779 C.ar    1  UNL1        0.0158
      2 C         -28.4690   -0.7850   29.8287 C.ar    1  UNL1        0.0620
      3 C         -26.5455   -0.8762   28.8500 C.ar    1  UNL1        0.0013
      4 C         -25.8041   -1.0324   30.0571 C.ar    1  UNL1       -0.0002
      5 C         -26.5373   -1.0386   31.2171 C.ar    1  UNL1       -0.0027
      6 C         -27.8843   -0.9532   31.1862 C.ar    1  UNL1       -0.0029
      7 C         -24.3655   -1.1134   30.0483 C.ar    1  UNL1       -0.0000
      8 C         -23.7447   -1.3690   30.8125 C.ar    1  UNL1       -0.0000
      9 C         -22.2072   -1.2504   30.8577 C.ar    1  UNL1       -0.0000
     10 C         -21.6856   -0.8191   29.6527 C.ar    1  UNL1        0.0000
     11 C         -23.7345   -0.6112   28.7797 C.ar    1  UNL1       -0.0000
     12 C         -22.4343   -0.4609   28.6549 C.ar    1  UNL1       -0.0000
     13 N         -29.9588   -0.6745   29.9048 N.pl3   1  UNL1       -0.2331
     14 C         -30.7514   -1.4176   30.3847 C.3     1  UNL1        0.1382
     15 C         -30.4537   -2.4716   30.9898 C.ar    1  UNL1       -0.0043
     16 C         -30.5795   -3.5253   30.7855 C.ar    1  UNL1       -0.0029
     17 C         -30.0397   -4.7715   31.4432 C.ar    1  UNL1       -0.0003
     18 C         -29.3825   -4.5498   32.6163 C.ar    1  UNL1       -0.0003
     19 C         -29.2068   -3.3099   33.0826 C.ar    1  UNL1       -0.0042
     20 C         -29.6293   -2.2919   32.3408 C.ar    1  UNL1       -0.0200
     21 C         -28.1525   -1.5445   31.9160 C.3     1  UNL1        0.0537
@<TRIPOS>BOND
     1     4     7    1
     2     2    13    1
     3    13    14    1
     4     6    21    1
     5    20    21    1
     6    14    15    1
     7     7     8   ar
     8     8     9   ar
     9     9    10   ar
    10    10    12   ar
    11    12    11   ar
    12    11     7   ar
    13     1     2   ar
    14     2     6   ar
    15     6     5   ar
    16     5     4   ar
    17     4     3   ar
    18     3     1   ar
    19    15    16   ar
    20    16    17   ar
    21    17    18   ar
    22    18    19   ar
    23    19    20   ar
    24    20    15   ar
