@<TRIPOS>MOLECULE
No_3882-gen_results/8p0m/2024-11-26-14-13-15/
 14 15 0 0 0
SMALL
GASTEIGER

@<TRIPOS>ATOM
      1 C         -28.0162   -0.8135   28.8779 C.ar    1  UNL1       -0.0000
      2 C         -28.4690   -0.7850   29.8287 C.ar    1  UNL1       -0.0000
      3 C         -26.5042   -0.7777   28.8766 C.ar    1  UNL1       -0.0000
      4 C         -25.7622   -0.0022   27.9705 C.ar    1  UNL1       -0.0003
      5 C         -29.9993   -0.7599   29.8953 C.ar    1  UNL1        0.0000
      6 C         -24.3210   -0.0297   28.0177 C.ar    1  UNL1       -0.0028
      7 C         -23.6855   -0.8662   28.9737 C.ar    1  UNL1       -0.0032
      8 C         -22.2639   -0.8437   29.0536 C.3     1  UNL1        0.1356
      9 C         -24.4308   -1.6610   29.8703 C.ar    1  UNL1       -0.0028
     10 C         -25.8017   -1.6269   29.7763 C.ar    1  UNL1       -0.0003
     11 C         -30.5919   -0.4814   28.7215 C.ar    1  UNL1        0.0000
     12 C         -29.8909   -0.2187   27.6168 C.ar    1  UNL1        0.0000
     13 C         -28.5425   -0.2329   27.6601 C.ar    1  UNL1       -0.0000
     14 N         -21.4275    0.0425   29.3891 N.3     1  UNL1       -0.1262
@<TRIPOS>BOND
     1     1     3    1
     2     7     8    1
     3     8    14    1
     4     1     2   ar
     5     2     5   ar
     6     5    11   ar
     7    11    12   ar
     8    12    13   ar
     9    13     1   ar
    10     3     4   ar
    11     4     6   ar
    12     6     7   ar
    13     7     9   ar
    14     9    10   ar
    15    10     3   ar
