@<TRIPOS>MOLECULE
No_3883-gen_results/8p0m/2024-11-26-14-13-15/
 20 22 0 0 0
SMALL
GASTEIGER

@<TRIPOS>ATOM
      1 O         -28.1229   -1.3353   28.4874 O.2     1  UNL1       -0.2745
      2 C         -27.4806   -0.4044   28.7094 C.2     1  UNL1        0.2312
      3 C         -27.1904    0.2460   29.5268 C.3     1  UNL1        0.0996
      4 N         -26.8157    0.1371   27.4262 N.am    1  UNL1       -0.2503
      5 C         -26.3550    1.4196   29.7643 C.3     1  UNL1        0.0279
      6 C         -26.0125    1.2307   27.4050 C.3     1  UNL1        0.1628
      7 C         -25.7456    1.9087   28.5801 C.3     1  UNL1        0.1391
      8 N         -25.4741    1.6476   26.2645 N.3     1  UNL1       -0.1807
      9 C         -25.2539    1.0398   25.2556 C.3     1  UNL1        0.1812
     10 N         -25.9995   -0.0808   25.0689 N.3     1  UNL1       -0.1783
     11 C         -26.7342   -0.5829   26.1965 C.3     1  UNL1        0.1877
     12 C         -27.8227   -0.2605   30.9174 C.ar    1  UNL1       -0.0139
     13 C         -24.8816    3.1278   28.6296 C.2     1  UNL1        0.3674
     14 O         -24.6642    3.7069   29.6104 O.co2   1  UNL1       -0.2456
     15 O         -24.5110    3.7088   27.4661 O.co2   1  UNL1       -0.2456
     16 C         -28.8913    0.5617   31.3802 C.ar    1  UNL1       -0.0038
     17 C         -29.5689    0.0591   32.3032 C.ar    1  UNL1       -0.0003
     18 C         -29.2129   -1.1661   32.9664 C.ar    1  UNL1       -0.0000
     19 C         -28.2045   -1.9357   32.4192 C.ar    1  UNL1       -0.0003
     20 C         -27.4603   -1.4575   31.3417 C.ar    1  UNL1       -0.0038
@<TRIPOS>BOND
     1     1     2    2
     2     2     3    1
     3     2     4   am
     4     4     6    1
     5     5     7    1
     6     6     7    1
     7     6     8    1
     8     8     9    1
     9     9    10    1
    10     4    11    1
    11    10    11    1
    12     3    12    1
    13     7    13    1
    14    13    14   ar
    15    13    15   ar
    16     3     5    1
    17    12    16   ar
    18    16    17   ar
    19    17    18   ar
    20    18    19   ar
    21    19    20   ar
    22    20    12   ar
