@<TRIPOS>MOLECULE
No_3884-gen_results/8p0m/2024-11-26-14-13-15/
 16 18 0 0 0
SMALL
GASTEIGER

@<TRIPOS>ATOM
      1 C         -28.0162   -0.8135   28.8779 C.ar    1  UNL1        0.0029
      2 C         -28.4690   -0.7850   29.8287 C.ar    1  UNL1        0.0001
      3 C         -26.5455   -0.8762   28.8500 C.ar    1  UNL1        0.0350
      4 C         -25.8041   -1.0324   30.0571 C.ar    1  UNL1       -0.0188
      5 C         -27.9437   -0.9869   31.2075 C.ar    1  UNL1       -0.0003
      6 C         -24.4008   -1.0969   30.0965 C.3     1  UNL1        0.0311
      7 C         -26.5612   -1.0746   31.2270 C.ar    1  UNL1       -0.0042
      8 C         -23.7186    0.1121   29.8577 C.3     1  UNL1        0.0311
      9 C         -23.3042    0.5338   28.6704 C.ar    1  UNL1       -0.0188
     10 C         -22.6161    1.6994   28.4212 C.ar    1  UNL1       -0.0042
     11 C         -23.0462    2.3310   27.3355 C.ar    1  UNL1       -0.0003
     12 C         -23.8300    1.7136   26.2934 C.ar    1  UNL1        0.0001
     13 C         -24.4168    0.5336   26.5570 C.ar    1  UNL1        0.0029
     14 C         -24.2412   -0.0133   27.7200 C.ar    1  UNL1        0.0350
     15 C         -25.6340   -0.4484   27.7638 C.2     1  UNL1        0.1949
     16 O         -26.1290   -0.7941   26.5541 O.2     1  UNL1       -0.2866
@<TRIPOS>BOND
     1     4     6    1
     2     6     8    1
     3     8     9    1
     4     3    15    1
     5    14    15    1
     6    15    16    2
     7     9    10   ar
     8    10    11   ar
     9    11    12   ar
    10    12    13   ar
    11    13    14   ar
    12    14     9   ar
    13     1     2   ar
    14     2     5   ar
    15     5     7   ar
    16     7     4   ar
    17     4     3   ar
    18     3     1   ar
