@<TRIPOS>MOLECULE
No_3885-gen_results/8p0m/2024-11-26-14-13-15/
 18 18 0 0 0
SMALL
GASTEIGER

@<TRIPOS>ATOM
      1 C         -28.0162   -0.8135   28.8779 C.2     1  UNL1        0.0808
      2 C         -27.0636   -0.1189   28.6079 C.2     1  UNL1        0.0045
      3 C         -26.9716    0.7139   27.5060 C.3     1  UNL1        0.1206
      4 C         -25.8206    1.4910   27.1160 C.3     1  UNL1        0.0266
      5 C         -24.6562    1.4242   27.9180 C.3     1  UNL1        0.1073
      6 C         -24.6847    0.5901   29.0659 C.3     1  UNL1        0.0508
      7 C         -25.8099   -0.1265   29.3338 C.3     1  UNL1        0.1806
      8 C         -29.2186   -0.0422   29.3127 C.2     1  UNL1        0.3874
      9 O         -30.1750   -0.7693   29.7129 O.co2   1  UNL1       -0.2406
     10 O         -29.3128    1.1255   29.1980 O.co2   1  UNL1       -0.2406
     11 C         -23.4791    2.2087   27.5910 C.2     1  UNL1        0.3644
     12 O         -22.6141    2.3223   28.4736 O.co2   1  UNL1       -0.2457
     13 O         -23.2672    2.5635   26.3527 O.co2   1  UNL1       -0.2457
     14 F         -25.7338   -0.8914   30.4214 F       1  UNL1       -0.2328
     15 C         -28.1119    0.8204   26.5597 C.2     1  UNL1        0.3205
     16 O         -27.9359    0.5073   25.3772 O.2     1  UNL1       -0.2498
     17 O         -29.2214    1.3025   26.9180 O.3     1  UNL1       -0.4442
     18 C         -29.7059    2.0254   25.7960 C.3     1  UNL1        0.2556
@<TRIPOS>BOND
     1     1     2    2
     2     2     3    1
     3     3     4    1
     4     4     5    1
     5     5     6    1
     6     2     7    1
     7     6     7    1
     8     1     8    1
     9     8     9   ar
    10     8    10   ar
    11     5    11    1
    12    11    12   ar
    13    11    13   ar
    14     7    14    1
    15     3    15    1
    16    15    16    2
    17    15    17    1
    18    17    18    1
