@<TRIPOS>MOLECULE
No_3887-gen_results/8p0m/2024-11-26-14-13-15/
 19 20 0 0 0
SMALL
GASTEIGER

@<TRIPOS>ATOM
      1 F         -28.0727   -1.2542   28.5316 F       1  UNL1       -0.2017
      2 C         -27.3591   -0.3792   28.7224 C.ar    1  UNL1        0.1698
      3 C         -26.3323   -0.6441   29.4520 C.ar    1  UNL1        0.1978
      4 C         -25.2562    0.3203   29.7818 C.ar    1  UNL1        0.2082
      5 C         -25.4242    1.6275   29.2026 C.ar    1  UNL1        0.2253
      6 C         -26.5263    1.8254   28.4032 C.ar    1  UNL1        0.0468
      7 C         -27.4513    0.8601   28.1355 C.ar    1  UNL1        0.0331
      8 C         -28.5399    1.2022   27.2448 C.ar    1  UNL1        0.0025
      9 C         -28.4423    2.0101   26.2543 C.ar    1  UNL1        0.0001
     10 C         -29.4915    2.2231   25.3457 C.ar    1  UNL1        0.0002
     11 C         -30.6227    1.4224   25.3995 C.ar    1  UNL1        0.0066
     12 C         -30.6794    0.4779   26.4025 C.ar    1  UNL1        0.0798
     13 C         -29.6789    0.3260   27.2833 C.ar    1  UNL1        0.0066
     14 O         -24.7391    2.6787   29.5808 O.3     1  UNL1       -0.2841
     15 C         -31.9049   -0.3397   26.4797 C.2     1  UNL1        0.3878
     16 O         -32.5158   -0.6280   27.4522 O.co2   1  UNL1       -0.2406
     17 O         -32.3355   -0.9489   25.3394 O.co2   1  UNL1       -0.2406
     18 F         -26.0543   -1.8327   30.0221 F       1  UNL1       -0.1993
     19 F         -24.2708    0.1231   30.6281 F       1  UNL1       -0.1983
@<TRIPOS>BOND
     1     1     2    1
     2     7     8    1
     3     5    14    1
     4    12    15    1
     5    15    16   ar
     6    15    17   ar
     7     3    18    1
     8     4    19    1
     9     2     3   ar
    10     3     4   ar
    11     4     5   ar
    12     5     6   ar
    13     6     7   ar
    14     7     2   ar
    15     8     9   ar
    16     9    10   ar
    17    10    11   ar
    18    11    12   ar
    19    12    13   ar
    20    13     8   ar
