@<TRIPOS>MOLECULE
No_3888-gen_results/8p0m/2024-11-26-14-13-15/
 35 38 0 0 0
SMALL
GASTEIGER

@<TRIPOS>ATOM
      1 C         -28.0162   -0.8135   28.8779 C.ar    1  UNL1       -0.0016
      2 C         -28.4690   -0.7850   29.8287 C.ar    1  UNL1        0.0087
      3 C         -27.1356    0.2359   28.5352 C.ar    1  UNL1       -0.0002
      4 C         -26.8745    1.2825   29.3982 C.ar    1  UNL1       -0.0001
      5 C         -29.3953   -1.9238   30.2863 C.3     1  UNL1        0.1553
      6 C         -27.5236    1.2089   30.6379 C.ar    1  UNL1       -0.0002
      7 C         -28.3224    0.1273   30.9590 C.ar    1  UNL1       -0.0016
      8 N         -30.3935   -1.8354   30.1620 N.3     1  UNL1       -0.1993
      9 N         -28.6978   -3.1709   30.4027 N.3     1  UNL1       -0.2567
     10 C         -29.4549   -4.2860   30.5703 C.3     1  UNL1        0.0751
     11 C         -31.2948   -2.9530   30.3798 C.3     1  UNL1        0.0919
     12 C         -30.7759   -4.2253   30.5508 C.3     1  UNL1        0.0362
     13 C         -26.4751    0.2715   27.1721 C.ar    1  UNL1       -0.0001
     14 C         -25.4234    1.1047   26.9864 C.ar    1  UNL1        0.0039
     15 C         -25.1754    2.2041   27.9296 C.ar    1  UNL1        0.0714
     16 C         -25.8315    2.2300   29.1312 C.ar    1  UNL1        0.0039
     17 C         -24.1211    3.1830   27.5292 C.3     1  UNL1        0.4186
     18 F         -23.3719    2.9392   26.6212 F       1  UNL1       -0.1659
     19 F         -24.8496    4.3840   27.1387 F       1  UNL1       -0.1659
     20 F         -23.4353    3.6327   28.5651 F       1  UNL1       -0.1659
     21 C         -27.2132   -3.2857   30.4039 C.3     1  UNL1        0.0736
     22 C         -26.5960   -3.4881   29.1182 C.3     1  UNL1        0.0174
     23 C         -25.1308   -3.6054   29.3112 C.3     1  UNL1        0.0014
     24 C         -24.3446   -4.1106   28.2943 C.3     1  UNL1        0.0000
     25 C         -27.2586    2.2751   31.6633 C.ar    1  UNL1       -0.0003
     26 C         -27.4924    2.3276   32.7187 C.ar    1  UNL1       -0.0000
     27 C         -27.4894    3.0217   33.5962 C.ar    1  UNL1       -0.0003
     28 C         -26.9931    4.4277   33.2917 C.ar    1  UNL1       -0.0039
     29 C         -26.5714    4.6114   31.9644 C.ar    1  UNL1       -0.0178
     30 C         -26.7574    3.5746   31.0770 C.ar    1  UNL1       -0.0039
     31 C         -26.0266    5.9357   31.5985 C.3     1  UNL1        0.0523
     32 C         -26.9008    6.9757   31.4728 C.2     1  UNL1       -0.0214
     33 C         -27.1450    7.5157   30.4730 C.2     1  UNL1       -0.0042
     34 C         -26.1976    7.4722   29.3190 C.2     1  UNL1       -0.0003
     35 C         -25.0955    6.5886   29.5022 C.2     1  UNL1       -0.0000
@<TRIPOS>BOND
     1     2     5    1
     2     5     9    1
     3     9    10    1
     4     8    11    1
     5    15    17    1
     6    17    18    1
     7    17    19    1
     8    17    20    1
     9     9    21    1
    10    21    22    1
    11    22    23    1
    12    23    24    1
    13     6    25    1
    14    29    31    1
    15    31    32    1
    16    32    33    2
    17    33    34    1
    18    34    35    2
    19     5     8    1
    20    11    12    1
    21    12    10    1
    22    25    26   ar
    23    26    27   ar
    24    27    28   ar
    25    28    29   ar
    26    29    30   ar
    27    30    25   ar
    28     4    16   ar
    29    16    15   ar
    30    15    14   ar
    31    14    13   ar
    32    13     3   ar
    33     1     2   ar
    34     2     7   ar
    35     7     6   ar
    36     6     4   ar
    37     4     3   ar
    38     3     1   ar
