@<TRIPOS>MOLECULE
No_3889-gen_results/8p0m/2024-11-26-14-13-15/
 29 32 0 0 0
SMALL
GASTEIGER

@<TRIPOS>ATOM
      1 C         -28.0162   -0.8135   28.8779 C.ar    1  UNL1        0.1631
      2 C         -28.4690   -0.7850   29.8287 C.ar    1  UNL1        0.0908
      3 C         -28.1816    0.4277   28.1134 C.ar    1  UNL1        0.0879
      4 C         -28.9841    1.4155   28.5154 C.ar    1  UNL1        0.0213
      5 C         -29.1348   -0.0357   30.3781 C.ar    1  UNL1        0.0110
      6 C         -29.4533    1.1975   29.7711 C.ar    1  UNL1        0.0438
      7 N         -27.5453    0.4915   26.8211 N.pl3   1  UNL1       -0.2688
      8 C         -27.8997    0.7550   25.8197 C.ar    1  UNL1        0.0528
      9 C         -26.0561    0.2186   26.8583 C.3     1  UNL1        0.1836
     10 C         -25.3331   -0.0245   27.9666 C.ar    1  UNL1        0.0482
     11 C         -23.9798    0.0109   27.9966 C.ar    1  UNL1        0.0312
     12 C         -23.1910   -0.3119   29.1744 C.ar    1  UNL1        0.1401
     13 C         -23.8315   -0.8956   30.2568 C.ar    1  UNL1        0.0327
     14 C         -25.1624   -1.0130   30.2862 C.ar    1  UNL1        0.0396
     15 C         -25.8837   -0.6211   29.2337 C.ar    1  UNL1        0.1442
     16 O         -27.0723   -0.9441   29.2896 O.3     1  UNL1       -0.4523
     17 C         -28.7161   -2.2625   30.4535 C.2     1  UNL1        0.2678
     18 CL        -25.2308    0.4380   25.4068 Cl      1  UNL1       -0.0873
     19 O         -27.9386   -3.0882   30.6656 O.2     1  UNL1       -0.2683
     20 N         -30.0102   -2.5434   30.8172 N.am    1  UNL1       -0.1997
     21 C         -30.4073   -3.8285   31.3955 C.3     1  UNL1        0.1388
     22 C         -28.4204    2.0841   25.5270 C.ar    1  UNL1        0.0149
     23 C         -28.4551   -0.1790   24.8881 C.ar    1  UNL1        0.0149
     24 C         -29.3293    0.0895   23.9022 C.ar    1  UNL1        0.0013
     25 C         -29.1735    2.4882   24.4302 C.ar    1  UNL1        0.0013
     26 C         -29.6083    1.4739   23.5815 C.ar    1  UNL1        0.0001
     27 F         -21.8737   -0.1897   29.1035 F       1  UNL1       -0.2042
     28 C         -30.4024    2.2484   30.4186 C.2     1  UNL1        0.2342
     29 O         -30.6220    2.3989   31.4885 O.2     1  UNL1       -0.2831
@<TRIPOS>BOND
     1     3     7    1
     2     7     8    1
     3     7     9    1
     4     9    10    1
     5     1    16    1
     6    15    16    1
     7     2    17    1
     8     9    18    1
     9    17    19    2
    10    17    20   am
    11    20    21    1
    12    12    27    1
    13     6    28    1
    14    28    29    2
    15     8    22   ar
    16    22    25   ar
    17    25    26   ar
    18    26    24   ar
    19    24    23   ar
    20    23     8   ar
    21     1     2   ar
    22     2     5   ar
    23     5     6   ar
    24     6     4   ar
    25     4     3   ar
    26     3     1   ar
    27    10    11   ar
    28    11    12   ar
    29    12    13   ar
    30    13    14   ar
    31    14    15   ar
    32    15    10   ar
