@<TRIPOS>MOLECULE
No_389-gen_results/8p0m/2024-11-26-14-13-15/
 32 35 0 0 0
SMALL
GASTEIGER

@<TRIPOS>ATOM
      1 N         -28.0544   -1.0498   28.7246 N.ar    1  UNL1       -0.2457
      2 C         -27.7460   -0.0733   29.0098 C.ar    1  UNL1        0.0775
      3 C         -27.5562    0.3369   30.3393 C.ar    1  UNL1        0.0176
      4 C         -27.0710    1.6709   30.7899 C.ar    1  UNL1        0.0081
      5 C         -26.6539    2.5222   29.7363 C.ar    1  UNL1        0.0796
      6 C         -26.7304    2.0603   28.4078 C.ar    1  UNL1        0.0041
      7 C         -27.1892    0.8153   28.0522 C.ar    1  UNL1        0.0042
      8 C         -28.6782   -1.8663   29.7679 C.ar    1  UNL1        0.0813
      9 C         -29.1332   -3.1962   29.4626 C.ar    1  UNL1        0.0207
     10 C         -28.7114   -1.5123   31.1504 C.ar    1  UNL1        0.0191
     11 C         -28.1244   -0.3880   31.4515 C.ar    1  UNL1        0.0030
     12 C         -29.1118   -4.1961   30.5355 C.ar    1  UNL1        0.0017
     13 C         -29.6447   -5.4631   30.1314 C.ar    1  UNL1        0.0032
     14 C         -30.3642   -5.5889   28.9759 C.ar    1  UNL1        0.0369
     15 C         -30.6358   -4.5950   28.1234 C.ar    1  UNL1        0.1391
     16 C         -30.0660   -3.3905   28.4728 C.ar    1  UNL1        0.0384
     17 C         -27.2148    0.5043   26.6150 C.3     1  UNL1        0.1311
     18 C         -28.2714    1.0207   25.8335 C.3     1  UNL1        0.4018
     19 F         -28.1595    0.5850   24.7262 F       1  UNL1       -0.1697
     20 F         -29.4551    0.7562   26.3343 F       1  UNL1       -0.1697
     21 F         -28.1250    2.3506   25.6059 F       1  UNL1       -0.1697
     22 O         -31.3319   -4.7957   27.0156 O.3     1  UNL1       -0.4706
     23 C         -26.0441    3.8259   30.0345 C.2     1  UNL1        0.3877
     24 O         -25.4985    4.0240   31.0184 O.co2   1  UNL1       -0.2406
     25 O         -26.0701    4.7228   29.0883 O.co2   1  UNL1       -0.2406
     26 C         -32.6689   -4.7700   27.0911 C.3     1  UNL1        0.2320
     27 C         -33.1844   -3.6954   27.6714 C.ar    1  UNL1        0.0212
     28 C         -33.9916   -3.0755   27.5437 C.ar    1  UNL1       -0.0007
     29 C         -34.4479   -1.9605   28.0590 C.ar    1  UNL1       -0.0002
     30 C         -33.7805   -1.4432   29.2507 C.ar    1  UNL1       -0.0000
     31 C         -32.6903   -2.1950   29.6379 C.ar    1  UNL1       -0.0002
     32 C         -32.3166   -3.2663   28.8841 C.ar    1  UNL1       -0.0007
@<TRIPOS>BOND
     1     8     9    1
     2     7    17    1
     3    17    18    1
     4    18    19    1
     5    18    20    1
     6    18    21    1
     7    15    22    1
     8     5    23    1
     9    23    24   ar
    10    23    25   ar
    11    22    26    1
    12    26    27    1
    13     3     4   ar
    14     4     5   ar
    15     5     6   ar
    16     6     7   ar
    17     7     2   ar
    18    27    28   ar
    19    28    29   ar
    20    29    30   ar
    21    30    31   ar
    22    31    32   ar
    23    32    27   ar
    24     9    12   ar
    25    12    13   ar
    26    13    14   ar
    27    14    15   ar
    28    15    16   ar
    29    16     9   ar
    30     1     2   ar
    31     2     3   ar
    32     3    11   ar
    33    11    10   ar
    34    10     8   ar
    35     8     1   ar
