@<TRIPOS>MOLECULE
No_3890-gen_results/8p0m/2024-11-26-14-13-15/
 19 21 0 0 0
SMALL
GASTEIGER

@<TRIPOS>ATOM
      1 O         -28.1229   -1.3353   28.4874 O.2     1  UNL1       -0.2738
      2 C         -27.4806   -0.4044   28.7094 C.2     1  UNL1        0.2398
      3 C         -26.3804   -0.0867   27.9394 C.3     1  UNL1        0.1125
      4 N         -27.4232    0.1749   30.0549 N.am    1  UNL1       -0.2043
      5 C         -25.8482    1.0048   27.9942 C.ar    1  UNL1       -0.0087
      6 C         -24.7250    1.4898   27.1703 C.ar    1  UNL1       -0.0036
      7 C         -23.7604    2.3802   27.6117 C.ar    1  UNL1       -0.0003
      8 C         -24.0257    2.9464   28.8409 C.ar    1  UNL1        0.0001
      9 C         -24.9846    2.5461   29.7256 C.ar    1  UNL1        0.0042
     10 C         -25.7931    1.5005   29.3000 C.ar    1  UNL1        0.0508
     11 C         -26.7208    1.0841   30.2956 C.2     1  UNL1        0.2582
     12 C         -28.4975   -0.4584   30.9340 C.ar    1  UNL1        0.0618
     13 O         -26.7583    1.6739   31.4770 O.2     1  UNL1       -0.2692
     14 C         -28.5283   -1.2456   31.7992 C.ar    1  UNL1        0.0154
     15 C         -29.5349   -1.7216   32.6174 C.ar    1  UNL1        0.0022
     16 C         -30.7964   -1.2115   32.3356 C.ar    1  UNL1        0.0115
     17 C         -29.8736    0.1716   30.6420 C.ar    1  UNL1        0.0267
     18 C         -30.9129   -0.2362   31.3820 C.ar    1  UNL1        0.0589
     19 CL        -32.4591    0.4621   31.0788 Cl      1  UNL1       -0.0822
@<TRIPOS>BOND
     1     1     2    2
     2     2     3    1
     3     2     4   am
     4     3     5    1
     5     4    11   am
     6    10    11    1
     7     4    12    1
     8    11    13    2
     9    18    19    1
    10    12    14   ar
    11    14    15   ar
    12    15    16   ar
    13    16    18   ar
    14    18    17   ar
    15    17    12   ar
    16     5     6   ar
    17     6     7   ar
    18     7     8   ar
    19     8     9   ar
    20     9    10   ar
    21    10     5   ar
