@<TRIPOS>MOLECULE
No_3891-gen_results/8p0m/2024-11-26-14-13-15/
 10 11 0 0 0
SMALL
GASTEIGER

@<TRIPOS>ATOM
      1 C         -28.0162   -0.8135   28.8779 C.ar    1  UNL1        0.0813
      2 C         -27.0636   -0.1189   28.6079 C.ar    1  UNL1        0.0177
      3 C         -27.0010    0.6913   27.4910 C.ar    1  UNL1        0.0031
      4 C         -28.1420    0.8282   26.7994 C.ar    1  UNL1        0.0207
      5 C         -27.9310   -1.6069   30.1504 C.ar    1  UNL1        0.0191
      6 C         -26.7094   -1.7845   30.7448 C.ar    1  UNL1        0.0015
      7 C         -25.5731   -1.1815   30.3081 C.ar    1  UNL1        0.0001
      8 C         -25.6842   -0.3065   29.2345 C.ar    1  UNL1        0.0015
      9 C         -29.2570    0.2927   27.3428 C.ar    1  UNL1        0.0988
     10 N         -29.2234   -0.5191   28.4053 N.ar    1  UNL1       -0.2438
@<TRIPOS>BOND
     1     2     3   ar
     2     3     4   ar
     3     4     9   ar
     4     9    10   ar
     5    10     1   ar
     6     1     2   ar
     7     2     8   ar
     8     8     7   ar
     9     7     6   ar
    10     6     5   ar
    11     5     1   ar
