@<TRIPOS>MOLECULE
No_3892-gen_results/8p0m/2024-11-26-14-13-15/
 27 29 0 0 0
SMALL
GASTEIGER

@<TRIPOS>ATOM
      1 O         -28.1229   -1.3353   28.4874 O.2     1  UNL1       -0.2634
      2 C         -28.5208   -0.4363   29.0779 C.2     1  UNL1        0.3190
      3 N         -27.7860    0.1608   30.0148 N.am    1  UNL1       -0.1971
      4 C         -29.8770    0.1132   28.7847 C.2     1  UNL1        0.3081
      5 C         -26.4817   -0.2826   30.3628 C.3     1  UNL1        0.1243
      6 N         -30.0677    1.2671   28.8363 N.am    1  UNL1       -0.2496
      7 C         -29.5610    2.1790   28.0441 C.ar    1  UNL1        0.0543
      8 C         -29.7344    3.5436   28.2871 C.ar    1  UNL1        0.0149
      9 C         -29.2077    4.4934   27.4587 C.ar    1  UNL1        0.0013
     10 C         -28.3977    4.4080   26.7944 C.ar    1  UNL1        0.0001
     11 C         -27.9556    3.0237   26.3796 C.ar    1  UNL1        0.0013
     12 C         -28.3181    2.0748   27.3208 C.ar    1  UNL1        0.0149
     13 O         -30.7640   -0.8059   28.8446 O.2     1  UNL1       -0.2645
     14 C         -25.6152    0.6606   30.3546 C.3     1  UNL1        0.0662
     15 C         -24.3230    0.4630   29.7517 C.ar    1  UNL1       -0.0167
     16 C         -23.3448    1.4845   29.5248 C.ar    1  UNL1       -0.0039
     17 C         -23.3910    1.9683   28.3670 C.ar    1  UNL1       -0.0003
     18 C         -23.7281    1.0626   27.2279 C.ar    1  UNL1       -0.0000
     19 C         -24.3576   -0.1190   27.5914 C.ar    1  UNL1       -0.0003
     20 C         -24.6500   -0.3784   28.8804 C.ar    1  UNL1       -0.0039
     21 C         -25.8579    2.0121   30.9534 C.ar    1  UNL1       -0.0167
     22 C         -25.4467    2.4012   31.9495 C.ar    1  UNL1       -0.0039
     23 C         -25.6781    3.7264   32.5901 C.ar    1  UNL1       -0.0003
     24 C         -26.4128    4.6185   31.7600 C.ar    1  UNL1       -0.0000
     25 C         -26.9000    4.1689   30.4761 C.ar    1  UNL1       -0.0003
     26 C         -26.5663    2.9003   30.0307 C.ar    1  UNL1       -0.0039
     27 C         -31.5256    1.6093   29.2283 C.3     1  UNL1        0.1205
@<TRIPOS>BOND
     1     1     2    2
     2     2     3   am
     3     2     4    1
     4     3     5    1
     5     4     6   am
     6     6     7    1
     7     4    13    2
     8     5    14    1
     9    14    21    1
    10     6    27    1
    11    14    15    1
    12    15    16   ar
    13    16    17   ar
    14    17    18   ar
    15    18    19   ar
    16    19    20   ar
    17    20    15   ar
    18     7     8   ar
    19     8     9   ar
    20     9    10   ar
    21    10    11   ar
    22    11    12   ar
    23    12     7   ar
    24    21    22   ar
    25    22    23   ar
    26    23    24   ar
    27    24    25   ar
    28    25    26   ar
    29    26    21   ar
