@<TRIPOS>MOLECULE
No_3893-gen_results/8p0m/2024-11-26-14-13-15/
 23 25 0 0 0
SMALL
GASTEIGER

@<TRIPOS>ATOM
      1 C         -28.0162   -0.8135   28.8779 C.3     1  UNL1        0.0720
      2 C         -27.0636   -0.1189   28.6079 C.ar    1  UNL1       -0.0162
      3 C         -25.7923   -0.4302   29.0761 C.ar    1  UNL1       -0.0037
      4 C         -24.5456    0.3494   28.8225 C.ar    1  UNL1        0.0043
      5 C         -24.6586    1.4196   27.8878 C.ar    1  UNL1        0.0566
      6 C         -25.9471    1.6811   27.3792 C.ar    1  UNL1        0.0043
      7 C         -27.0439    0.9739   27.6871 C.ar    1  UNL1       -0.0037
      8 C         -29.2096   -0.0265   29.3432 C.ar    1  UNL1        0.0634
      9 C         -29.4825   -0.0930   30.5632 C.ar    1  UNL1        0.0148
     10 N         -30.3517   -0.5003   28.4834 N.ar    1  UNL1       -0.2481
     11 C         -23.4564    2.1651   27.6147 C.2     1  UNL1        0.2842
     12 N         -23.4779    3.1214   26.7918 N.am    1  UNL1       -0.0837
     13 O         -22.2925    1.7799   28.0076 O.2     1  UNL1       -0.2667
     14 C         -31.5232    0.2305   28.4215 C.ar    1  UNL1        0.0945
     15 C         -32.1164    0.1195   29.7242 C.ar    1  UNL1        0.0013
     16 C         -31.2394    0.3927   30.8875 C.ar    1  UNL1       -0.0012
     17 C         -33.2832    1.1175   29.9272 C.3     1  UNL1        0.0542
     18 C         -33.0466    2.3764   30.0686 C.ar    1  UNL1       -0.0177
     19 C         -32.0358    2.9206   29.5079 C.ar    1  UNL1       -0.0039
     20 C         -31.7828    4.3771   29.6260 C.ar    1  UNL1       -0.0003
     21 C         -32.7507    5.0909   30.2640 C.ar    1  UNL1       -0.0000
     22 C         -33.8339    4.5091   30.7989 C.ar    1  UNL1       -0.0003
     23 C         -33.9964    3.1642   30.7120 C.ar    1  UNL1       -0.0039
@<TRIPOS>BOND
     1     1     2    1
     2     1     8    1
     3     5    11    1
     4    11    12   am
     5    11    13    2
     6    15    17    1
     7    17    18    1
     8    18    19   ar
     9    19    20   ar
    10    20    21   ar
    11    21    22   ar
    12    22    23   ar
    13    23    18   ar
    14     2     3   ar
    15     3     4   ar
    16     4     5   ar
    17     5     6   ar
    18     6     7   ar
    19     7     2   ar
    20     8     9   ar
    21     9    16   ar
    22    16    15   ar
    23    15    14   ar
    24    14    10   ar
    25    10     8   ar
