@<TRIPOS>MOLECULE
No_3894-gen_results/8p0m/2024-11-26-14-13-15/
 17 18 0 0 0
SMALL
GASTEIGER

@<TRIPOS>ATOM
      1 CL        -28.1493   -0.8198   28.9079 Cl      1  UNL1       -0.0822
      2 C         -28.5324   -0.0471   29.7727 C.ar    1  UNL1        0.0577
      3 C         -27.6024    0.7852   30.3185 C.ar    1  UNL1        0.0114
      4 C         -27.9263    1.8091   31.3693 C.ar    1  UNL1        0.0008
      5 C         -29.2820    1.8300   31.7435 C.ar    1  UNL1        0.0001
      6 C         -30.1642    1.0016   31.2423 C.ar    1  UNL1        0.0009
      7 C         -29.8161    0.0491   30.2948 C.ar    1  UNL1        0.0114
      8 C         -29.5298    2.8695   32.7908 C.ar    1  UNL1        0.0000
      9 C         -28.7409    3.5901   33.1718 C.ar    1  UNL1        0.0000
     10 C         -27.2620    3.5091   32.6939 C.ar    1  UNL1        0.0000
     11 C         -26.9002    2.6259   31.8143 C.ar    1  UNL1        0.0003
     12 C         -25.4902    2.5425   31.4081 C.2     1  UNL1        0.0079
     13 C         -24.8649    3.5978   30.9230 C.2     1  UNL1        0.0979
     14 C         -25.2840    4.4690   30.5179 C.2     1  UNL1        0.4134
     15 N         -25.2891    5.4890   30.8613 N.2     1  UNL1        0.1971
     16 N         -25.6372    4.2894   29.1296 N.pl3   1  UNL1       -0.0228
     17 C         -26.0752    5.4303   28.5258 C.3     1  UNL1        0.3063
@<TRIPOS>BOND
     1     1     2    1
     2    11    12    1
     3    12    13    2
     4    13    14    1
     5    14    15    2
     6    14    16    1
     7    16    17    1
     8     2     3   ar
     9     3     4   ar
    10     5     6   ar
    11     6     7   ar
    12     7     2   ar
    13     4     5   ar
    14     5     8   ar
    15     8     9   ar
    16     9    10   ar
    17    10    11   ar
    18    11     4   ar
