@<TRIPOS>MOLECULE
No_3895-gen_results/8p0m/2024-11-26-14-13-15/
 11 11 0 0 0
SMALL
GASTEIGER

@<TRIPOS>ATOM
      1 C         -28.0162   -0.8135   28.8779 C.ar    1  UNL1        0.0046
      2 C         -27.0636   -0.1190   28.6079 C.ar    1  UNL1        0.0550
      3 C         -25.7923   -0.4302   29.0761 C.ar    1  UNL1        0.0046
      4 C         -25.5756   -1.5654   29.9363 C.ar    1  UNL1        0.0001
      5 C         -26.7354   -2.3004   30.2173 C.ar    1  UNL1        0.0000
      6 C         -27.9184   -1.9537   29.7629 C.ar    1  UNL1        0.0001
      7 C         -27.1057    1.1023   27.7593 C.2     1  UNL1        0.2648
      8 N         -26.2345    1.4562   27.0152 N.am    1  UNL1       -0.2017
      9 O         -28.2185    1.7527   27.7182 O.2     1  UNL1       -0.2684
     10 C         -24.8600    0.9268   27.0186 C.3     1  UNL1        0.1155
     11 C         -24.5952    0.0926   28.1441 C.3     1  UNL1        0.0253
@<TRIPOS>BOND
     1     2     7    1
     2     7     8   am
     3     7     9    2
     4     8    10    1
     5    10    11    1
     6     1     2   ar
     7     2     3   ar
     8     3     4   ar
     9     4     5   ar
    10     5     6   ar
    11     6     1   ar
