@<TRIPOS>MOLECULE
No_3896-gen_results/8p0m/2024-11-26-14-13-15/
 17 18 0 0 0
SMALL
GASTEIGER

@<TRIPOS>ATOM
      1 C         -28.0162   -0.8135   28.8779 C.ar    1  UNL1        0.0156
      2 C         -28.4690   -0.7850   29.8287 C.ar    1  UNL1        0.0578
      3 C         -26.5042   -0.7777   28.8766 C.ar    1  UNL1        0.0520
      4 C         -25.6540   -0.6597   27.7191 C.2     1  UNL1        0.2645
      5 C         -27.9180   -0.9374   31.1824 C.ar    1  UNL1        0.0111
      6 C         -26.5423   -0.9399   31.2606 C.ar    1  UNL1       -0.0032
      7 C         -25.7832   -0.8935   30.1201 C.ar    1  UNL1       -0.0159
      8 N         -24.3632   -0.5034   27.8686 N.am    1  UNL1       -0.2010
      9 C         -23.6484   -0.7378   29.0114 C.3     1  UNL1        0.1243
     10 C         -22.2390   -0.5661   29.1321 C.3     1  UNL1        0.1521
     11 C         -24.4046   -0.8973   30.2833 C.3     1  UNL1        0.0502
     12 N         -21.5956    0.5130   28.7119 N.2     1  UNL1       -0.2171
     13 O         -26.1020   -0.4419   26.5915 O.2     1  UNL1       -0.2684
     14 C         -21.6386    1.0817   27.5387 C.2     1  UNL1        0.3615
     15 F         -22.4888    1.1306   26.8295 F       1  UNL1       -0.1506
     16 CL        -30.2893   -0.8475   29.8488 Cl      1  UNL1       -0.0822
     17 F         -20.4938    1.0935   26.9560 F       1  UNL1       -0.1506
@<TRIPOS>BOND
     1     3     4    1
     2     4     8   am
     3     9    10    1
     4     7    11    1
     5     9    11    1
     6    10    12    1
     7     4    13    2
     8    12    14    2
     9    14    15    1
    10     2    16    1
    11    14    17    1
    12     9     8    1
    13     1     2   ar
    14     2     5   ar
    15     5     6   ar
    16     6     7   ar
    17     7     3   ar
    18     3     1   ar
