@<TRIPOS>MOLECULE
No_3898-gen_results/8p0m/2024-11-26-14-13-15/
 15 16 0 0 0
SMALL
GASTEIGER

@<TRIPOS>ATOM
      1 C         -28.0162   -0.8135   28.8779 C.ar    1  UNL1        0.0420
      2 C         -27.0636   -0.1189   28.6079 C.ar    1  UNL1        0.0034
      3 C         -26.8756    1.1325   28.9134 C.ar    1  UNL1        0.0032
      4 C         -27.9014    1.8066   29.6436 C.ar    1  UNL1        0.0034
      5 C         -29.0458   -0.2316   29.7181 C.ar    1  UNL1        0.1957
      6 C         -28.9402    1.0517   30.0597 C.ar    1  UNL1        0.0420
      7 O         -30.0593   -1.0632   30.0946 O.3     1  UNL1       -0.2866
      8 C         -25.6684    1.9362   28.4484 C.2     1  UNL1        0.0375
      9 C         -24.8300    1.8451   27.8766 C.2     1  UNL1        0.1448
     10 C         -23.6750    2.2178   27.5061 C.2     1  UNL1        0.0376
     11 C         -22.6419    1.4126   27.2532 C.2     1  UNL1        0.0059
     12 C         -22.3599    0.4741   28.0108 C.2     1  UNL1        0.0331
     13 C         -23.4609   -0.2781   28.6704 C.2     1  UNL1        0.1232
     14 O         -24.4064    0.3621   28.5422 O.2     1  UNL1       -0.4578
     15 C         -23.3458   -1.4978   29.2251 C.3     1  UNL1        0.0725
@<TRIPOS>BOND
     1     5     7    1
     2     3     8    1
     3     8     9    2
     4     9    10    1
     5    10    11    2
     6    11    12    1
     7    12    13    2
     8     9    14    1
     9    13    14    1
    10    13    15    1
    11     1     2   ar
    12     2     3   ar
    13     3     4   ar
    14     4     6   ar
    15     6     5   ar
    16     5     1   ar
