@<TRIPOS>MOLECULE
No_3899-gen_results/8p0m/2024-11-26-14-13-15/
 15 16 0 0 0
SMALL
GASTEIGER

@<TRIPOS>ATOM
      1 F         -28.0727   -1.2542   28.5316 F       1  UNL1       -0.2042
      2 C         -27.3591   -0.3792   28.7224 C.ar    1  UNL1        0.1401
      3 C         -26.3323   -0.6441   29.4520 C.ar    1  UNL1        0.0296
      4 C         -25.2562    0.3203   29.7818 C.ar    1  UNL1        0.0023
      5 C         -25.4242    1.6275   29.2026 C.ar    1  UNL1        0.0001
      6 C         -26.5263    1.8254   28.4032 C.ar    1  UNL1        0.0022
      7 C         -27.4513    0.8601   28.1355 C.ar    1  UNL1        0.0275
      8 C         -28.5399    1.2022   27.2448 C.ar    1  UNL1        0.0037
      9 C         -28.4423    2.0101   26.2543 C.ar    1  UNL1        0.0002
     10 C         -29.4915    2.2231   25.3457 C.ar    1  UNL1        0.0015
     11 C         -30.6227    1.4224   25.3995 C.ar    1  UNL1        0.0191
     12 C         -30.6794    0.4779   26.4025 C.ar    1  UNL1        0.0814
     13 C         -29.6789    0.3260   27.2833 C.ar    1  UNL1        0.0192
     14 N         -31.9044   -0.1397   26.3506 N.2     1  UNL1       -0.2422
     15 C         -32.4581   -0.7540   25.4902 C.2     1  UNL1        0.1194
@<TRIPOS>BOND
     1     1     2    1
     2     7     8    1
     3    12    14    1
     4    14    15    2
     5     2     3   ar
     6     3     4   ar
     7     4     5   ar
     8     5     6   ar
     9     6     7   ar
    10     7     2   ar
    11     8     9   ar
    12     9    10   ar
    13    10    11   ar
    14    11    12   ar
    15    12    13   ar
    16    13     8   ar
