@<TRIPOS>MOLECULE
No_3901-gen_results/8p0m/2024-11-26-14-13-15/
 27 30 0 0 0
SMALL
GASTEIGER

@<TRIPOS>ATOM
      1 C         -28.0162   -0.8135   28.8779 C.ar    1  UNL1        0.0045
      2 C         -27.0636   -0.1189   28.6079 C.ar    1  UNL1        0.0001
      3 C         -26.8756    1.1325   28.9134 C.ar    1  UNL1       -0.0000
      4 C         -27.9014    1.8066   29.6436 C.ar    1  UNL1        0.0001
      5 C         -29.0458   -0.2316   29.7181 C.ar    1  UNL1        0.0536
      6 C         -28.9402    1.0517   30.0597 C.ar    1  UNL1        0.0045
      7 C         -25.8732   -0.7125   27.8045 C.ar    1  UNL1       -0.0001
      8 C         -25.2858    0.0505   26.8000 C.ar    1  UNL1        0.0039
      9 C         -25.2235    1.4626   27.0117 C.ar    1  UNL1        0.0714
     10 C         -24.4089    2.3116   26.2235 C.3     1  UNL1        0.4186
     11 C         -26.0799    2.0655   28.0903 C.ar    1  UNL1        0.0039
     12 F         -23.9319    1.7963   25.2416 F       1  UNL1       -0.1659
     13 F         -25.1211    3.4451   25.7927 F       1  UNL1       -0.1659
     14 F         -23.3672    2.8440   27.0397 F       1  UNL1       -0.1659
     15 C         -30.1013   -1.1414   30.2854 C.2     1  UNL1        0.2502
     16 N         -31.1946   -1.1802   29.6838 N.am    1  UNL1       -0.2601
     17 C         -31.5288   -0.4912   28.7412 C.3     1  UNL1        0.1721
     18 C         -32.8254   -0.8096   28.0317 C.3     1  UNL1        0.0397
     19 C         -32.1759   -2.2275   30.0517 C.3     1  UNL1        0.0953
     20 C         -33.3079   -2.4788   29.4231 C.3     1  UNL1        0.0217
     21 C         -33.6620   -1.7002   28.4018 C.3     1  UNL1        0.0052
     22 O         -29.7480   -1.7843   31.2950 O.2     1  UNL1       -0.2699
     23 C         -33.1753    0.1454   26.8181 C.3     1  UNL1        0.0131
     24 C         -32.4480    1.3365   26.6938 C.3     1  UNL1        0.0870
     25 C         -31.2277    1.4800   27.3763 C.2     1  UNL1        0.2428
     26 N         -30.9182    0.6814   28.3183 N.am    1  UNL1       -0.1866
     27 O         -30.5404    2.5765   27.1559 O.2     1  UNL1       -0.2733
@<TRIPOS>BOND
     1     9    10    1
     2    10    12    1
     3    10    13    1
     4    10    14    1
     5     5    15    1
     6    15    16   am
     7    16    17    1
     8    16    19    1
     9    18    21    1
    10    20    21    1
    11    15    22    2
    12    18    23    1
    13    24    25    1
    14    17    26    1
    15    25    26   am
    16    25    27    2
    17    17    18    1
    18    20    19    1
    19    24    23    1
    20     3    11   ar
    21    11     9   ar
    22     9     8   ar
    23     8     7   ar
    24     7     2   ar
    25     1     2   ar
    26     2     3   ar
    27     3     4   ar
    28     4     6   ar
    29     6     5   ar
    30     5     1   ar
