@<TRIPOS>MOLECULE
No_3904-gen_results/8p0m/2024-11-26-14-13-15/
 18 18 0 0 0
SMALL
GASTEIGER

@<TRIPOS>ATOM
      1 C         -28.0162   -0.8135   28.8779 C.ar    1  UNL1        0.0362
      2 C         -28.4690   -0.7850   29.8287 C.ar    1  UNL1        0.1401
      3 C         -27.0871    0.2903   28.6377 C.ar    1  UNL1        0.0817
      4 C         -26.2516    0.4114   27.4223 C.2     1  UNL1        0.3878
      5 C         -28.3913    0.1041   30.9805 C.ar    1  UNL1        0.0271
      6 C         -27.5332    1.1666   30.7866 C.ar    1  UNL1        0.0018
      7 C         -26.8281    1.2557   29.6454 C.ar    1  UNL1        0.0042
      8 O         -25.9362    1.5378   27.1650 O.co2   1  UNL1       -0.2406
      9 O         -26.0270   -0.5731   26.7251 O.co2   1  UNL1       -0.2406
     10 F         -29.3605   -1.8912   30.1788 F       1  UNL1       -0.2042
     11 C         -27.3616    2.1909   31.8634 C.3     1  UNL1        0.1386
     12 N         -27.2901    3.3277   31.6412 N.pl3   1  UNL1       -0.2318
     13 C         -26.9034    4.3051   32.5105 C.2     1  UNL1        0.0762
     14 C         -26.3810    5.5936   32.0461 C.2     1  UNL1       -0.0041
     15 C         -26.3154    5.8260   30.6968 C.3     1  UNL1        0.0530
     16 C         -25.8619    7.0059   30.1832 C.2     1  UNL1       -0.0259
     17 C         -25.1543    7.8864   31.0074 C.2     1  UNL1       -0.0300
     18 C         -25.0909    7.6664   32.3664 C.3     1  UNL1        0.0304
@<TRIPOS>BOND
     1     3     4    1
     2     4     8   ar
     3     4     9   ar
     4     2    10    1
     5     6    11    1
     6    11    12    1
     7    12    13    1
     8    13    14    2
     9    14    15    1
    10    15    16    1
    11    16    17    2
    12    17    18    1
    13     1     2   ar
    14     2     5   ar
    15     5     6   ar
    16     6     7   ar
    17     7     3   ar
    18     3     1   ar
