@<TRIPOS>MOLECULE
No_3905-gen_results/8p0m/2024-11-26-14-13-15/
 33 37 0 0 0
SMALL
GASTEIGER

@<TRIPOS>ATOM
      1 C         -28.0162   -0.8135   28.8779 C.ar    1  UNL1        0.0418
      2 C         -27.0636   -0.1189   28.6079 C.ar    1  UNL1        0.0566
      3 C         -25.7647   -0.3897   29.0360 C.ar    1  UNL1        0.0043
      4 C         -25.5296   -1.5302   29.9014 C.ar    1  UNL1        0.0026
      5 C         -26.6577   -2.2915   30.2035 C.ar    1  UNL1        0.0557
      6 C         -27.8548   -1.9555   29.7630 C.ar    1  UNL1        0.1450
      7 C         -24.5441    0.4126   28.7379 C.ar    1  UNL1        0.0040
      8 C         -23.3232    0.0476   29.0499 C.ar    1  UNL1        0.0714
      9 C         -23.2018   -1.2373   29.7566 C.ar    1  UNL1        0.0038
     10 C         -24.2259   -1.9647   30.2122 C.ar    1  UNL1       -0.0002
     11 C         -22.1154    0.7752   28.7156 C.3     1  UNL1        0.4186
     12 F         -21.0872    0.1221   28.7213 F       1  UNL1       -0.1659
     13 F         -21.8586    1.8290   29.5012 F       1  UNL1       -0.1659
     14 F         -22.2741    1.3178   27.4491 F       1  UNL1       -0.1659
     15 C         -27.3742    1.1384   27.8617 C.2     1  UNL1        0.2491
     16 N         -27.6542    1.1122   26.6558 N.am    1  UNL1       -0.2761
     17 C         -27.7415    0.1175   25.9354 C.3     1  UNL1        0.0937
     18 C         -28.1004    0.2333   24.6713 C.3     1  UNL1        0.0216
     19 C         -28.0729    2.3818   26.0489 C.3     1  UNL1        0.0937
     20 C         -28.5002    2.4920   24.7771 C.3     1  UNL1        0.0216
     21 C         -28.4384    1.4009   23.9851 C.3     1  UNL1        0.0035
     22 O         -27.2453    2.2261   28.6126 O.2     1  UNL1       -0.2699
     23 O         -28.9745   -2.6871   30.0828 O.3     1  UNL1       -0.4506
     24 C         -30.0400   -2.1274   30.6860 C.2     1  UNL1        0.1796
     25 C         -30.0731   -1.3981   31.5613 C.2     1  UNL1        0.0437
     26 C         -28.8723   -1.2319   32.3791 C.ar    1  UNL1        0.0371
     27 C         -28.8096   -0.1618   33.3802 C.ar    1  UNL1        0.0031
     28 C         -27.6108    0.0165   34.0714 C.ar    1  UNL1        0.0002
     29 C         -26.4041   -0.5798   33.6405 C.ar    1  UNL1        0.0031
     30 C         -26.4466   -1.3692   32.5331 C.ar    1  UNL1        0.0369
     31 C         -27.6270   -1.7067   31.9812 C.ar    1  UNL1        0.1391
     32 O         -27.6056   -2.9565   31.8880 O.3     1  UNL1       -0.4705
     33 C         -26.5128   -3.5978   30.5236 C.3     1  UNL1        0.2350
@<TRIPOS>BOND
     1     8    11    1
     2    11    12    1
     3    11    13    1
     4    11    14    1
     5     2    15    1
     6    15    16   am
     7    16    17    1
     8    16    19    1
     9    18    21    1
    10    20    21    1
    11    15    22    2
    12     6    23    1
    13    23    24    1
    14    24    25    2
    15    25    26    1
    16    31    32    1
    17     5    33    1
    18    32    33    1
    19    17    18    1
    20    20    19    1
    21    26    27   ar
    22    27    28   ar
    23    28    29   ar
    24    29    30   ar
    25    30    31   ar
    26    31    26   ar
    27     1     2   ar
    28     2     3   ar
    29     4     5   ar
    30     5     6   ar
    31     6     1   ar
    32     3     4   ar
    33     4    10   ar
    34    10     9   ar
    35     9     8   ar
    36     8     7   ar
    37     7     3   ar
