@<TRIPOS>MOLECULE
No_3906-gen_results/8p0m/2024-11-26-14-13-15/
 16 17 0 0 0
SMALL
GASTEIGER

@<TRIPOS>ATOM
      1 C         -28.0162   -0.8135   28.8779 C.ar    1  UNL1        0.0066
      2 C         -28.4690   -0.7850   29.8287 C.ar    1  UNL1        0.0798
      3 C         -26.5042   -0.7777   28.8766 C.ar    1  UNL1       -0.0001
      4 C         -25.8103   -0.8531   30.1028 C.ar    1  UNL1       -0.0033
      5 C         -30.0136   -0.8410   29.8508 C.2     1  UNL1        0.3878
      6 C         -26.5670   -0.8850   31.2517 C.ar    1  UNL1       -0.0001
      7 C         -27.9411   -0.9069   31.1850 C.ar    1  UNL1        0.0066
      8 O         -30.6493   -0.0573   30.6757 O.co2   1  UNL1       -0.2406
      9 O         -30.6033   -1.6021   29.0401 O.co2   1  UNL1       -0.2406
     10 C         -25.6386   -0.7164   27.6713 C.ar    1  UNL1        0.0007
     11 C         -24.3327   -0.2619   27.8252 C.ar    1  UNL1        0.0100
     12 C         -23.6656   -0.4509   29.0722 C.ar    1  UNL1        0.0645
     13 C         -24.3925   -0.6101   30.2141 C.ar    1  UNL1       -0.0122
     14 C         -22.2015   -0.1698   29.1145 C.1     1  UNL1        0.1001
     15 N         -21.2574    0.6271   28.9760 N.1     1  UNL1       -0.1908
     16 C         -23.7064   -0.5784   31.5114 C.3     1  UNL1        0.0317
@<TRIPOS>BOND
     1     2     5    1
     2     5     8   ar
     3     5     9   ar
     4    12    14    1
     5    14    15    3
     6    13    16    1
     7     4    13   ar
     8    13    12   ar
     9    12    11   ar
    10    11    10   ar
    11    10     3   ar
    12     1     2   ar
    13     2     7   ar
    14     7     6   ar
    15     6     4   ar
    16     4     3   ar
    17     3     1   ar
