@<TRIPOS>MOLECULE
No_3907-gen_results/8p0m/2024-11-26-14-13-15/
 17 19 0 0 0
SMALL
GASTEIGER

@<TRIPOS>ATOM
      1 C         -28.0162   -0.8135   28.8779 C.ar    1  UNL1        0.0305
      2 C         -27.0636   -0.1189   28.6079 C.ar    1  UNL1        0.0821
      3 C         -26.8756    1.1325   28.9134 C.ar    1  UNL1        0.0178
      4 C         -27.9014    1.8066   29.6436 C.ar    1  UNL1        0.0024
      5 C         -29.0458   -0.2316   29.7181 C.ar    1  UNL1        0.0592
      6 C         -28.9402    1.0517   30.0597 C.ar    1  UNL1        0.0115
      7 CL        -30.3294   -1.2509   30.1909 Cl      1  UNL1       -0.0822
      8 C         -25.6528    1.9343   28.4399 C.ar    1  UNL1        0.0030
      9 C         -24.9134    1.6968   27.6747 C.ar    1  UNL1        0.0177
     10 C         -23.7483    2.1093   27.3418 C.ar    1  UNL1        0.0016
     11 C         -22.5351    1.7679   27.2520 C.ar    1  UNL1        0.0034
     12 C         -22.2207    0.5819   28.0585 C.ar    1  UNL1        0.0437
     13 C         -20.9269    0.1664   28.4204 C.2     1  UNL1        0.2342
     14 C         -23.3218   -0.2628   28.5057 C.ar    1  UNL1        0.0224
     15 C         -24.5776    0.2250   28.1675 C.ar    1  UNL1        0.0814
     16 N         -25.7551   -0.6878   28.1278 N.ar    1  UNL1       -0.2453
     17 O         -20.6791   -0.9316   29.0055 O.2     1  UNL1       -0.2831
@<TRIPOS>BOND
     1     5     7    1
     2    13    17    2
     3    13    12    1
     4     9    10   ar
     5    10    11   ar
     6    11    12   ar
     7    12    14   ar
     8    14    15   ar
     9     1     2   ar
    10     3     4   ar
    11     4     6   ar
    12     6     5   ar
    13     5     1   ar
    14     2     3   ar
    15     3     8   ar
    16     8     9   ar
    17     9    15   ar
    18    15    16   ar
    19    16     2   ar
