@<TRIPOS>MOLECULE
No_3908-gen_results/8p0m/2024-11-26-14-13-15/
 10 10 0 0 0
SMALL
GASTEIGER

@<TRIPOS>ATOM
      1 C         -28.0162   -0.8135   28.8779 C.2     1  UNL1       -0.0001
      2 C         -27.0636   -0.1189   28.6079 C.2     1  UNL1       -0.0459
      3 C         -25.7647   -0.3897   29.0360 C.3     1  UNL1        0.0218
      4 C         -24.5517    0.4058   28.7646 C.3     1  UNL1        0.0043
      5 C         -24.6957    1.4480   27.7988 C.3     1  UNL1        0.0007
      6 C         -25.9755    1.7250   27.3077 C.3     1  UNL1        0.0043
      7 C         -27.0718    1.0134   27.6535 C.3     1  UNL1        0.0218
      8 C         -27.9852   -1.5947   30.1522 C.3     1  UNL1        0.1825
      9 F         -29.0494   -2.2271   30.4291 F       1  UNL1       -0.2325
     10 C         -27.5464   -0.7613   31.3219 C.3     1  UNL1        0.0430
@<TRIPOS>BOND
     1     1     2    2
     2     2     3    1
     3     3     4    1
     4     4     5    1
     5     5     6    1
     6     2     7    1
     7     6     7    1
     8     1     8    1
     9     8     9    1
    10     8    10    1
