@<TRIPOS>MOLECULE
No_3909-gen_results/8p0m/2024-11-26-14-13-15/
 19 21 0 0 0
SMALL
GASTEIGER

@<TRIPOS>ATOM
      1 C         -28.0162   -0.8135   28.8779 C.ar    1  UNL1        0.0476
      2 C         -28.4690   -0.7850   29.8287 C.ar    1  UNL1        0.0145
      3 C         -28.1816    0.4277   28.1134 C.ar    1  UNL1       -0.0073
      4 C         -28.9841    1.4155   28.5154 C.ar    1  UNL1       -0.0030
      5 C         -29.3802    0.1384   30.4612 C.ar    1  UNL1        0.0013
      6 C         -29.5415    1.2736   29.7242 C.ar    1  UNL1       -0.0002
      7 C         -27.4586    0.4934   26.7701 C.3     1  UNL1        0.0442
      8 C         -26.0264    0.3840   26.7617 C.3     1  UNL1        0.0333
      9 C         -25.3148    0.0488   27.8701 C.ar    1  UNL1       -0.0085
     10 C         -23.8815    0.0557   27.8329 C.ar    1  UNL1       -0.0030
     11 C         -23.1356   -0.3718   28.9998 C.ar    1  UNL1       -0.0006
     12 C         -23.8085   -1.0631   30.0100 C.ar    1  UNL1       -0.0030
     13 C         -25.1541   -1.1567   30.0119 C.ar    1  UNL1       -0.0085
     14 C         -25.8894   -0.6806   29.0029 C.ar    1  UNL1        0.0435
     15 N         -26.6512   -1.4126   29.5561 N.pl3   1  UNL1       -0.2858
     16 C         -25.8826   -1.6332   31.3733 C.3     1  UNL1        0.0323
     17 C         -26.9050   -2.8870   29.6526 C.3     1  UNL1        0.1172
     18 C         -28.2303    0.6571   25.6370 C.3     1  UNL1        0.0995
     19 CL        -28.0931    0.3318   24.1079 Cl      1  UNL1       -0.1133
@<TRIPOS>BOND
     1     3     7    1
     2     7     8    1
     3     1    15    1
     4    14    15    1
     5    13    16    1
     6    15    17    1
     7     7    18    1
     8    18    19    1
     9     8     9    1
    10     9    10   ar
    11    10    11   ar
    12    11    12   ar
    13    12    13   ar
    14    13    14   ar
    15    14     9   ar
    16     1     2   ar
    17     2     5   ar
    18     5     6   ar
    19     6     4   ar
    20     4     3   ar
    21     3     1   ar
