@<TRIPOS>MOLECULE
No_391-gen_results/8p0m/2024-11-26-14-13-15/
 12 12 0 0 0
SMALL
GASTEIGER

@<TRIPOS>ATOM
      1 C         -28.0162   -0.8135   28.8779 C.ar    1  UNL1        0.0046
      2 C         -28.4690   -0.7850   29.8287 C.ar    1  UNL1        0.0554
      3 C         -26.5042   -0.7777   28.8766 C.ar    1  UNL1        0.0001
      4 C         -25.8103   -0.8531   30.1028 C.ar    1  UNL1        0.0000
      5 C         -30.0136   -0.8410   29.8508 C.2     1  UNL1        0.2690
      6 C         -26.5670   -0.8850   31.2517 C.ar    1  UNL1        0.0001
      7 C         -27.9411   -0.9069   31.1850 C.ar    1  UNL1        0.0046
      8 O         -30.6563   -1.6921   30.1809 O.2     1  UNL1       -0.2680
      9 N         -30.6002    0.3117   29.2879 N.am    1  UNL1       -0.1745
     10 C         -31.6177    0.5657   28.9995 C.2     1  UNL1        0.0844
     11 C         -31.9029    1.5508   28.2837 C.2     1  UNL1       -0.0079
     12 C         -33.2043    1.9979   27.7840 C.3     1  UNL1        0.0321
@<TRIPOS>BOND
     1     2     5    1
     2     5     8    2
     3     5     9   am
     4     9    10    1
     5    10    11    2
     6    11    12    1
     7     1     2   ar
     8     2     7   ar
     9     7     6   ar
    10     6     4   ar
    11     4     3   ar
    12     3     1   ar
