@<TRIPOS>MOLECULE
No_3911-gen_results/8p0m/2024-11-26-14-13-15/
 24 26 0 0 0
SMALL
GASTEIGER

@<TRIPOS>ATOM
      1 C         -28.0162   -0.8135   28.8779 C.ar    1  UNL1       -0.0039
      2 C         -27.0636   -0.1189   28.6079 C.ar    1  UNL1       -0.0178
      3 C         -26.9287    1.1713   29.0083 C.ar    1  UNL1       -0.0039
      4 C         -27.9560    1.7411   29.7840 C.ar    1  UNL1       -0.0002
      5 C         -29.0569   -0.3271   29.7466 C.ar    1  UNL1       -0.0003
      6 C         -28.9828    0.9722   30.1516 C.ar    1  UNL1       -0.0000
      7 C         -25.8907   -0.6263   27.7857 C.3     1  UNL1        0.0526
      8 C         -25.4633    0.1123   26.6815 C.ar    1  UNL1       -0.0178
      9 C         -26.2851    1.1179   26.2361 C.ar    1  UNL1       -0.0039
     10 C         -25.6302    1.9474   25.3034 C.ar    1  UNL1       -0.0004
     11 C         -24.4284    2.2534   25.4947 C.ar    1  UNL1        0.0038
     12 C         -23.4878    1.3400   26.2433 C.ar    1  UNL1        0.0711
     13 C         -24.0926    0.4760   27.0417 C.ar    1  UNL1       -0.0001
     14 C         -22.0954    1.8280   26.4757 C.3     1  UNL1        0.4186
     15 F         -21.5827    2.6719   25.8899 F       1  UNL1       -0.1659
     16 F         -21.9857    2.2000   27.8897 F       1  UNL1       -0.1659
     17 F         -21.3998    0.7392   26.6257 F       1  UNL1       -0.1659
     18 C         -27.7771    3.1721   30.2338 C.ar    1  UNL1        0.0032
     19 C         -28.2314    3.7978   30.9027 C.ar    1  UNL1        0.0002
     20 C         -28.1663    4.9583   31.3890 C.ar    1  UNL1        0.0033
     21 C         -27.0976    5.7837   30.8144 C.ar    1  UNL1        0.0420
     22 C         -26.3114    5.1672   29.8297 C.ar    1  UNL1        0.1957
     23 C         -26.5403    3.8001   29.4976 C.ar    1  UNL1        0.0420
     24 O         -25.2764    5.8174   29.2457 O.3     1  UNL1       -0.2866
@<TRIPOS>BOND
     1     2     7    1
     2    12    14    1
     3    14    15    1
     4    14    16    1
     5    14    17    1
     6     4    18    1
     7    22    24    1
     8     7     8    1
     9    18    19   ar
    10    19    20   ar
    11    20    21   ar
    12    21    22   ar
    13    22    23   ar
    14    23    18   ar
    15     1     2   ar
    16     2     3   ar
    17     3     4   ar
    18     4     6   ar
    19     6     5   ar
    20     5     1   ar
    21     8     9   ar
    22     9    10   ar
    23    10    11   ar
    24    11    12   ar
    25    12    13   ar
    26    13     8   ar
