@<TRIPOS>MOLECULE
No_3912-gen_results/8p0m/2024-11-26-14-13-15/
 16 17 0 0 0
SMALL
GASTEIGER

@<TRIPOS>ATOM
      1 C         -28.0162   -0.8135   28.8779 C.ar    1  UNL1       -0.0003
      2 C         -28.4690   -0.7850   29.8287 C.ar    1  UNL1       -0.0000
      3 C         -26.5042   -0.7777   28.8766 C.ar    1  UNL1       -0.0039
      4 C         -25.8103   -0.8531   30.1028 C.ar    1  UNL1       -0.0178
      5 C         -27.9906   -0.8916   31.2257 C.ar    1  UNL1       -0.0003
      6 C         -26.6042   -0.8676   31.2652 C.ar    1  UNL1       -0.0039
      7 C         -24.3894   -0.8050   30.1639 C.3     1  UNL1        0.0520
      8 C         -23.8172    0.4762   29.9118 C.2     1  UNL1       -0.0256
      9 C         -24.1955    1.5984   30.1917 C.2     1  UNL1       -0.0256
     10 C         -25.4059    1.7758   30.9280 C.3     1  UNL1        0.0520
     11 C         -25.8155    3.1571   31.2756 C.ar    1  UNL1       -0.0178
     12 C         -26.7081    3.4152   32.2501 C.ar    1  UNL1       -0.0039
     13 C         -27.1750    4.6855   32.4676 C.ar    1  UNL1       -0.0003
     14 C         -26.7207    5.7554   31.6699 C.ar    1  UNL1       -0.0000
     15 C         -25.8456    5.5022   30.6830 C.ar    1  UNL1       -0.0003
     16 C         -25.3779    4.2133   30.4438 C.ar    1  UNL1       -0.0039
@<TRIPOS>BOND
     1     4     7    1
     2     7     8    1
     3     8     9    2
     4     9    10    1
     5    10    11    1
     6    11    12   ar
     7    12    13   ar
     8    13    14   ar
     9    14    15   ar
    10    15    16   ar
    11    16    11   ar
    12     1     2   ar
    13     2     5   ar
    14     5     6   ar
    15     6     4   ar
    16     4     3   ar
    17     3     1   ar
