@<TRIPOS>MOLECULE
No_3913-gen_results/8p0m/2024-11-26-14-13-15/
 19 21 0 0 0
SMALL
GASTEIGER

@<TRIPOS>ATOM
      1 O         -28.1229   -1.3353   28.4874 O.2     1  UNL1       -0.2741
      2 C         -27.4806   -0.4044   28.7094 C.2     1  UNL1        0.2363
      3 N         -27.2412    0.3910   29.5098 N.am    1  UNL1       -0.2218
      4 C         -26.4066   -0.1069   27.4496 C.3     1  UNL1        0.1121
      5 C         -25.4358    0.8473   27.6341 C.ar    1  UNL1       -0.0087
      6 C         -24.3969    1.1078   26.6806 C.ar    1  UNL1       -0.0036
      7 C         -28.1114    0.2298   30.7160 C.3     1  UNL1        0.1277
      8 C         -23.3378    2.0296   27.0921 C.ar    1  UNL1       -0.0003
      9 C         -23.1858    2.2624   28.4306 C.ar    1  UNL1        0.0001
     10 C         -24.0266    1.8141   29.3830 C.ar    1  UNL1        0.0042
     11 C         -25.0754    1.0925   29.0410 C.ar    1  UNL1        0.0505
     12 C         -26.0565    1.0820   29.8912 C.2     1  UNL1        0.2547
     13 O         -25.9774    1.6993   31.0322 O.2     1  UNL1       -0.2695
     14 C         -29.4125    0.6692   30.2847 C.ar    1  UNL1       -0.0019
     15 C         -29.8460    1.5270   30.8847 C.ar    1  UNL1       -0.0026
     16 C         -31.1247    2.1492   30.4510 C.ar    1  UNL1       -0.0003
     17 C         -31.8238    1.5396   29.4126 C.ar    1  UNL1       -0.0000
     18 C         -31.2698    0.4795   28.7614 C.ar    1  UNL1       -0.0003
     19 C         -30.0352    0.0124   29.1569 C.ar    1  UNL1       -0.0026
@<TRIPOS>BOND
     1     1     2    2
     2     2     3   am
     3     2     4    1
     4     3     7    1
     5     3    12   am
     6    11    12    1
     7    12    13    2
     8     7    14    1
     9     4     5    1
    10     5     6   ar
    11     6     8   ar
    12     8     9   ar
    13     9    10   ar
    14    10    11   ar
    15    11     5   ar
    16    14    15   ar
    17    15    16   ar
    18    16    17   ar
    19    17    18   ar
    20    18    19   ar
    21    19    14   ar
