@<TRIPOS>MOLECULE
No_3914-gen_results/8p0m/2024-11-26-14-13-15/
 35 37 0 0 0
SMALL
GASTEIGER

@<TRIPOS>ATOM
      1 O         -28.1229   -1.3353   28.4874 O.2     1  UNL1       -0.2448
      2 C         -28.5208   -0.4363   29.0779 C.2     1  UNL1        0.3443
      3 O         -27.9150    0.0780   30.0386 O.3     1  UNL1       -0.4420
      4 C         -29.8074    0.1885   28.6630 C.ar    1  UNL1        0.1101
      5 C         -30.8246   -0.1277   29.2563 C.ar    1  UNL1        0.1516
      6 C         -32.1083    0.3977   28.7646 C.ar    1  UNL1        0.0377
      7 C         -32.0462    1.2674   27.6549 C.ar    1  UNL1        0.0030
      8 C         -30.8242    1.5582   27.0408 C.ar    1  UNL1        0.0004
      9 C         -29.6319    1.0185   27.5262 C.ar    1  UNL1        0.0092
     10 C         -33.2776    1.8904   27.1202 C.ar    1  UNL1        0.0001
     11 C         -33.3266    2.4043   26.0261 C.ar    1  UNL1        0.0000
     12 C         -32.0031    2.7562   25.3126 C.ar    1  UNL1        0.0000
     13 C         -30.7633    2.3433   25.8263 C.ar    1  UNL1        0.0000
     14 C         -28.3418    1.2882   26.8794 C.ar    1  UNL1        0.0003
     15 C         -27.5855    2.3771   27.3172 C.ar    1  UNL1        0.0039
     16 C         -27.7743    0.4103   25.9550 C.ar    1  UNL1       -0.0000
     17 C         -26.5989    0.6659   25.3287 C.ar    1  UNL1       -0.0001
     18 C         -25.8024    1.7209   25.7378 C.ar    1  UNL1        0.0039
     19 C         -26.3503    2.6420   26.7171 C.ar    1  UNL1        0.0714
     20 C         -25.5352    3.8080   27.1350 C.3     1  UNL1        0.4186
     21 F         -24.5220    3.9663   26.4692 F       1  UNL1       -0.1659
     22 F         -25.0683    3.6409   28.4160 F       1  UNL1       -0.1659
     23 F         -26.2782    4.9250   27.1633 F       1  UNL1       -0.1659
     24 C         -26.5984   -0.1908   30.4461 C.3     1  UNL1        0.2527
     25 C         -25.6997    0.5229   29.7919 C.3     1  UNL1        0.2981
     26 C         -25.0079    1.6118   30.6140 C.3     1  UNL1        0.4310
     27 F         -24.7695    1.0740   31.7398 F       1  UNL1       -0.1670
     28 F         -25.8094    2.7219   30.7186 F       1  UNL1       -0.1670
     29 F         -24.6605   -0.3160   29.2456 F       1  UNL1       -0.2240
     30 F         -23.8138    1.9817   30.0762 F       1  UNL1       -0.1670
     31 O         -30.9469   -0.9308   30.3096 O.3     1  UNL1       -0.4502
     32 C         -30.8475   -0.4995   31.5760 C.2     1  UNL1        0.1795
     33 C         -30.3519   -1.4278   32.4876 C.2     1  UNL1        0.0407
     34 C         -29.8273   -0.9336   33.6843 C.2     1  UNL1        0.0032
     35 C         -29.2572   -0.1132   33.8099 C.2     1  UNL1        0.0001
@<TRIPOS>BOND
     1     1     2    2
     2     2     3    1
     3     2     4    1
     4     9    14    1
     5    19    20    1
     6    20    21    1
     7    20    22    1
     8    20    23    1
     9     3    24    1
    10    24    25    1
    11    25    26    1
    12    26    27    1
    13    26    28    1
    14    25    29    1
    15    26    30    1
    16     5    31    1
    17    31    32    1
    18    32    33    2
    19    33    34    1
    20    34    35    2
    21     8    13   ar
    22    13    12   ar
    23    12    11   ar
    24    11    10   ar
    25    10     7   ar
    26    14    15   ar
    27    15    19   ar
    28    19    18   ar
    29    18    17   ar
    30    17    16   ar
    31    16    14   ar
    32     4     5   ar
    33     5     6   ar
    34     6     7   ar
    35     7     8   ar
    36     8     9   ar
    37     9     4   ar
