@<TRIPOS>MOLECULE
No_3915-gen_results/8p0m/2024-11-26-14-13-15/
 17 17 0 0 0
SMALL
GASTEIGER

@<TRIPOS>ATOM
      1 C         -28.0162   -0.8135   28.8779 C.3     1  UNL1        0.0264
      2 C         -27.0636   -0.1189   28.6079 C.ar    1  UNL1       -0.0222
      3 C         -26.9287    1.1713   29.0083 C.ar    1  UNL1       -0.0043
      4 C         -25.7702    2.0341   28.6884 C.ar    1  UNL1        0.0035
      5 C         -24.7141    1.4431   27.9188 C.ar    1  UNL1        0.0714
      6 C         -24.8590    0.0783   27.5836 C.ar    1  UNL1        0.0035
      7 C         -25.9647   -0.6606   27.9164 C.ar    1  UNL1       -0.0043
      8 C         -28.6576   -0.6023   30.2546 C.3     1  UNL1        0.0062
      9 C         -29.6781   -1.3142   30.5817 C.3     1  UNL1        0.0221
     10 C         -23.5305    2.1689   27.5471 C.3     1  UNL1        0.4186
     11 F         -23.4749    2.9451   26.8281 F       1  UNL1       -0.1659
     12 F         -22.5112    1.1397   27.1510 F       1  UNL1       -0.1659
     13 F         -22.8581    2.5295   28.7746 F       1  UNL1       -0.1659
     14 CA        -29.9062   -2.4607   30.8618 C.3     1  UNL1        0.1247
     15 C         -28.8693   -3.2189   31.2826 C.3     1  UNL1        0.2009
     16 O         -28.7616   -4.4411   31.1140 O.3     1  UNL1       -0.2188
     17 N         -30.5888   -3.2978   29.8137 N.3     1  UNL1       -0.1301
@<TRIPOS>BOND
     1     1     2    1
     2     1     8    1
     3     8     9    1
     4     5    10    1
     5    10    11    1
     6    10    12    1
     7    10    13    1
     8     9    14    1
     9    14    15    1
    10    15    16    1
    11    14    17    1
    12     2     3   ar
    13     3     4   ar
    14     4     5   ar
    15     5     6   ar
    16     6     7   ar
    17     7     2   ar
