@<TRIPOS>MOLECULE
No_3916-gen_results/8p0m/2024-11-26-14-13-15/
 15 17 0 0 0
SMALL
GASTEIGER

@<TRIPOS>ATOM
      1 C         -28.0162   -0.8135   28.8779 C.ar    1  UNL1        0.0033
      2 C         -27.0636   -0.1189   28.6079 C.ar    1  UNL1        0.0002
      3 C         -26.9716    0.7139   27.5060 C.ar    1  UNL1        0.0032
      4 C         -28.1053    0.7744   26.6421 C.ar    1  UNL1        0.0420
      5 C         -29.2008    0.1044   27.0527 C.ar    1  UNL1        0.1957
      6 C         -29.2096   -0.6029   28.1853 C.ar    1  UNL1        0.0420
      7 O         -30.3045    0.2267   26.2604 O.3     1  UNL1       -0.2866
      8 C         -25.7141   -0.2197   29.4065 C.ar    1  UNL1        0.0000
      9 C         -24.5540    0.0545   28.8651 C.ar    1  UNL1        0.0000
     10 C         -23.3204   -0.0571   29.5801 C.ar    1  UNL1        0.0000
     11 C         -22.0807    0.3295   28.9748 C.ar    1  UNL1        0.0000
     12 C         -22.0148    1.1139   27.8441 C.ar    1  UNL1        0.0000
     13 C         -23.2245    1.4284   27.1739 C.ar    1  UNL1        0.0000
     14 C         -24.4830    0.9684   27.6695 C.ar    1  UNL1        0.0000
     15 C         -25.7343    1.1757   26.9851 C.ar    1  UNL1        0.0001
@<TRIPOS>BOND
     1     5     7    1
     2     1     2   ar
     3     3     4   ar
     4     4     5   ar
     5     5     6   ar
     6     6     1   ar
     7     2     3   ar
     8     3    15   ar
     9    15    14   ar
    10     9     8   ar
    11     8     2   ar
    12     9    10   ar
    13    10    11   ar
    14    11    12   ar
    15    12    13   ar
    16    13    14   ar
    17    14     9   ar
