@<TRIPOS>MOLECULE
No_3917-gen_results/8p0m/2024-11-26-14-13-15/
 14 14 0 0 0
SMALL
GASTEIGER

@<TRIPOS>ATOM
      1 C         -28.0162   -0.8135   28.8779 C.ar    1  UNL1        0.0160
      2 C         -27.0636   -0.1189   28.6079 C.ar    1  UNL1        0.0559
      3 C         -25.7923   -0.4302   29.0761 C.ar    1  UNL1        0.0046
      4 C         -25.5756   -1.5654   29.9363 C.ar    1  UNL1        0.0010
      5 C         -26.7354   -2.3004   30.2173 C.ar    1  UNL1        0.0114
      6 C         -27.9184   -1.9537   29.7629 C.ar    1  UNL1        0.0578
      7 C         -27.1057    1.1023   27.7593 C.2     1  UNL1        0.2647
      8 N         -26.8548    2.1259   28.0082 N.am    1  UNL1       -0.2051
      9 O         -27.3162    0.8994   26.3989 O.2     1  UNL1       -0.2684
     10 C         -26.5716    3.1374   27.5998 C.3     1  UNL1        0.0791
     11 C         -25.1790    3.6581   27.8471 C.3     1  UNL1        0.0217
     12 C         -27.4629    4.3623   28.0108 C.3     1  UNL1        0.0217
     13 CL        -29.2432   -2.8925   30.2949 Cl      1  UNL1       -0.0822
     14 C         -26.5679    3.2238   25.9596 C.3     1  UNL1        0.0217
@<TRIPOS>BOND
     1     2     7    1
     2     7     8   am
     3     7     9    2
     4     8    10    1
     5    10    11    1
     6    10    12    1
     7     6    13    1
     8    10    14    1
     9     1     2   ar
    10     2     3   ar
    11     3     4   ar
    12     4     5   ar
    13     5     6   ar
    14     6     1   ar
