@<TRIPOS>MOLECULE
No_3918-gen_results/8p0m/2024-11-26-14-13-15/
 35 38 0 0 0
SMALL
GASTEIGER

@<TRIPOS>ATOM
      1 C         -28.0162   -0.8135   28.8779 C.ar    1  UNL1        0.0211
      2 C         -28.4690   -0.7850   29.8287 C.ar    1  UNL1        0.0549
      3 C         -26.5042   -0.7777   28.8766 C.ar    1  UNL1        0.0738
      4 C         -25.8103   -0.8531   30.1028 C.ar    1  UNL1        0.0166
      5 C         -27.9906   -0.8916   31.2257 C.ar    1  UNL1        0.0046
      6 C         -26.6042   -0.8676   31.2652 C.ar    1  UNL1        0.0015
      7 C         -30.0739   -0.8360   29.8615 C.2     1  UNL1        0.2494
      8 O         -30.5608   -0.4417   28.9417 O.2     1  UNL1       -0.2699
      9 N         -30.7486   -1.4028   30.9474 N.am    1  UNL1       -0.2702
     10 C         -30.3147   -1.9473   32.0849 C.3     1  UNL1        0.1155
     11 C         -32.2371   -1.3585   30.7532 C.3     1  UNL1        0.1205
     12 N         -25.7000   -0.6775   27.7552 N.am    1  UNL1       -0.1754
     13 C         -25.1730    0.5656   27.3611 C.2     1  UNL1        0.2690
     14 C         -23.8965    0.8251   27.8793 C.ar    1  UNL1        0.0554
     15 C         -23.0882    1.8505   27.2942 C.ar    1  UNL1        0.0046
     16 C         -21.7971    2.1604   27.8051 C.ar    1  UNL1        0.0001
     17 C         -21.2747    1.1334   28.7600 C.ar    1  UNL1        0.0000
     18 C         -21.9727    0.0975   29.2020 C.ar    1  UNL1        0.0001
     19 C         -23.2634   -0.0926   28.7620 C.ar    1  UNL1        0.0046
     20 O         -25.8632    1.4123   26.8112 O.2     1  UNL1       -0.2680
     21 C         -32.9944   -0.4833   31.2383 C.ar    1  UNL1       -0.0022
     22 C         -32.7498    0.0607   32.3255 C.ar    1  UNL1       -0.0026
     23 C         -33.6324    1.0998   33.0058 C.ar    1  UNL1       -0.0001
     24 C         -34.7835    1.3788   32.2524 C.ar    1  UNL1        0.0046
     25 C         -35.0477    0.7903   31.0764 C.ar    1  UNL1        0.0551
     26 C         -34.1641   -0.1375   30.5263 C.ar    1  UNL1        0.0020
     27 C         -36.2750    1.1205   30.3322 C.2     1  UNL1        0.2690
     28 O         -36.8570    0.5822   29.5725 O.2     1  UNL1       -0.2680
     29 N         -36.6310    2.4170   30.6704 N.am    1  UNL1       -0.1754
     30 C         -37.8307    2.9986   30.0491 C.ar    1  UNL1        0.0737
     31 C         -38.6590    2.6584   29.4794 C.ar    1  UNL1        0.0166
     32 C         -39.7658    3.3746   28.9550 C.ar    1  UNL1        0.0013
     33 C         -39.7806    4.7640   29.2420 C.ar    1  UNL1        0.0001
     34 C         -38.7447    5.2873   29.9589 C.ar    1  UNL1        0.0013
     35 C         -37.7097    4.5138   30.4637 C.ar    1  UNL1        0.0166
@<TRIPOS>BOND
     1     2     7    1
     2     7     8    2
     3     7     9   am
     4     9    10    1
     5     9    11    1
     6     3    12    1
     7    12    13   am
     8    13    14    1
     9    13    20    2
    10    11    21    1
    11    25    27    1
    12    27    28    2
    13    27    29   am
    14    29    30    1
    15    14    15   ar
    16    15    16   ar
    17    16    17   ar
    18    17    18   ar
    19    18    19   ar
    20    19    14   ar
    21    30    31   ar
    22    31    32   ar
    23    32    33   ar
    24    33    34   ar
    25    34    35   ar
    26    35    30   ar
    27     1     2   ar
    28     2     5   ar
    29     5     6   ar
    30     6     4   ar
    31     4     3   ar
    32     3     1   ar
    33    21    22   ar
    34    22    23   ar
    35    23    24   ar
    36    24    25   ar
    37    25    26   ar
    38    26    21   ar
