@<TRIPOS>MOLECULE
No_3919-gen_results/8p0m/2024-11-26-14-13-15/
 12 13 0 0 0
SMALL
GASTEIGER

@<TRIPOS>ATOM
      1 C         -28.0162   -0.8135   28.8779 C.ar    1  UNL1        0.0000
      2 C         -28.4690   -0.7850   29.8287 C.ar    1  UNL1        0.0000
      3 C         -27.1356    0.2359   28.5352 C.ar    1  UNL1        0.0000
      4 C         -26.8745    1.2825   29.3982 C.ar    1  UNL1        0.0000
      5 C         -27.5070    1.2380   30.6295 C.ar    1  UNL1        0.0000
      6 C         -28.3293    0.1745   30.9350 C.ar    1  UNL1        0.0000
      7 C         -26.4077    0.3070   27.2259 C.ar    1  UNL1        0.0000
      8 C         -25.0105    0.3902   27.3228 C.ar    1  UNL1        0.0000
      9 C         -27.0459    0.3288   26.0049 C.ar    1  UNL1        0.0000
     10 C         -26.2970    0.2704   24.8501 C.ar    1  UNL1        0.0000
     11 C         -24.2396    0.5508   26.1412 C.ar    1  UNL1        0.0000
     12 C         -24.9230    0.4385   24.8830 C.ar    1  UNL1        0.0000
@<TRIPOS>BOND
     1     3     7    1
     2     1     2   ar
     3     2     6   ar
     4     6     5   ar
     5     5     4   ar
     6     4     3   ar
     7     3     1   ar
     8     7     8   ar
     9     8    11   ar
    10    11    12   ar
    11    12    10   ar
    12    10     9   ar
    13     9     7   ar
