@<TRIPOS>MOLECULE
No_392-gen_results/8p0m/2024-11-26-14-13-15/
 27 29 0 0 0
SMALL
GASTEIGER

@<TRIPOS>ATOM
      1 C         -28.0162   -0.8135   28.8779 C.ar    1  UNL1        0.0375
      2 C         -27.0636   -0.1189   28.6079 C.ar    1  UNL1        0.0031
      3 C         -25.7647   -0.3897   29.0360 C.ar    1  UNL1        0.0002
      4 C         -25.5296   -1.5302   29.9014 C.ar    1  UNL1        0.0031
      5 C         -26.6577   -2.2915   30.2035 C.ar    1  UNL1        0.0375
      6 C         -27.8548   -1.9555   29.7630 C.ar    1  UNL1        0.1453
      7 C         -24.5349    0.4128   28.7431 C.ar    1  UNL1        0.0000
      8 C         -24.4835    1.2431   27.7398 C.ar    1  UNL1        0.0000
      9 C         -23.3130    1.8552   27.3514 C.ar    1  UNL1        0.0000
     10 C         -22.0780    1.6190   27.9587 C.ar    1  UNL1        0.0000
     11 C         -23.2686    0.0949   29.4170 C.ar    1  UNL1        0.0000
     12 C         -22.0621    0.7484   29.0306 C.ar    1  UNL1        0.0000
     13 O         -28.9244   -2.7292   30.1327 O.3     1  UNL1       -0.4537
     14 C         -29.2775   -2.8169   31.4391 C.ar    1  UNL1        0.1461
     15 C         -30.6653   -2.6971   31.6385 C.ar    1  UNL1        0.0325
     16 C         -31.0634   -2.8397   32.8658 C.ar    1  UNL1        0.0037
     17 C         -30.3360   -2.8111   33.7122 C.ar    1  UNL1        0.0420
     18 C         -28.9168   -2.8856   33.7334 C.ar    1  UNL1        0.1988
     19 C         -28.3639   -2.8796   32.4908 C.ar    1  UNL1        0.0792
     20 O         -28.1291   -2.8450   34.7957 O.3     1  UNL1       -0.2865
     21 C         -31.5273   -2.7154   30.4339 C.3     1  UNL1        0.1242
     22 N         -31.6788   -1.9102   29.7095 N.pl3   1  UNL1       -0.2636
     23 C         -31.7059   -0.5843   30.0665 C.2     1  UNL1        0.0645
     24 C         -31.7764    0.4710   29.0139 C.2     1  UNL1        0.0172
     25 C         -31.8678   -1.9982   28.2731 C.3     1  UNL1        0.3200
     26 F         -31.7108   -3.2530   27.9291 F       1  UNL1       -0.1958
     27 CL        -31.8923   -0.8770   27.1533 Cl      1  UNL1       -0.0552
@<TRIPOS>BOND
     1     3     7    1
     2     6    13    1
     3    13    14    1
     4    18    20    1
     5    15    21    1
     6    21    22    1
     7    22    23    1
     8    23    24    2
     9    22    25    1
    10    25    26    1
    11    25    27    1
    12     7     8   ar
    13     8     9   ar
    14     9    10   ar
    15    10    12   ar
    16    12    11   ar
    17    11     7   ar
    18     1     2   ar
    19     2     3   ar
    20     3     4   ar
    21     4     5   ar
    22     5     6   ar
    23     6     1   ar
    24    14    15   ar
    25    15    16   ar
    26    16    17   ar
    27    17    18   ar
    28    18    19   ar
    29    19    14   ar
