@<TRIPOS>MOLECULE
No_3922-gen_results/8p0m/2024-11-26-14-13-15/
 7 7 0 0 0
SMALL
GASTEIGER

@<TRIPOS>ATOM
      1 C         -28.0162   -0.8135   28.8779 C.ar    1  UNL1        0.0296
      2 C         -28.4690   -0.7850   29.8287 C.ar    1  UNL1        0.0023
      3 C         -27.1356    0.2359   28.5352 C.ar    1  UNL1        0.1401
      4 C         -26.8745    1.2825   29.3982 C.ar    1  UNL1        0.0296
      5 C         -27.5070    1.2380   30.6295 C.ar    1  UNL1        0.0023
      6 C         -28.3293    0.1745   30.9350 C.ar    1  UNL1        0.0001
      7 F         -26.4982    0.2704   27.3556 F       1  UNL1       -0.2042
@<TRIPOS>BOND
     1     3     7    1
     2     1     2   ar
     3     2     6   ar
     4     6     5   ar
     5     5     4   ar
     6     4     3   ar
     7     3     1   ar
