@<TRIPOS>MOLECULE
No_3923-gen_results/8p0m/2024-11-26-14-13-15/
 5 4 0 0 0
SMALL
GASTEIGER

@<TRIPOS>ATOM
      1 F         -28.0727   -1.2542   28.5316 F       1  UNL1       -0.1403
      2 C         -27.0607   -0.6291   28.8721 C.3     1  UNL1        0.5613
      3 F         -27.2487    0.2515   29.6594 F       1  UNL1       -0.1403
      4 F         -26.4810   -0.1356   27.7171 F       1  UNL1       -0.1403
      5 F         -26.1444   -1.5464   29.3284 F       1  UNL1       -0.1403
@<TRIPOS>BOND
     1     1     2    1
     2     2     3    1
     3     2     4    1
     4     2     5    1
