@<TRIPOS>MOLECULE
No_3924-gen_results/8p0m/2024-11-26-14-13-15/
 12 13 0 0 0
SMALL
GASTEIGER

@<TRIPOS>ATOM
      1 N         -28.0544   -1.0498   28.7246 N.ar    1  UNL1       -0.2420
      2 C         -27.7460   -0.0733   29.0098 C.ar    1  UNL1        0.0814
      3 C         -27.1737    0.7565   28.1070 C.ar    1  UNL1        0.0191
      4 C         -25.8200    1.2606   28.2149 C.ar    1  UNL1        0.0015
      5 C         -25.3544    1.5791   29.1553 C.ar    1  UNL1        0.0001
      6 C         -26.0062    1.0640   30.4405 C.ar    1  UNL1        0.0015
      7 C         -27.0427    0.1770   30.2859 C.ar    1  UNL1        0.0177
      8 CA        -28.0630   -2.0750   29.7371 C.ar    1  UNL1        0.1234
      9 C         -28.7387   -3.3410   29.5458 C.2     1  UNL1        0.2531
     10 C         -27.4767   -1.8861   31.0629 C.ar    1  UNL1        0.0225
     11 C         -26.8280   -0.7522   31.2502 C.ar    1  UNL1        0.0031
     12 O         -29.7485   -3.4764   29.2469 O.2     1  UNL1       -0.2815
@<TRIPOS>BOND
     1     9    12    2
     2     9     8    1
     3     2     3   ar
     4     3     4   ar
     5     4     5   ar
     6     5     6   ar
     7     6     7   ar
     8     1     2   ar
     9     2     7   ar
    10     7    11   ar
    11    11    10   ar
    12    10     8   ar
    13     8     1   ar
