@<TRIPOS>MOLECULE
No_3926-gen_results/8p0m/2024-11-26-14-13-15/
 21 23 0 0 0
SMALL
GASTEIGER

@<TRIPOS>ATOM
      1 C         -28.0162   -0.8135   28.8779 C.ar    1  UNL1        0.0065
      2 C         -27.0636   -0.1190   28.6079 C.ar    1  UNL1        0.0041
      3 C         -25.7647   -0.3897   29.0360 C.ar    1  UNL1       -0.0000
      4 C         -24.5516    0.4058   28.7646 C.ar    1  UNL1       -0.0000
      5 C         -23.2300    0.1178   29.2575 C.ar    1  UNL1       -0.0000
      6 C         -22.1393    0.9427   28.9224 C.ar    1  UNL1       -0.0000
      7 C         -27.8294   -1.9287   29.8545 C.ar    1  UNL1        0.0798
      8 C         -26.5882   -2.3272   30.2682 C.ar    1  UNL1        0.0066
      9 C         -25.4565   -1.5432   29.9146 C.ar    1  UNL1        0.0002
     10 C         -22.2302    1.9089   27.8723 C.ar    1  UNL1       -0.0000
     11 C         -24.5538    1.4700   27.7617 C.ar    1  UNL1       -0.0001
     12 C         -25.8192    1.7343   27.1414 C.ar    1  UNL1        0.0039
     13 C         -23.4497    2.1614   27.3194 C.ar    1  UNL1       -0.0000
     14 C         -27.1054    1.0088   27.5868 C.ar    1  UNL1        0.0714
     15 C         -28.3471    1.3280   26.9858 C.3     1  UNL1        0.4186
     16 F         -28.1711    1.8297   26.0338 F       1  UNL1       -0.1659
     17 F         -28.9144    2.1692   27.9201 F       1  UNL1       -0.1659
     18 F         -29.0945    0.2411   26.8546 F       1  UNL1       -0.1659
     19 C         -29.0608   -2.7292   30.2433 C.2     1  UNL1        0.3878
     20 O         -28.9560   -3.9511   30.3236 O.co2   1  UNL1       -0.2406
     21 O         -30.1511   -2.1640   30.4987 O.co2   1  UNL1       -0.2406
@<TRIPOS>BOND
     1    14    15    1
     2    15    16    1
     3    15    17    1
     4    15    18    1
     5     7    19    1
     6    19    20   ar
     7    19    21   ar
     8     1     2   ar
     9     3     9   ar
    10     9     8   ar
    11     8     7   ar
    12     7     1   ar
    13     2     3   ar
    14     3     4   ar
    15    11    12   ar
    16    12    14   ar
    17    14     2   ar
    18     4     5   ar
    19     5     6   ar
    20     6    10   ar
    21    10    13   ar
    22    13    11   ar
    23    11     4   ar
