@<TRIPOS>MOLECULE
No_3927-gen_results/8p0m/2024-11-26-14-13-15/
 28 29 0 0 0
SMALL
GASTEIGER

@<TRIPOS>ATOM
      1 C         -28.0162   -0.8135   28.8779 C.ar    1  UNL1        0.0070
      2 C         -27.0636   -0.1189   28.6079 C.ar    1  UNL1        0.0729
      3 C         -26.9716    0.7139   27.5060 C.ar    1  UNL1        0.0218
      4 C         -28.1053    0.7744   26.6421 C.ar    1  UNL1        0.0860
      5 C         -29.2008    0.1044   27.0527 C.ar    1  UNL1        0.1525
      6 C         -29.2096   -0.6029   28.1853 C.ar    1  UNL1        0.0382
      7 O         -30.2994    0.2279   26.2571 O.3     1  UNL1       -0.4687
      8 C         -25.7189   -0.2206   29.4011 C.3     1  UNL1        0.4186
      9 F         -24.7913   -0.2236   28.7226 F       1  UNL1       -0.1659
     10 F         -25.6012    0.8359   30.2653 F       1  UNL1       -0.1659
     11 F         -25.7788   -1.2811   30.2357 F       1  UNL1       -0.1659
     12 N         -28.0036    1.5747   25.5241 N.pl3   1  UNL1       -0.2818
     13 C         -31.0085   -0.6765   26.0666 C.3     1  UNL1        0.2412
     14 C         -31.5107   -0.7893   24.6842 C.3     1  UNL1        0.0509
     15 C         -32.2774   -0.7153   26.8984 C.2     1  UNL1        0.2659
     16 O         -32.3541   -0.2662   27.9522 O.2     1  UNL1       -0.2710
     17 N         -33.3612   -1.4202   26.4306 N.am    1  UNL1       -0.2749
     18 C         -33.6131   -1.7906   25.1330 C.3     1  UNL1        0.0937
     19 C         -30.3372   -0.7426   23.6839 C.3     1  UNL1        0.0043
     20 C         -32.6060   -0.7201   23.9591 C.3     1  UNL1        0.0256
     21 C         -34.5001   -1.7060   27.3001 C.3     1  UNL1        0.1150
     22 C         -28.0705    2.8766   25.5730 C.2     1  UNL1        0.0655
     23 C         -27.6413    0.9399   24.3323 C.3     1  UNL1        0.1174
     24 C         -27.5440    3.6508   26.5279 C.2     1  UNL1        0.0161
     25 C         -28.0506    4.4609   27.4806 C.2     1  UNL1        0.0013
     26 C         -27.3999    5.0702   28.5263 C.2     1  UNL1        0.0000
     27 C         -25.9613    4.9183   28.5842 C.2     1  UNL1        0.0000
     28 C         -25.3009    4.1483   27.6227 C.2     1  UNL1        0.0000
@<TRIPOS>BOND
     1     5     7    1
     2     2     8    1
     3     8     9    1
     4     8    10    1
     5     8    11    1
     6     4    12    1
     7     7    13    1
     8    13    14    1
     9    13    15    1
    10    15    16    2
    11    15    17   am
    12    17    18    1
    13    14    19    1
    14    14    20    1
    15    18    20    1
    16    17    21    1
    17    12    22    1
    18    12    23    1
    19    22    24    2
    20    24    25    1
    21    25    26    2
    22    26    27    1
    23    27    28    2
    24     1     2   ar
    25     2     3   ar
    26     3     4   ar
    27     4     5   ar
    28     5     6   ar
    29     6     1   ar
