@<TRIPOS>MOLECULE
No_3928-gen_results/8p0m/2024-11-26-14-13-15/
 23 25 0 0 0
SMALL
GASTEIGER

@<TRIPOS>ATOM
      1 C         -28.0162   -0.8135   28.8779 C.3     1  UNL1        0.4186
      2 C         -27.0636   -0.1190   28.6079 C.ar    1  UNL1        0.0712
      3 C         -25.7923   -0.4302   29.0761 C.ar    1  UNL1        0.0040
      4 C         -24.5456    0.3494   28.8225 C.ar    1  UNL1        0.0042
      5 C         -24.6586    1.4196   27.8878 C.ar    1  UNL1        0.0524
      6 C         -25.9471    1.6811   27.3792 C.ar    1  UNL1       -0.0017
      7 C         -27.0439    0.9739   27.6871 C.ar    1  UNL1        0.0011
      8 F         -27.9229   -2.0316   29.0996 F       1  UNL1       -0.1659
      9 F         -29.0495   -0.8160   27.8781 F       1  UNL1       -0.1659
     10 F         -28.6339   -0.2562   30.0064 F       1  UNL1       -0.1659
     11 C         -23.4725    2.1786   27.6322 C.2     1  UNL1        0.2646
     12 N         -23.4924    3.2077   26.9494 N.am    1  UNL1       -0.1999
     13 O         -22.2960    1.8346   28.0952 O.2     1  UNL1       -0.2684
     14 C         -24.7632    3.7574   26.4536 C.3     1  UNL1        0.1358
     15 C         -25.9097    2.9275   26.5461 C.3     1  UNL1        0.1022
     16 N         -27.0598    3.3946   26.0396 N.3     1  UNL1       -0.2702
     17 C         -28.0102    4.3959   26.4706 C.3     1  UNL1        0.0723
     18 C         -27.6227    2.6140   24.9187 C.3     1  UNL1        0.0578
     19 C         -27.1417    1.5666   24.4478 C.3     1  UNL1        0.0160
     20 C         -28.9009    3.1109   24.5505 C.3     1  UNL1        0.0160
     21 C         -29.6216    4.1250   25.0229 C.3     1  UNL1        0.0028
     22 C         -29.0518    4.8088   26.0790 C.3     1  UNL1        0.0174
     23 C         -27.8720    0.7155   23.5928 C.3     1  UNL1        0.0014
@<TRIPOS>BOND
     1     1     2    1
     2     1     8    1
     3     1     9    1
     4     1    10    1
     5     5    11    1
     6    11    12   am
     7    11    13    2
     8    12    14    1
     9     6    15    1
    10    14    15    1
    11    15    16    1
    12    16    17    1
    13    16    18    1
    14    18    20    1
    15    21    22    1
    16    19    23    1
    17    19    18    1
    18    17    22    1
    19    21    20    1
    20     2     3   ar
    21     3     4   ar
    22     4     5   ar
    23     5     6   ar
    24     6     7   ar
    25     7     2   ar
