@<TRIPOS>MOLECULE
No_3929-gen_results/8p0m/2024-11-26-14-13-15/
 35 37 0 0 0
SMALL
GASTEIGER

@<TRIPOS>ATOM
      1 C         -28.0162   -0.8135   28.8779 C.3     1  UNL1        0.1150
      2 C         -27.0636   -0.1189   28.6079 C.ar    1  UNL1       -0.0048
      3 C         -26.9287    1.1713   29.0083 C.ar    1  UNL1       -0.0027
      4 C         -25.7702    2.0341   28.6884 C.ar    1  UNL1        0.0046
      5 C         -24.7141    1.4431   27.9188 C.ar    1  UNL1        0.0593
      6 C         -24.8590    0.0783   27.5836 C.ar    1  UNL1        0.0046
      7 C         -25.9647   -0.6606   27.9164 C.ar    1  UNL1       -0.0027
      8 N         -28.6995   -0.6441   30.0766 N.3     1  UNL1       -0.2115
      9 C         -29.8035   -1.3645   30.5061 C.3     1  UNL1        0.1105
     10 C         -30.3751   -2.1790   29.7448 C.3     1  UNL1        0.1102
     11 N         -31.6119   -2.3483   29.7618 N.pl3   1  UNL1       -0.2982
     12 C         -23.4386    1.9376   27.7835 C.2     1  UNL1        0.2968
     13 N         -22.7387    2.0523   26.7960 N.2     1  UNL1       -0.1025
     14 C         -32.3013   -3.2060   28.9297 C.3     1  UNL1        0.1355
     15 O         -22.7799    2.3285   28.9105 O.2     1  UNL1       -0.2636
     16 C         -32.6049   -2.7511   27.6885 C.ar    1  UNL1        0.0812
     17 N         -32.5406   -3.5417   26.6747 N.ar    1  UNL1       -0.2462
     18 C         -33.5853   -3.8452   29.5160 C.2     1  UNL1       -0.0050
     19 C         -33.5045   -4.6990   30.3785 C.2     1  UNL1       -0.0240
     20 C         -32.2951   -5.3965   30.4836 C.3     1  UNL1        0.0520
     21 C         -31.8891   -6.0856   29.8291 C.ar    1  UNL1       -0.0181
     22 C         -31.6066   -6.2585   28.7189 C.ar    1  UNL1       -0.0079
     23 C         -30.9278   -7.3129   27.9481 C.ar    1  UNL1       -0.0181
     24 C         -32.4444   -3.0218   25.3691 C.ar    1  UNL1        0.0985
     25 C         -30.8264   -7.3610   26.5417 C.3     1  UNL1        0.0523
     26 C         -32.0819   -1.6991   25.2305 C.ar    1  UNL1        0.0207
     27 C         -32.2030   -1.3451   27.3671 C.ar    1  UNL1        0.0167
     28 C         -31.9776   -0.8655   26.2047 C.ar    1  UNL1        0.0029
     29 C         -30.3600   -8.4625   25.9634 C.2     1  UNL1       -0.0214
     30 C         -30.1290   -8.3759   24.5462 C.2     1  UNL1       -0.0046
     31 C         -31.2678   -7.3388   30.5939 C.ar    1  UNL1       -0.0040
     32 C         -30.8990   -8.5622   29.9585 C.ar    1  UNL1       -0.0006
     33 C         -30.6747   -8.4966   28.6501 C.ar    1  UNL1       -0.0040
     34 C         -32.4200   -1.6180   30.7810 C.2     1  UNL1        0.0619
     35 C         -31.7590   -0.6697   31.5786 C.2     1  UNL1        0.0171
@<TRIPOS>BOND
     1     1     2    1
     2     1     8    1
     3     8     9    1
     4     9    10    1
     5    10    11    1
     6     5    12    1
     7    12    13    2
     8    11    14    1
     9    12    15    1
    10    14    16    1
    11    14    18    1
    12    18    19    2
    13    19    20    1
    14    20    21    1
    15    23    25    1
    16    25    29    1
    17    29    30    2
    18    11    34    1
    19    34    35    2
    20     2     3   ar
    21     3     4   ar
    22     4     5   ar
    23     5     6   ar
    24     6     7   ar
    25     7     2   ar
    26    16    17   ar
    27    17    24   ar
    28    24    26   ar
    29    26    28   ar
    30    28    27   ar
    31    27    16   ar
    32    21    22   ar
    33    22    23   ar
    34    23    33   ar
    35    33    32   ar
    36    32    31   ar
    37    31    21   ar
