@<TRIPOS>MOLECULE
No_393-gen_results/8p0m/2024-11-26-14-13-15/
 14 14 0 0 0
SMALL
GASTEIGER

@<TRIPOS>ATOM
      1 C         -28.0162   -0.8135   28.8779 C.3     1  UNL1        0.4186
      2 C         -27.0636   -0.1190   28.6079 C.ar    1  UNL1        0.0714
      3 C         -25.7923   -0.4302   29.0761 C.ar    1  UNL1        0.0038
      4 C         -24.5456    0.3494   28.8225 C.ar    1  UNL1        0.0038
      5 C         -24.6586    1.4196   27.8878 C.ar    1  UNL1        0.0714
      6 C         -25.9471    1.6811   27.3792 C.ar    1  UNL1        0.0038
      7 C         -27.0439    0.9739   27.6871 C.ar    1  UNL1        0.0038
      8 F         -28.9951   -0.6028   28.1730 F       1  UNL1       -0.1659
      9 F         -27.7713   -2.1685   28.9811 F       1  UNL1       -0.1659
     10 F         -28.3666   -0.4904   30.2114 F       1  UNL1       -0.1659
     11 C         -23.4692    2.1767   27.6275 C.3     1  UNL1        0.4186
     12 F         -23.6621    3.3093   27.1892 F       1  UNL1       -0.1659
     13 F         -22.6442    2.3355   28.6913 F       1  UNL1       -0.1659
     14 F         -22.6569    1.5175   26.7212 F       1  UNL1       -0.1659
@<TRIPOS>BOND
     1     1     2    1
     2     1     8    1
     3     1     9    1
     4     1    10    1
     5     5    11    1
     6    11    12    1
     7    11    13    1
     8    11    14    1
     9     2     3   ar
    10     3     4   ar
    11     4     5   ar
    12     5     6   ar
    13     6     7   ar
    14     7     2   ar
