@<TRIPOS>MOLECULE
No_3930-gen_results/8p0m/2024-11-26-14-13-15/
 16 17 0 0 0
SMALL
GASTEIGER

@<TRIPOS>ATOM
      1 C         -28.0162   -0.8135   28.8779 C.ar    1  UNL1        0.0111
      2 C         -28.4690   -0.7850   29.8287 C.ar    1  UNL1        0.0577
      3 C         -26.5455   -0.8762   28.8500 C.ar    1  UNL1       -0.0031
      4 C         -25.8041   -1.0324   30.0571 C.ar    1  UNL1       -0.0190
      5 C         -27.9437   -0.9869   31.2075 C.ar    1  UNL1        0.0111
      6 C         -24.4008   -1.0969   30.0965 C.3     1  UNL1        0.0377
      7 C         -26.5612   -1.0746   31.2270 C.ar    1  UNL1       -0.0031
      8 C         -23.7342    0.1405   29.9379 C.ar    1  UNL1       -0.0190
      9 C         -22.4073    0.1808   29.4004 C.ar    1  UNL1       -0.0040
     10 C         -21.7602    1.3934   29.1245 C.ar    1  UNL1       -0.0003
     11 C         -24.2961    1.3975   30.3719 C.ar    1  UNL1       -0.0040
     12 C         -23.7049    2.6193   30.0040 C.ar    1  UNL1       -0.0003
     13 C         -22.4340    2.6024   29.4166 C.ar    1  UNL1       -0.0000
     14 CL        -30.3146   -0.6925   29.8679 Cl      1  UNL1       -0.0822
     15 C         -23.8342   -2.1619   29.1833 C.3     1  UNL1        0.0088
     16 C         -24.0032   -1.5600   31.6527 C.3     1  UNL1        0.0088
@<TRIPOS>BOND
     1     4     6    1
     2     6     8    1
     3     2    14    1
     4     6    15    1
     5     6    16    1
     6     8     9   ar
     7     9    10   ar
     8    10    13   ar
     9    13    12   ar
    10    12    11   ar
    11    11     8   ar
    12     1     2   ar
    13     2     5   ar
    14     5     7   ar
    15     7     4   ar
    16     4     3   ar
    17     3     1   ar
