@<TRIPOS>MOLECULE
No_3931-gen_results/8p0m/2024-11-26-14-13-15/
 17 18 0 0 0
SMALL
GASTEIGER

@<TRIPOS>ATOM
      1 C         -28.0162   -0.8135   28.8779 C.ar    1  UNL1        0.0038
      2 C         -27.0636   -0.1190   28.6079 C.ar    1  UNL1        0.0001
      3 C         -25.7923   -0.4302   29.0761 C.ar    1  UNL1        0.0001
      4 C         -24.5456    0.3494   28.8225 C.ar    1  UNL1        0.0046
      5 C         -24.6586    1.4196   27.8878 C.ar    1  UNL1        0.0567
      6 C         -25.9471    1.6811   27.3792 C.ar    1  UNL1        0.0046
      7 C         -27.0439    0.9739   27.6871 C.ar    1  UNL1        0.0001
      8 C         -28.0241   -1.6475   30.1263 C.ar    1  UNL1        0.0456
      9 C         -26.7278   -2.0846   30.5807 C.ar    1  UNL1        0.0038
     10 C         -25.5915   -1.4064   30.1489 C.ar    1  UNL1        0.0001
     11 C         -23.4486    2.1675   27.5241 C.2     1  UNL1        0.2842
     12 N         -22.2409    1.6190   27.7589 N.am    1  UNL1       -0.0837
     13 O         -23.5779    3.3910   27.2087 O.2     1  UNL1       -0.2667
     14 C         -29.1604   -2.4713   30.5352 C.2     1  UNL1        0.2179
     15 N         -29.1419   -3.6238   30.9016 N.2     1  UNL1       -0.2420
     16 F         -30.2871   -1.8770   30.4713 F       1  UNL1       -0.1836
     17 C         -28.1808   -4.4565   30.9935 C.3     1  UNL1        0.1542
@<TRIPOS>BOND
     1     5    11    1
     2    11    12   am
     3    11    13    2
     4     8    14    1
     5    14    15    2
     6    14    16    1
     7    15    17    1
     8     3     4   ar
     9     4     5   ar
    10     5     6   ar
    11     6     7   ar
    12     7     2   ar
    13     1     2   ar
    14     2     3   ar
    15     3    10   ar
    16    10     9   ar
    17     9     8   ar
    18     8     1   ar
