@<TRIPOS>MOLECULE
No_3932-gen_results/8p0m/2024-11-26-14-13-15/
 31 33 0 0 0
SMALL
GASTEIGER

@<TRIPOS>ATOM
      1 C         -28.0162   -0.8135   28.8779 C.ar    1  UNL1        0.0712
      2 C         -28.4690   -0.7850   29.8287 C.3     1  UNL1        0.4186
      3 C         -28.1816    0.4277   28.1134 C.ar    1  UNL1        0.0004
      4 C         -27.4498    0.6435   26.8500 C.ar    1  UNL1       -0.0113
      5 C         -26.1815    0.0357   26.7145 C.ar    1  UNL1        0.0537
      6 C         -25.7800   -0.9326   27.6938 C.ar    1  UNL1        0.0102
      7 C         -24.4665   -1.4639   27.6888 C.ar    1  UNL1        0.0008
      8 C         -26.6840   -1.2389   28.8057 C.ar    1  UNL1        0.0047
      9 F         -29.6967   -0.4261   29.9652 F       1  UNL1       -0.1659
     10 F         -27.8527   -0.4739   31.0352 F       1  UNL1       -0.1659
     11 C         -24.1177   -2.2520   28.9207 C.ar    1  UNL1        0.0000
     12 C         -26.0922   -2.1903   29.7145 C.ar    1  UNL1       -0.0000
     13 C         -24.9040   -2.6330   29.8748 C.ar    1  UNL1       -0.0000
     14 F         -28.7245   -2.2626   30.2591 F       1  UNL1       -0.1659
     15 C         -27.8287    1.6494   25.9198 C.3     1  UNL1        0.0315
     16 CL        -25.1467    0.4308   25.4911 Cl      1  UNL1       -0.0826
     17 C         -28.5789    1.0735   24.8651 C.3     1  UNL1        0.0268
     18 C         -29.8661    0.7275   25.1481 C.ar    1  UNL1       -0.0192
     19 C         -30.5688    0.0328   24.1612 C.ar    1  UNL1       -0.0041
     20 C         -31.8653   -0.4352   24.4151 C.ar    1  UNL1        0.0028
     21 C         -32.1773   -0.7176   25.3680 C.ar    1  UNL1        0.0369
     22 C         -31.5572   -0.1738   26.6649 C.ar    1  UNL1        0.1397
     23 C         -30.3872    0.5022   26.4717 C.ar    1  UNL1        0.0327
     24 C         -28.0800    1.1077   23.5374 C.3     1  UNL1        0.0050
     25 O         -32.1214   -0.3507   27.8624 O.3     1  UNL1       -0.4612
     26 C         -32.4440    0.7222   28.5587 C.3     1  UNL1        0.2814
     27 C         -33.7682    0.8993   28.8747 C.1     1  UNL1       -0.0377
     28 C         -34.5111   -0.0480   29.1849 C.1     1  UNL1       -0.0399
     29 C         -33.9863   -1.0482   29.9726 C.2     1  UNL1        0.1424
     30 N         -34.0966   -2.0179   30.2222 N.2     1  UNL1       -0.2580
     31 C         -35.2271   -2.6655   30.1039 C.3     1  UNL1        0.1525
@<TRIPOS>BOND
     1     1     2    1
     2     2     9    1
     3     2    10    1
     4     2    14    1
     5     4    15    1
     6     5    16    1
     7    15    17    1
     8    17    18    1
     9    17    24    1
    10    22    25    1
    11    25    26    1
    12    26    27    1
    13    27    28    3
    14    28    29    1
    15    29    30    2
    16    30    31    1
    17    18    19   ar
    18    19    20   ar
    19    20    21   ar
    20    21    22   ar
    21    22    23   ar
    22    23    18   ar
    23     1     3   ar
    24     3     4   ar
    25     4     5   ar
    26     5     6   ar
    27     8     1   ar
    28     6     7   ar
    29     7    11   ar
    30    11    13   ar
    31    13    12   ar
    32    12     8   ar
    33     8     6   ar
