@<TRIPOS>MOLECULE
No_3933-gen_results/8p0m/2024-11-26-14-13-15/
 18 20 0 0 0
SMALL
GASTEIGER

@<TRIPOS>ATOM
      1 N         -28.0544   -1.0498   28.7246 N.am    1  UNL1       -0.2509
      2 C         -26.9659   -0.4722   28.7709 C.3     1  UNL1        0.1250
      3 C         -26.5486    0.3876   27.8310 C.ar    1  UNL1       -0.0020
      4 C         -26.7395    1.3899   27.7796 C.ar    1  UNL1       -0.0022
      5 C         -28.2136    1.7758   27.7924 C.2     1  UNL1        0.0044
      6 C         -29.1718    0.9992   28.4220 C.2     1  UNL1        0.0583
      7 C         -28.1793   -2.1187   29.6182 C.ar    1  UNL1        0.0544
      8 C         -29.2139   -0.2286   28.7554 C.2     1  UNL1        0.2531
      9 C         -29.2531   -2.5631   30.2352 C.ar    1  UNL1        0.0149
     10 C         -26.9714   -3.0544   29.8336 C.ar    1  UNL1        0.0149
     11 C         -29.3577   -3.7964   30.9838 C.ar    1  UNL1        0.0013
     12 C         -28.2648   -4.6428   31.0593 C.ar    1  UNL1        0.0001
     13 C         -27.0843   -4.2690   30.4265 C.ar    1  UNL1        0.0013
     14 C         -25.4395   -0.2253   26.9489 C.ar    1  UNL1       -0.0026
     15 C         -24.6374    0.6260   26.1800 C.ar    1  UNL1       -0.0003
     16 C         -25.0328    2.0223   26.1397 C.ar    1  UNL1       -0.0000
     17 C         -26.1593    2.4815   26.8398 C.ar    1  UNL1       -0.0003
     18 O         -30.2197   -0.6781   29.3197 O.2     1  UNL1       -0.2696
@<TRIPOS>BOND
     1     1     2    1
     2     2     3    1
     3     4     5    1
     4     5     6    2
     5     1     7    1
     6     1     8   am
     7     6     8    1
     8     8    18    2
     9     3     4   ar
    10     4    17   ar
    11    17    16   ar
    12    16    15   ar
    13    15    14   ar
    14    14     3   ar
    15     7     9   ar
    16     9    11   ar
    17    11    12   ar
    18    12    13   ar
    19    13    10   ar
    20    10     7   ar
