@<TRIPOS>MOLECULE
No_3934-gen_results/8p0m/2024-11-26-14-13-15/
 13 13 0 0 0
SMALL
GASTEIGER

@<TRIPOS>ATOM
      1 O         -28.1229   -1.3353   28.4874 O.3     1  UNL1       -0.3912
      2 C         -27.0637   -0.8242   28.8687 C.ar    1  UNL1        0.1520
      3 C         -27.0246    0.1877   29.7358 C.ar    1  UNL1        0.0379
      4 C         -25.8391    0.8513   29.9958 C.ar    1  UNL1        0.0097
      5 C         -25.6913   -1.2021   28.3631 C.ar    1  UNL1        0.0379
      6 C         -24.5005   -0.6132   28.6652 C.ar    1  UNL1        0.0097
      7 C         -24.5796    0.4776   29.5164 C.ar    1  UNL1        0.0800
      8 C         -23.3227    1.1499   29.8370 C.2     1  UNL1        0.3878
      9 O         -22.7188    1.6959   29.0937 O.co2   1  UNL1       -0.2406
     10 O         -23.0235    1.1236   31.2177 O.co2   1  UNL1       -0.2406
     11 C         -29.0463   -1.3363   29.4404 C.2     1  UNL1        0.5567
     12 O         -30.1779   -1.4295   29.0966 O.co2   1  UNL1       -0.1996
     13 O         -28.9062   -1.6593   30.7384 O.co2   1  UNL1       -0.1996
@<TRIPOS>BOND
     1     1     2    1
     2     7     8    1
     3     8     9   ar
     4     8    10   ar
     5     1    11    1
     6    11    12   ar
     7    11    13   ar
     8     2     3   ar
     9     3     4   ar
    10     4     7   ar
    11     7     6   ar
    12     6     5   ar
    13     5     2   ar
