@<TRIPOS>MOLECULE
No_3936-gen_results/8p0m/2024-11-26-14-13-15/
 19 20 0 0 0
SMALL
GASTEIGER

@<TRIPOS>ATOM
      1 C         -28.0162   -0.8135   28.8779 C.ar    1  UNL1        0.0045
      2 C         -28.4690   -0.7850   29.8287 C.ar    1  UNL1        0.0539
      3 C         -27.1356    0.2359   28.5352 C.ar    1  UNL1        0.0001
      4 C         -26.3351    0.2900   27.2835 C.ar    1  UNL1        0.0001
      5 C         -29.3807   -1.9134   30.3549 C.2     1  UNL1        0.2528
      6 C         -28.2059    0.3924   30.8190 C.ar    1  UNL1        0.0045
      7 C         -26.6818    1.3524   29.3966 C.ar    1  UNL1        0.0001
      8 C         -27.3948    1.3448   30.6004 C.ar    1  UNL1        0.0001
      9 C         -25.2059    0.7322   27.0258 C.ar    1  UNL1        0.0033
     10 C         -24.7121    1.7034   28.0155 C.ar    1  UNL1        0.0422
     11 C         -23.4148    2.4026   27.8278 C.2     1  UNL1        0.2342
     12 C         -25.4268    1.9451   29.2313 C.ar    1  UNL1        0.0033
     13 O         -22.9264    2.4988   26.6474 O.2     1  UNL1       -0.2831
     14 O         -28.9966   -3.0836   30.4748 O.2     1  UNL1       -0.2696
     15 N         -30.6114   -1.6450   30.7087 N.am    1  UNL1       -0.2525
     16 C         -31.2537   -0.3706   30.6497 C.2     1  UNL1        0.0632
     17 C         -32.5860   -0.4871   30.9028 C.2     1  UNL1       -0.0096
     18 C         -31.4777   -2.5342   31.4253 C.3     1  UNL1        0.1204
     19 C         -33.4696    0.5284   30.7757 C.3     1  UNL1        0.0321
@<TRIPOS>BOND
     1     2     5    1
     2    10    11    1
     3    11    13    2
     4     5    14    2
     5     5    15   am
     6    15    16    1
     7    16    17    2
     8    15    18    1
     9    17    19    1
    10     3     4   ar
    11     4     9   ar
    12     9    10   ar
    13    10    12   ar
    14    12     7   ar
    15     1     2   ar
    16     2     6   ar
    17     6     8   ar
    18     8     7   ar
    19     7     3   ar
    20     3     1   ar
