@<TRIPOS>MOLECULE
No_3937-gen_results/8p0m/2024-11-26-14-13-15/
 10 10 0 0 0
SMALL
GASTEIGER

@<TRIPOS>ATOM
      1 C         -28.0162   -0.8135   28.8779 C.ar    1  UNL1       -0.0039
      2 C         -28.4690   -0.7850   29.8287 C.ar    1  UNL1       -0.0003
      3 C         -26.5455   -0.8762   28.8500 C.ar    1  UNL1       -0.0178
      4 C         -25.6825   -0.7773   27.6829 C.3     1  UNL1        0.0520
      5 C         -27.9181   -1.0034   31.1877 C.ar    1  UNL1       -0.0000
      6 C         -26.5308   -1.0794   31.2463 C.ar    1  UNL1       -0.0003
      7 C         -25.7798   -1.0462   30.0905 C.ar    1  UNL1       -0.0039
      8 C         -25.8976    0.2387   26.7449 C.2     1  UNL1       -0.0260
      9 C         -24.9256    0.7629   26.0322 C.2     1  UNL1       -0.0300
     10 C         -25.2235    1.6015   24.9575 C.3     1  UNL1        0.0304
@<TRIPOS>BOND
     1     3     4    1
     2     4     8    1
     3     8     9    2
     4     9    10    1
     5     1     2   ar
     6     2     5   ar
     7     5     6   ar
     8     6     7   ar
     9     7     3   ar
    10     3     1   ar
