@<TRIPOS>MOLECULE
No_3938-gen_results/8p0m/2024-11-26-14-13-15/
 19 20 0 0 0
SMALL
GASTEIGER

@<TRIPOS>ATOM
      1 C         -28.0162   -0.8135   28.8779 C.2     1  UNL1       -0.0114
      2 C         -27.0636   -0.1189   28.6079 C.2     1  UNL1       -0.0468
      3 C         -26.8756    1.1325   28.9134 C.3     1  UNL1        0.0223
      4 C         -25.6883    1.9515   28.5672 C.3     1  UNL1        0.0167
      5 C         -24.6394    1.2834   27.8753 C.3     1  UNL1        0.1122
      6 C         -24.8068   -0.0513   27.6040 C.3     1  UNL1        0.0167
      7 C         -25.9019   -0.7670   27.9511 C.3     1  UNL1        0.0223
      8 C         -29.2158   -0.1185   29.1813 C.3     1  UNL1        0.1377
      9 N         -30.1606   -0.7081   29.8314 N.pl3   1  UNL1       -0.2317
     10 C         -23.4208    1.9744   27.5040 C.2     1  UNL1        0.3461
     11 N         -23.0323    2.6861   26.7465 N.2     1  UNL1       -0.0545
     12 N         -22.2701    1.5605   28.3765 N.2     1  UNL1       -0.0352
     13 C         -21.1424    2.0299   27.7254 C.2     1  UNL1        0.2670
     14 C         -21.6531    2.5703   26.5657 C.3     1  UNL1        0.3392
     15 C         -29.9232   -1.6140   30.6796 C.2     1  UNL1        0.0813
     16 C         -28.7888   -2.4949   30.5092 C.2     1  UNL1        0.0598
     17 C         -27.7888   -1.9470   29.8747 C.3     1  UNL1        0.3333
     18 O         -26.5893   -2.5476   29.8923 O.3     1  UNL1       -0.1790
     19 F         -27.2350   -1.5694   30.7013 F       1  UNL1       -0.1959
@<TRIPOS>BOND
     1     1     2    2
     2     2     3    1
     3     3     4    1
     4     4     5    1
     5     5     6    1
     6     2     7    1
     7     6     7    1
     8     1     8    1
     9     8     9    1
    10     5    10    1
    11    10    11    2
    12    10    12    1
    13    12    13    2
    14    11    14    1
    15    13    14    1
    16     9    15    1
    17    15    16    2
    18    16    17    1
    19    17    18    1
    20    17    19    1
