@<TRIPOS>MOLECULE
No_3939-gen_results/8p0m/2024-11-26-14-13-15/
 32 34 0 0 0
SMALL
GASTEIGER

@<TRIPOS>ATOM
      1 O         -28.1229   -1.3353   28.4874 O.2     1  UNL1       -0.2692
      2 C         -27.4806   -0.4044   28.7094 C.2     1  UNL1        0.2565
      3 C         -26.3804   -0.0867   27.9394 C.ar    1  UNL1        0.0542
      4 N         -27.6664    0.4468   29.8988 N.am    1  UNL1       -0.2327
      5 C         -26.4086    0.8567   26.8802 C.ar    1  UNL1        0.0044
      6 C         -25.0824   -0.6970   28.1699 C.ar    1  UNL1        0.0045
      7 C         -25.2842    1.0488   26.0470 C.ar    1  UNL1        0.0001
      8 C         -23.9159   -0.3440   27.4444 C.ar    1  UNL1        0.0001
      9 C         -24.0618    0.5290   26.3707 C.ar    1  UNL1        0.0000
     10 C         -28.7784    0.1033   30.7872 C.2     1  UNL1        0.0723
     11 C         -26.8454    1.5246   30.2211 C.ar    1  UNL1        0.0584
     12 C         -27.2475    2.6214   30.2572 C.ar    1  UNL1        0.0152
     13 C         -26.3289    3.7165   30.4608 C.ar    1  UNL1        0.0013
     14 C         -24.9442    3.3911   30.5109 C.ar    1  UNL1        0.0001
     15 C         -24.5208    2.1081   30.4008 C.ar    1  UNL1        0.0013
     16 C         -25.4726    1.1100   30.2420 C.ar    1  UNL1        0.0152
     17 C         -27.6594    1.5189   26.5050 C.ar    1  UNL1        0.0003
     18 C         -27.8602    2.1880   25.4994 C.ar    1  UNL1        0.0000
     19 C         -28.7001    2.2400   24.8242 C.ar    1  UNL1        0.0001
     20 C         -29.8862    1.6216   24.9601 C.ar    1  UNL1        0.0027
     21 C         -30.0045    0.9140   26.1777 C.ar    1  UNL1        0.0288
     22 C         -28.8200    0.7345   26.9547 C.ar    1  UNL1        0.0027
     23 P         -31.5622    0.1471   26.6122 P.3     1  UNL1        0.1395
     24 O         -32.5465    0.9380   26.0904 O.2     1  UNL1       -0.4557
     25 O         -31.4728   -1.2561   26.0564 O.3     1  UNL1       -0.3542
     26 O         -31.4629    0.0207   28.1518 O.3     1  UNL1       -0.3542
     27 C         -29.4177    1.1433   31.3351 C.2     1  UNL1        0.0165
     28 C         -30.1214    1.2016   32.1492 C.2     1  UNL1        0.0013
     29 C         -30.7089    2.3826   32.7232 C.2     1  UNL1       -0.0003
     30 C         -31.6254    2.4600   33.8089 C.2     1  UNL1       -0.0046
     31 C         -32.0742    1.2166   34.2668 C.2     1  UNL1       -0.0258
     32 C         -31.6291    0.0495   33.7474 C.3     1  UNL1        0.0307
@<TRIPOS>BOND
     1     1     2    2
     2     2     3    1
     3     2     4   am
     4     4    10    1
     5     4    11    1
     6     5    17    1
     7    21    23    1
     8    23    24    2
     9    23    25    1
    10    23    26    1
    11    10    27    2
    12    27    28    1
    13    28    29    2
    14    29    30    1
    15    30    31    2
    16    31    32    1
    17    17    18   ar
    18    18    19   ar
    19    19    20   ar
    20    20    21   ar
    21    21    22   ar
    22    22    17   ar
    23    11    12   ar
    24    12    13   ar
    25    13    14   ar
    26    14    15   ar
    27    15    16   ar
    28    16    11   ar
    29     3     5   ar
    30     5     7   ar
    31     7     9   ar
    32     9     8   ar
    33     8     6   ar
    34     6     3   ar
