@<TRIPOS>MOLECULE
No_394-gen_results/8p0m/2024-11-26-14-13-15/
 26 28 0 0 0
SMALL
GASTEIGER

@<TRIPOS>ATOM
      1 O         -28.1229   -1.3353   28.4874 O.2     1  UNL1       -0.2680
      2 C         -28.5208   -0.4363   29.0779 C.2     1  UNL1        0.2690
      3 C         -27.6655    0.1129   30.0346 C.ar    1  UNL1        0.0551
      4 N         -29.7419    0.1102   28.8873 N.am    1  UNL1       -0.1754
      5 C         -27.8398    1.2287   30.6424 C.ar    1  UNL1        0.0009
      6 C         -30.6057   -0.3352   28.0357 C.ar    1  UNL1        0.0737
      7 C         -26.3441   -0.6294   30.3280 C.ar    1  UNL1        0.0046
      8 C         -25.4257   -0.0849   31.2829 C.ar    1  UNL1       -0.0002
      9 C         -26.8760    1.7816   31.6371 C.ar    1  UNL1       -0.0142
     10 C         -25.7247    1.1318   31.9232 C.ar    1  UNL1       -0.0036
     11 C         -31.6564   -0.5995   27.9550 C.ar    1  UNL1        0.0166
     12 C         -32.4687   -1.0590   26.8005 C.ar    1  UNL1        0.0013
     13 C         -31.7615   -1.0873   25.5659 C.ar    1  UNL1        0.0001
     14 C         -30.4153   -0.6779   25.5516 C.ar    1  UNL1        0.0013
     15 C         -29.7989   -0.2088   26.6238 C.ar    1  UNL1        0.0166
     16 C         -27.1599    3.1004   32.2803 C.3     1  UNL1        0.0664
     17 C         -27.0005    4.1589   31.5578 C.ar    1  UNL1       -0.0143
     18 C         -26.7804    4.3769   30.4111 C.ar    1  UNL1       -0.0036
     19 C         -26.5903    5.6536   29.7136 C.ar    1  UNL1       -0.0003
     20 C         -26.4464    6.7592   30.5188 C.ar    1  UNL1       -0.0000
     21 C         -26.5702    6.6627   31.8665 C.ar    1  UNL1       -0.0003
     22 C         -26.7921    5.4497   32.4831 C.ar    1  UNL1       -0.0036
     23 C         -27.7390    2.9376   33.6324 C.2     1  UNL1       -0.0177
     24 C         -28.4770    3.1569   34.3909 C.2     1  UNL1       -0.0039
     25 C         -28.4386    2.8787   35.7530 C.2     1  UNL1       -0.0003
     26 C         -27.4351    2.0398   36.1827 C.2     1  UNL1       -0.0000
@<TRIPOS>BOND
     1     1     2    2
     2     2     3    1
     3     2     4   am
     4     4     6    1
     5     9    16    1
     6    16    17    1
     7    16    23    1
     8    23    24    2
     9    24    25    1
    10    25    26    2
    11     6    11   ar
    12    11    12   ar
    13    12    13   ar
    14    13    14   ar
    15    14    15   ar
    16    15     6   ar
    17    17    18   ar
    18    18    19   ar
    19    19    20   ar
    20    20    21   ar
    21    21    22   ar
    22    22    17   ar
    23     3     5   ar
    24     5     9   ar
    25     9    10   ar
    26    10     8   ar
    27     8     7   ar
    28     7     3   ar
