@<TRIPOS>MOLECULE
No_3940-gen_results/8p0m/2024-11-26-14-13-15/
 25 27 0 0 0
SMALL
GASTEIGER

@<TRIPOS>ATOM
      1 C         -28.0162   -0.8135   28.8779 C.ar    1  UNL1        0.0066
      2 C         -27.0636   -0.1189   28.6079 C.ar    1  UNL1        0.0004
      3 C         -25.7923   -0.4302   29.0761 C.ar    1  UNL1        0.0044
      4 C         -24.5456    0.3494   28.8225 C.ar    1  UNL1        0.0540
      5 C         -23.2409    0.0217   29.3323 C.ar    1  UNL1        0.0045
      6 C         -27.8820   -1.8995   29.8633 C.ar    1  UNL1        0.0798
      7 C         -26.6706   -2.3272   30.3212 C.ar    1  UNL1        0.0066
      8 C         -25.5433   -1.5852   29.9316 C.ar    1  UNL1        0.0004
      9 C         -23.1550   -1.2815   29.8844 C.ar    1  UNL1        0.0001
     10 C         -24.2416   -1.9858   30.3143 C.ar    1  UNL1        0.0000
     11 C         -24.5909    1.5917   27.9973 C.2     1  UNL1        0.2550
     12 N         -24.9625    1.5009   26.8223 N.am    1  UNL1       -0.2211
     13 C         -24.2635    1.1923   25.8395 C.3     1  UNL1        0.1234
     14 C         -26.2598    2.0389   26.4203 C.2     1  UNL1        0.2550
     15 C         -27.1775    1.5203   26.1694 C.ar    1  UNL1        0.0540
     16 C         -27.3578    0.5368   25.3686 C.ar    1  UNL1        0.0045
     17 C         -28.5742   -0.1500   25.0569 C.ar    1  UNL1        0.0001
     18 C         -29.7283    0.3853   25.5396 C.ar    1  UNL1        0.0000
     19 C         -29.7563    1.5102   26.2965 C.ar    1  UNL1        0.0001
     20 C         -28.5387    2.1337   26.6527 C.ar    1  UNL1        0.0045
     21 O         -24.7327    2.6505   28.7866 O.2     1  UNL1       -0.2695
     22 O         -25.9618    3.3899   26.0465 O.2     1  UNL1       -0.2695
     23 C         -29.1417   -2.6813   30.2245 C.2     1  UNL1        0.3878
     24 O         -29.0695   -3.9040   30.2006 O.co2   1  UNL1       -0.2406
     25 O         -30.1735   -2.1185   30.5536 O.co2   1  UNL1       -0.2406
@<TRIPOS>BOND
     1     4    11    1
     2    11    12   am
     3    12    13    1
     4    12    14   am
     5    14    15    1
     6    11    21    2
     7    14    22    2
     8     6    23    1
     9    23    24   ar
    10    23    25   ar
    11    15    16   ar
    12    16    17   ar
    13    17    18   ar
    14    18    19   ar
    15    19    20   ar
    16    20    15   ar
    17     1     2   ar
    18     2     3   ar
    19     8     7   ar
    20     7     6   ar
    21     6     1   ar
    22     3     4   ar
    23     4     5   ar
    24     5     9   ar
    25     9    10   ar
    26    10     8   ar
    27     8     3   ar
