@<TRIPOS>MOLECULE
No_3941-gen_results/8p0m/2024-11-26-14-13-15/
 16 17 0 0 0
SMALL
GASTEIGER

@<TRIPOS>ATOM
      1 C         -28.0162   -0.8135   28.8779 C.ar    1  UNL1        0.0554
      2 C         -28.4690   -0.7850   29.8287 C.ar    1  UNL1        0.0046
      3 C         -28.1816    0.4277   28.1134 C.2     1  UNL1        0.2690
      4 O         -29.1844    0.4167   27.2947 O.2     1  UNL1       -0.2680
      5 N         -27.1460    1.3475   27.9100 N.am    1  UNL1       -0.1758
      6 C         -25.9892    1.3553   28.7038 C.ar    1  UNL1        0.0697
      7 C         -24.9691    2.2172   28.1780 C.ar    1  UNL1       -0.0065
      8 C         -23.7708    2.3072   28.8656 C.ar    1  UNL1       -0.0030
      9 C         -23.5280    1.4574   29.9768 C.ar    1  UNL1       -0.0002
     10 C         -24.5146    0.6441   30.4518 C.ar    1  UNL1        0.0013
     11 C         -25.7078    0.5583   29.7681 C.ar    1  UNL1        0.0163
     12 C         -28.3070   -1.9503   30.8474 C.ar    1  UNL1        0.0001
     13 C         -27.5426   -3.0401   30.3561 C.ar    1  UNL1        0.0000
     14 C         -26.6218   -2.8297   29.3668 C.ar    1  UNL1        0.0001
     15 C         -26.8265   -1.6404   28.5907 C.ar    1  UNL1        0.0046
     16 C         -25.1398    3.0737   27.0181 C.3     1  UNL1        0.0324
@<TRIPOS>BOND
     1     1     3    1
     2     3     4    2
     3     3     5   am
     4     5     6    1
     5     7    16    1
     6     6     7   ar
     7     7     8   ar
     8     8     9   ar
     9     9    10   ar
    10    10    11   ar
    11    11     6   ar
    12     1     2   ar
    13     2    12   ar
    14    12    13   ar
    15    13    14   ar
    16    14    15   ar
    17    15     1   ar
