@<TRIPOS>MOLECULE
No_3942-gen_results/8p0m/2024-11-26-14-13-15/
 30 30 0 0 0
SMALL
GASTEIGER

@<TRIPOS>ATOM
      1 C         -28.0162   -0.8135   28.8779 C.2     1  UNL1        0.2745
      2 C         -27.0636   -0.1190   28.6079 C.ar    1  UNL1        0.0902
      3 C         -27.0010    0.6913   27.4910 C.ar    1  UNL1        0.1429
      4 C         -25.8548    1.4825   27.0830 C.ar    1  UNL1        0.0418
      5 C         -24.6901    1.4526   27.8807 C.ar    1  UNL1        0.0850
      6 C         -24.7379    0.6010   29.0416 C.ar    1  UNL1        0.0619
      7 C         -25.8234   -0.1688   29.3887 C.ar    1  UNL1        0.0190
      8 N         -27.9613   -1.6072   30.0877 N.am    1  UNL1       -0.1337
      9 C         -23.5206    2.2106   27.5734 C.3     1  UNL1        0.4195
     10 F         -23.5797    2.8572   26.6718 F       1  UNL1       -0.1658
     11 F         -23.0327    2.9358   28.6072 F       1  UNL1       -0.1658
     12 F         -22.4011    1.3412   27.4106 F       1  UNL1       -0.1658
     13 O         -29.1887   -0.5962   28.5039 O.2     1  UNL1       -0.2678
     14 C         -29.0649   -2.4662   30.5825 C.2     1  UNL1        0.3435
     15 C         -29.4283   -2.0871   31.7992 C.3     1  UNL1        0.4716
     16 F         -28.5249   -1.7097   32.5012 F       1  UNL1       -0.1620
     17 F         -30.3391   -1.0689   31.7032 F       1  UNL1       -0.1620
     18 F         -30.1401   -3.1540   32.3583 F       1  UNL1       -0.1620
     19 O         -29.1437   -3.5280   29.9483 O.2     1  UNL1       -0.2637
     20 CL        -23.2722    0.4596   29.9811 Cl      1  UNL1       -0.0823
     21 O         -28.0508    0.7657   26.7214 O.3     1  UNL1       -0.4753
     22 C         -28.6308    1.9025   26.4841 C.3     1  UNL1        0.2058
     23 C         -29.0515    2.0174   25.2641 C.3     1  UNL1        0.0520
     24 C         -30.2393    1.3276   24.9690 C.3     1  UNL1        0.0299
     25 C         -30.5932    0.4202   25.5355 C.2     1  UNL1       -0.0260
     26 C         -31.7955   -0.4245   25.1655 C.2     1  UNL1       -0.0039
     27 C         -32.1321   -1.6247   25.8485 C.2     1  UNL1        0.0106
     28 C         -31.7193   -1.7120   27.0893 C.2     1  UNL1        0.0780
     29 C         -32.2693   -1.1045   27.9482 C.1     1  UNL1        0.1011
     30 N         -33.1342   -1.0937   28.7271 N.1     1  UNL1       -0.1908
@<TRIPOS>BOND
     1     1     2    1
     2     1     8   am
     3     5     9    1
     4     9    10    1
     5     9    11    1
     6     9    12    1
     7     1    13    2
     8     8    14   am
     9    14    15    1
    10    15    16    1
    11    15    17    1
    12    15    18    1
    13    14    19    2
    14     6    20    1
    15     3    21    1
    16    21    22    1
    17    22    23    1
    18    23    24    1
    19    24    25    1
    20    25    26    2
    21    26    27    1
    22    27    28    2
    23    28    29    1
    24    29    30    3
    25     2     3   ar
    26     3     4   ar
    27     4     5   ar
    28     5     6   ar
    29     6     7   ar
    30     7     2   ar
