@<TRIPOS>MOLECULE
No_3943-gen_results/8p0m/2024-11-26-14-13-15/
 13 14 0 0 0
SMALL
GASTEIGER

@<TRIPOS>ATOM
      1 C         -28.0162   -0.8135   28.8779 C.ar    1  UNL1        0.0207
      2 C         -27.0636   -0.1189   28.6079 C.ar    1  UNL1        0.0030
      3 C         -26.8756    1.1325   28.9134 C.ar    1  UNL1        0.0194
      4 C         -25.6883    1.9515   28.5672 C.ar    1  UNL1        0.0081
      5 C         -24.6394    1.2834   27.8753 C.ar    1  UNL1        0.0798
      6 C         -24.8068   -0.0513   27.6040 C.ar    1  UNL1        0.0066
      7 C         -25.9019   -0.7670   27.9511 C.ar    1  UNL1        0.0003
      8 C         -29.2125   -0.1153   29.1222 C.ar    1  UNL1        0.0989
      9 N         -29.1701    1.1479   29.4113 N.ar    1  UNL1       -0.2423
     10 C         -28.0397    1.8774   29.1897 C.ar    1  UNL1        0.0988
     11 C         -23.3578    1.8946   27.5868 C.2     1  UNL1        0.3878
     12 O         -23.2188    2.6673   26.7252 O.co2   1  UNL1       -0.2406
     13 O         -22.3152    1.6786   28.4429 O.co2   1  UNL1       -0.2406
@<TRIPOS>BOND
     1     5    11    1
     2    11    12   ar
     3    11    13   ar
     4     3     4   ar
     5     4     5   ar
     6     5     6   ar
     7     6     7   ar
     8     7     2   ar
     9     1     2   ar
    10     2     3   ar
    11     3    10   ar
    12    10     9   ar
    13     9     8   ar
    14     8     1   ar
