@<TRIPOS>MOLECULE
No_3945-gen_results/8p0m/2024-11-26-14-13-15/
 7 7 0 0 0
SMALL
GASTEIGER

@<TRIPOS>ATOM
      1 C         -28.0162   -0.8135   28.8779 C.ar    1  UNL1        0.0114
      2 C         -27.0636   -0.1190   28.6079 C.ar    1  UNL1        0.0577
      3 CL        -25.6156   -0.5162   28.8771 Cl      1  UNL1       -0.0822
      4 C         -29.2901   -0.2112   28.9176 C.ar    1  UNL1        0.0009
      5 C         -29.4805    1.0009   28.2943 C.ar    1  UNL1        0.0001
      6 C         -28.4100    1.7309   27.8464 C.ar    1  UNL1        0.0009
      7 C         -27.1226    1.1790   27.9941 C.ar    1  UNL1        0.0114
@<TRIPOS>BOND
     1     2     3    1
     2     1     2   ar
     3     2     7   ar
     4     7     6   ar
     5     6     5   ar
     6     5     4   ar
     7     4     1   ar
