@<TRIPOS>MOLECULE
No_3946-gen_results/8p0m/2024-11-26-14-13-15/
 24 25 0 0 0
SMALL
GASTEIGER

@<TRIPOS>ATOM
      1 C         -28.0162   -0.8135   28.8779 C.3     1  UNL1        0.2846
      2 C         -27.0636   -0.1189   28.6079 C.3     1  UNL1        0.2229
      3 F         -25.8837   -0.5253   28.7835 F       1  UNL1       -0.2319
      4 C         -27.1010    1.1562   27.8909 C.3     1  UNL1        0.1297
      5 C         -27.8551   -1.7809   29.9423 C.2     1  UNL1        0.3455
      6 N         -26.2177    1.4517   27.0140 N.pl3   1  UNL1       -0.3032
      7 O         -27.4511   -1.5511   30.9409 O.2     1  UNL1       -0.2560
      8 C         -25.1166    1.4336   27.0379 C.ar    1  UNL1        0.0477
      9 C         -24.1863    1.8549   25.9484 C.ar    1  UNL1        0.0145
     10 C         -22.8253    2.0577   26.2465 C.ar    1  UNL1        0.0010
     11 C         -22.2549    1.5648   27.4287 C.ar    1  UNL1       -0.0028
     12 C         -23.1152    1.0229   28.4163 C.ar    1  UNL1       -0.0049
     13 C         -24.3625    1.0030   28.2325 C.ar    1  UNL1        0.0116
     14 F         -29.1830   -0.7139   28.4743 F       1  UNL1       -0.2231
     15 F         -28.1331   -3.0668   29.7035 F       1  UNL1       -0.1605
     16 C         -26.9534    1.9438   25.7176 C.3     1  UNL1        0.1123
     17 C         -22.4257    0.5095   29.6417 C.3     1  UNL1        0.1003
     18 N         -23.2220    0.2178   30.7691 N.3     1  UNL1       -0.2539
     19 C         -23.3559   -0.9087   31.4360 C.3     1  UNL1        0.1666
     20 N         -24.2633   -0.9596   32.4565 N.3     1  UNL1       -0.1695
     21 C         -24.0774    1.2181   31.2408 C.3     1  UNL1        0.0780
     22 C         -25.1168   -0.0072   32.7590 C.3     1  UNL1        0.2375
     23 F         -25.9545   -0.1179   33.7026 F       1  UNL1       -0.2177
     24 C         -24.9397    1.2080   32.1102 C.3     1  UNL1        0.0712
@<TRIPOS>BOND
     1     1     2    1
     2     2     3    1
     3     2     4    1
     4     1     5    1
     5     4     6    1
     6     5     7    2
     7     6     8    1
     8     1    14    1
     9     5    15    1
    10     6    16    1
    11    12    17    1
    12    17    18    1
    13    18    19    1
    14    19    20    1
    15    18    21    1
    16    20    22    1
    17    22    23    1
    18    22    24    1
    19    24    21    1
    20     8     9   ar
    21     9    10   ar
    22    10    11   ar
    23    11    12   ar
    24    12    13   ar
    25    13     8   ar
