@<TRIPOS>MOLECULE
No_3947-gen_results/8p0m/2024-11-26-14-13-15/
 35 38 0 0 0
SMALL
GASTEIGER

@<TRIPOS>ATOM
      1 C         -28.0162   -0.8135   28.8779 C.ar    1  UNL1        0.0335
      2 C         -28.4690   -0.7850   29.8287 C.ar    1  UNL1        0.0739
      3 C         -28.1960    0.3478   28.0550 C.ar    1  UNL1        0.1403
      4 C         -29.0191    1.3501   28.3782 C.ar    1  UNL1        0.0361
      5 C         -28.3170   -1.9812   30.8560 C.3     1  UNL1        0.4187
      6 C         -29.5950    1.2859   29.6049 C.ar    1  UNL1        0.0782
      7 C         -29.3465    0.2093   30.3749 C.ar    1  UNL1        0.0104
      8 F         -27.6425   -1.7250   31.6976 F       1  UNL1       -0.1659
      9 F         -27.6518   -2.9962   30.1224 F       1  UNL1       -0.1659
     10 F         -29.4806   -2.4555   31.3011 F       1  UNL1       -0.1659
     11 F         -27.5439    0.3510   26.8010 F       1  UNL1       -0.2042
     12 C         -30.4997    2.3593   30.1026 C.2     1  UNL1        0.3458
     13 O         -30.1599    3.2721   30.7675 O.3     1  UNL1       -0.4194
     14 O         -31.7471    2.2121   29.6985 O.2     1  UNL1       -0.2445
     15 C         -30.4514    4.1995   31.2182 C.ar    1  UNL1        0.1677
     16 C         -29.9536    5.1730   31.7866 C.ar    1  UNL1        0.0378
     17 C         -28.4740    5.0938   32.0427 C.ar    1  UNL1        0.0032
     18 C         -27.8705    5.5708   33.0771 C.ar    1  UNL1        0.0001
     19 C         -26.4461    5.3345   33.3389 C.ar    1  UNL1        0.0002
     20 C         -25.6774    4.5858   32.3528 C.ar    1  UNL1        0.0065
     21 C         -26.3772    4.1162   31.2622 C.ar    1  UNL1        0.0760
     22 C         -27.7259    4.3294   31.1068 C.ar    1  UNL1        0.0066
     23 C         -25.6261    3.3244   30.2621 C.2     1  UNL1        0.3457
     24 O         -25.1444    2.3005   30.5374 O.2     1  UNL1       -0.2445
     25 O         -25.6111    3.8428   29.0494 O.3     1  UNL1       -0.4210
     26 C         -25.0898    3.0805   28.0197 C.ar    1  UNL1        0.1488
     27 C         -25.8786    2.4479   27.1411 C.ar    1  UNL1        0.0376
     28 C         -25.2431    1.6019   26.2056 C.ar    1  UNL1        0.0031
     29 C         -23.7956    1.4832   26.2497 C.ar    1  UNL1        0.0002
     30 C         -23.0559    2.1615   27.1832 C.ar    1  UNL1        0.0031
     31 C         -23.6989    2.9360   28.1170 C.ar    1  UNL1        0.0376
     32 C         -31.4986    4.9731   30.2499 C.ar    1  UNL1        0.1363
     33 N         -32.1844    5.7857   30.8158 N.ar    1  UNL1       -0.2391
     34 C         -31.6092    6.7806   31.6689 C.ar    1  UNL1        0.0991
     35 C         -30.4319    6.5096   32.1684 C.ar    1  UNL1        0.0237
@<TRIPOS>BOND
     1     2     5    1
     2     5     8    1
     3     5     9    1
     4     5    10    1
     5     3    11    1
     6     6    12    1
     7    12    13    1
     8    12    14    2
     9    13    15    1
    10    16    17    1
    11    21    23    1
    12    23    24    2
    13    23    25    1
    14    25    26    1
    15    17    18   ar
    16    18    19   ar
    17    19    20   ar
    18    20    21   ar
    19    21    22   ar
    20    22    17   ar
    21    15    16   ar
    22    16    35   ar
    23    35    34   ar
    24    34    33   ar
    25    33    32   ar
    26    32    15   ar
    27    26    27   ar
    28    27    28   ar
    29    28    29   ar
    30    29    30   ar
    31    30    31   ar
    32    31    26   ar
    33     1     2   ar
    34     2     7   ar
    35     7     6   ar
    36     6     4   ar
    37     4     3   ar
    38     3     1   ar
