@<TRIPOS>MOLECULE
No_3948-gen_results/8p0m/2024-11-26-14-13-15/
 35 35 0 0 0
SMALL
GASTEIGER

@<TRIPOS>ATOM
      1 C         -28.0162   -0.8135   28.8779 C.ar    1  UNL1        0.0172
      2 C         -28.4690   -0.7850   29.8287 C.ar    1  UNL1        0.0869
      3 C         -28.1960    0.3478   28.0550 C.ar    1  UNL1        0.0737
      4 C         -29.0191    1.3501   28.3782 C.ar    1  UNL1        0.2027
      5 C         -29.4107    0.1803   30.3782 C.ar    1  UNL1        0.0671
      6 C         -29.6059    1.2495   29.6193 C.ar    1  UNL1        0.0541
      7 BR        -27.2619    0.3835   26.3673 Br      1  UNL1       -0.0457
      8 CL        -30.1212   -0.0413   31.9658 Cl      1  UNL1       -0.0819
      9 O         -29.1710    2.3951   27.5733 O.3     1  UNL1       -0.2860
     10 C         -28.2800   -2.1015   30.8518 C.2     1  UNL1        0.3421
     11 O         -27.1776   -2.4632   30.9629 O.2     1  UNL1       -0.2449
     12 O         -29.2475   -2.6933   31.3450 O.3     1  UNL1       -0.4440
     13 C         -29.2449   -4.0760   31.2822 C.3     1  UNL1        0.2254
     14 C         -29.3346   -4.5961   29.9483 C.3     1  UNL1        0.1910
     15 O         -30.4702   -4.4619   29.3823 O.3     1  UNL1       -0.3198
     16 C         -31.0220   -5.5250   28.6269 C.3     1  UNL1        0.3414
     17 C         -32.2538   -5.2602   28.1263 C.3     1  UNL1        0.3629
     18 BR        -33.2028   -6.0231   28.2466 Br      1  UNL1       -0.0045
     19 F         -32.4878   -3.9434   28.5861 F       1  UNL1       -0.1866
     20 F         -31.9939   -4.9167   26.7394 F       1  UNL1       -0.1866
     21 O         -31.1440   -6.6080   29.5608 O.3     1  UNL1       -0.1827
     22 C         -30.3930   -4.5541   32.1955 C.3     1  UNL1        0.1594
     23 C         -30.1607   -5.7670   32.7906 C.3     1  UNL1        0.0509
     24 C         -31.3450   -6.5456   32.9056 C.3     1  UNL1        0.0975
     25 CL        -31.7547   -7.3400   34.1315 Cl      1  UNL1       -0.1136
     26 O         -30.4681   -3.5162   33.2814 O.3     1  UNL1       -0.3449
     27 C         -31.7230   -3.1210   33.7503 C.3     1  UNL1        0.2014
     28 C         -31.6012   -2.1103   34.5956 C.3     1  UNL1        0.3404
     29 F         -30.3773   -1.7752   34.7825 F       1  UNL1       -0.1979
     30 O         -32.0651   -2.5088   35.8749 O.3     1  UNL1       -0.1811
     31 C         -32.8576   -3.4046   33.0428 C.2     1  UNL1        0.0084
     32 C         -33.9898   -3.3801   33.7153 C.2     1  UNL1       -0.0023
     33 C         -35.1925   -3.6677   33.0002 C.2     1  UNL1       -0.0048
     34 C         -35.0060   -4.0959   31.7062 C.2     1  UNL1       -0.0258
     35 C         -33.7844   -4.0868   31.0579 C.3     1  UNL1        0.0307
@<TRIPOS>BOND
     1     3     7    1
     2     5     8    1
     3     4     9    1
     4     2    10    1
     5    10    11    2
     6    10    12    1
     7    12    13    1
     8    13    14    1
     9    14    15    1
    10    15    16    1
    11    16    17    1
    12    17    18    1
    13    17    19    1
    14    17    20    1
    15    16    21    1
    16    13    22    1
    17    22    23    1
    18    23    24    1
    19    24    25    1
    20    22    26    1
    21    26    27    1
    22    27    28    1
    23    28    29    1
    24    28    30    1
    25    27    31    1
    26    31    32    2
    27    32    33    1
    28    33    34    2
    29    34    35    1
    30     1     2   ar
    31     2     5   ar
    32     5     6   ar
    33     6     4   ar
    34     4     3   ar
    35     3     1   ar
