@<TRIPOS>MOLECULE
No_3949-gen_results/8p0m/2024-11-26-14-13-15/
 26 28 0 0 0
SMALL
GASTEIGER

@<TRIPOS>ATOM
      1 C         -28.0162   -0.8135   28.8779 C.ar    1  UNL1        0.0046
      2 C         -28.4690   -0.7850   29.8287 C.ar    1  UNL1        0.0554
      3 C         -26.5455   -0.8762   28.8500 C.ar    1  UNL1        0.0002
      4 C         -25.8041   -1.0324   30.0571 C.ar    1  UNL1        0.0030
      5 C         -27.9437   -0.9869   31.2075 C.ar    1  UNL1        0.0046
      6 C         -24.4008   -1.0969   30.0965 C.ar    1  UNL1        0.0412
      7 C         -26.5612   -1.0746   31.2270 C.ar    1  UNL1        0.0002
      8 C         -23.7342    0.1405   29.9379 C.ar    1  UNL1        0.0841
      9 C         -22.4073    0.1808   29.4004 C.ar    1  UNL1        0.0274
     10 C         -21.7778   -1.0662   29.1520 C.ar    1  UNL1        0.1006
     11 N         -22.5489   -2.1421   29.0806 N.ar    1  UNL1       -0.2259
     12 C         -23.7927   -2.2744   29.5423 C.ar    1  UNL1        0.1698
     13 N         -24.3532   -3.4227   29.5135 N.pl3   1  UNL1       -0.1072
     14 C         -30.0879   -0.6967   29.9144 C.2     1  UNL1        0.2690
     15 O         -30.5141   -0.1953   28.9775 O.2     1  UNL1       -0.2680
     16 N         -30.7898   -1.1385   30.9675 N.am    1  UNL1       -0.1754
     17 C         -32.2223   -1.0400   30.9598 C.ar    1  UNL1        0.0738
     18 C         -32.9043   -0.3058   30.5781 C.ar    1  UNL1        0.0189
     19 C         -34.3304   -0.3062   30.5919 C.ar    1  UNL1        0.0310
     20 C         -32.7391   -2.2328   31.6863 C.ar    1  UNL1        0.0189
     21 C         -34.1325   -2.3106   31.7786 C.ar    1  UNL1        0.0310
     22 C         -34.8979   -1.3456   31.2825 C.ar    1  UNL1        0.1402
     23 F         -36.2091   -1.4327   31.4013 F       1  UNL1       -0.2042
     24 C         -24.3244    1.4277   30.4759 C.2     1  UNL1        0.3879
     25 O         -24.6826    2.3350   29.6633 O.co2   1  UNL1       -0.2406
     26 O         -24.1153    1.7494   31.7703 O.co2   1  UNL1       -0.2406
@<TRIPOS>BOND
     1     4     6    1
     2    12    13    1
     3     2    14    1
     4    14    15    2
     5    14    16   am
     6    16    17    1
     7    22    23    1
     8     8    24    1
     9    24    25   ar
    10    24    26   ar
    11    17    18   ar
    12    18    19   ar
    13    19    22   ar
    14    22    21   ar
    15    21    20   ar
    16    20    17   ar
    17     6     8   ar
    18     8     9   ar
    19     9    10   ar
    20    10    11   ar
    21    11    12   ar
    22    12     6   ar
    23     1     2   ar
    24     2     5   ar
    25     5     7   ar
    26     7     4   ar
    27     4     3   ar
    28     3     1   ar
