@<TRIPOS>MOLECULE
No_395-gen_results/8p0m/2024-11-26-14-13-15/
 17 18 0 0 0
SMALL
GASTEIGER

@<TRIPOS>ATOM
      1 C         -28.0162   -0.8135   28.8779 C.ar    1  UNL1       -0.0043
      2 C         -28.4690   -0.7850   29.8287 C.ar    1  UNL1       -0.0003
      3 C         -28.1960    0.3478   28.0550 C.ar    1  UNL1       -0.0222
      4 C         -27.4421    0.5100   26.7946 C.3     1  UNL1        0.0267
      5 C         -27.8427    1.3330   25.8056 C.3     1  UNL1        0.0044
      6 C         -29.4956    0.1092   30.3452 C.ar    1  UNL1       -0.0000
      7 C         -29.7284    1.1870   29.5687 C.ar    1  UNL1       -0.0003
      8 C         -29.0420    1.3665   28.3718 C.ar    1  UNL1       -0.0043
      9 C         -26.1281   -0.0671   26.6257 C.3     1  UNL1        0.0307
     10 C         -25.2466   -0.2457   27.7552 C.ar    1  UNL1       -0.0219
     11 C         -24.7043    0.7314   28.5496 C.ar    1  UNL1       -0.0043
     12 C         -23.8279    0.4370   29.5724 C.ar    1  UNL1       -0.0003
     13 C         -23.5391   -0.9248   29.8836 C.ar    1  UNL1       -0.0000
     14 C         -24.8135   -1.5223   28.3438 C.ar    1  UNL1       -0.0043
     15 C         -24.0576   -1.8865   29.2182 C.ar    1  UNL1       -0.0003
     16 C         -27.7999    2.6375   25.9574 C.3     1  UNL1        0.0003
     17 C         -28.4129    0.7234   24.6615 C.3     1  UNL1        0.0003
@<TRIPOS>BOND
     1     3     4    1
     2     4     5    1
     3     4     9    1
     4     9    10    1
     5     5    16    1
     6     5    17    1
     7    10    11   ar
     8    11    12   ar
     9    12    13   ar
    10    13    15   ar
    11    15    14   ar
    12    14    10   ar
    13     1     2   ar
    14     2     6   ar
    15     6     7   ar
    16     7     8   ar
    17     8     3   ar
    18     3     1   ar
