@<TRIPOS>MOLECULE
No_3950-gen_results/8p0m/2024-11-26-14-13-15/
 25 27 0 0 0
SMALL
GASTEIGER

@<TRIPOS>ATOM
      1 C         -28.0162   -0.8135   28.8779 C.ar    1  UNL1        0.0810
      2 C         -27.0636   -0.1189   28.6079 C.ar    1  UNL1        0.0066
      3 C         -27.0010    0.6913   27.4910 C.ar    1  UNL1        0.0011
      4 C         -28.1373    0.7363   26.6350 C.ar    1  UNL1        0.0145
      5 C         -29.2360    0.0765   27.0690 C.ar    1  UNL1        0.0481
      6 C         -29.2177   -0.6429   28.1747 C.ar    1  UNL1        0.0211
      7 N         -30.3516    0.1564   26.2430 N.pl3   1  UNL1       -0.3075
      8 C         -30.2688    0.1234   24.9366 C.3     1  UNL1        0.0908
      9 C         -31.2887   -0.1530   24.2272 C.3     1  UNL1        0.0215
     10 C         -31.5996    0.0064   26.7764 C.3     1  UNL1        0.0908
     11 C         -32.7380   -0.2195   26.0165 C.3     1  UNL1        0.0215
     12 C         -32.5884   -0.2531   24.6999 C.3     1  UNL1        0.0035
     13 C         -25.7249    1.4068   27.0714 C.ar    1  UNL1       -0.0036
     14 C         -25.1662    2.2568   28.0761 C.ar    1  UNL1       -0.0178
     15 C         -23.8785    2.7318   27.7626 C.ar    1  UNL1       -0.0039
     16 C         -23.1949    2.3274   26.5956 C.ar    1  UNL1       -0.0003
     17 C         -23.8086    1.4861   25.7196 C.ar    1  UNL1       -0.0000
     18 C         -25.0455    0.9886   25.9621 C.ar    1  UNL1       -0.0003
     19 C         -28.0646   -1.6043   30.1571 C.2     1  UNL1        0.3878
     20 O         -27.4085   -2.6943   30.0904 O.co2   1  UNL1       -0.2406
     21 O         -28.7036   -1.3066   31.1468 O.co2   1  UNL1       -0.2406
     22 C         -25.7771    2.7136   29.3070 C.3     1  UNL1        0.0520
     23 C         -26.4604    3.9240   29.3397 C.2     1  UNL1       -0.0260
     24 C         -27.2859    4.1774   30.4265 C.2     1  UNL1       -0.0300
     25 C         -28.0797    5.3288   30.4636 C.3     1  UNL1        0.0304
@<TRIPOS>BOND
     1     5     7    1
     2     7     8    1
     3     7    10    1
     4     9    12    1
     5    11    12    1
     6     3    13    1
     7     1    19    1
     8    19    20   ar
     9    19    21   ar
    10    14    22    1
    11    22    23    1
    12    23    24    2
    13    24    25    1
    14     8     9    1
    15    11    10    1
    16     1     2   ar
    17     2     3   ar
    18     3     4   ar
    19     4     5   ar
    20     5     6   ar
    21     6     1   ar
    22    13    14   ar
    23    14    15   ar
    24    15    16   ar
    25    16    17   ar
    26    17    18   ar
    27    18    13   ar
