@<TRIPOS>MOLECULE
No_3951-gen_results/8p0m/2024-11-26-14-13-15/
 22 23 0 0 0
SMALL
GASTEIGER

@<TRIPOS>ATOM
      1 C         -28.0162   -0.8135   28.8779 C.ar    1  UNL1       -0.0007
      2 C         -27.0636   -0.1189   28.6079 C.ar    1  UNL1       -0.0179
      3 C         -27.0010    0.6913   27.4910 C.ar    1  UNL1       -0.0007
      4 C         -28.1373    0.7363   26.6350 C.ar    1  UNL1        0.0417
      5 C         -29.2360    0.0765   27.0690 C.ar    1  UNL1        0.1957
      6 C         -29.2177   -0.6429   28.1747 C.ar    1  UNL1        0.0417
      7 O         -30.3423    0.1617   26.2790 O.3     1  UNL1       -0.2866
      8 C         -25.7291   -0.2038   29.3995 C.3     1  UNL1        0.0480
      9 C         -25.2367    1.0088   30.0520 C.2     1  UNL1       -0.0441
     10 C         -25.5019    1.2962   31.0060 C.2     1  UNL1       -0.0342
     11 C         -25.0141    2.6029   31.6842 C.3     1  UNL1        0.0268
     12 C         -24.4825    1.9395   29.1296 C.3     1  UNL1        0.0220
     13 C         -23.8582    1.5089   27.9105 C.3     1  UNL1        0.0040
     14 C         -25.8043    3.5830   31.7927 C.3     1  UNL1        0.0204
     15 C         -25.2966    4.9062   32.2360 C.3     1  UNL1        0.0724
     16 N         -25.9785    6.0731   32.1479 N.3     1  UNL1       -0.2715
     17 C         -26.5815    6.4800   31.1834 C.3     1  UNL1        0.0721
     18 C         -27.1695    5.3570   30.4174 C.3     1  UNL1        0.0174
     19 C         -26.5104    4.0753   30.4854 C.3     1  UNL1        0.0031
     20 C         -22.6210    0.8398   28.1453 C.3     1  UNL1        0.0003
     21 C         -24.2098    1.8783   26.6744 C.3     1  UNL1        0.0003
     22 C         -25.3139    7.2852   33.0120 C.3     1  UNL1        0.0896
@<TRIPOS>BOND
     1     5     7    1
     2     2     8    1
     3     8     9    1
     4     9    10    2
     5    10    11    1
     6     9    12    1
     7    12    13    1
     8    14    15    1
     9    15    16    1
    10    16    17    1
    11    17    18    1
    12    14    19    1
    13    13    20    1
    14    13    21    1
    15    16    22    1
    16    11    14    1
    17    19    18    1
    18     1     2   ar
    19     2     3   ar
    20     3     4   ar
    21     4     5   ar
    22     5     6   ar
    23     6     1   ar
