@<TRIPOS>MOLECULE
No_3953-gen_results/8p0m/2024-11-26-14-13-15/
 11 11 0 0 0
SMALL
GASTEIGER

@<TRIPOS>ATOM
      1 C         -28.0162   -0.8135   28.8779 C.ar    1  UNL1       -0.0003
      2 C         -28.4690   -0.7850   29.8287 C.ar    1  UNL1       -0.0000
      3 C         -27.1356    0.2359   28.5352 C.ar    1  UNL1       -0.0026
      4 C         -26.8745    1.2825   29.3982 C.ar    1  UNL1       -0.0008
      5 C         -28.3613    0.1987   30.9244 C.ar    1  UNL1       -0.0003
      6 C         -25.9723    2.3852   29.1040 C.3     1  UNL1        0.1357
      7 C         -27.5118    1.2316   30.6323 C.ar    1  UNL1       -0.0026
      8 N         -25.6300    3.1696   29.8437 N.3     1  UNL1       -0.1233
      9 C         -25.4980    2.5268   27.7181 C.2     1  UNL1       -0.0077
     10 C         -24.7406    2.1458   27.1244 C.2     1  UNL1       -0.0286
     11 C         -24.3762    2.4912   25.7263 C.3     1  UNL1        0.0304
@<TRIPOS>BOND
     1     4     6    1
     2     6     8    1
     3     6     9    1
     4     9    10    2
     5    10    11    1
     6     1     2   ar
     7     2     5   ar
     8     5     7   ar
     9     7     4   ar
    10     4     3   ar
    11     3     1   ar
