@<TRIPOS>MOLECULE
No_3954-gen_results/8p0m/2024-11-26-14-13-15/
 19 21 0 0 0
SMALL
GASTEIGER

@<TRIPOS>ATOM
      1 C         -28.0162   -0.8135   28.8779 C.ar    1  UNL1        0.0392
      2 C         -27.0636   -0.1189   28.6079 C.ar    1  UNL1        0.0327
      3 C         -25.7647   -0.3897   29.0360 C.ar    1  UNL1        0.1403
      4 C         -25.5296   -1.5302   29.9014 C.ar    1  UNL1        0.0327
      5 C         -26.6577   -2.2915   30.2035 C.ar    1  UNL1        0.0392
      6 C         -27.8548   -1.9555   29.7630 C.ar    1  UNL1        0.1392
      7 F         -24.6951    0.3523   28.7823 F       1  UNL1       -0.2042
      8 O         -28.9267   -2.7553   30.1201 O.3     1  UNL1       -0.4706
      9 C         -30.0112   -2.2007   30.6669 C.3     1  UNL1        0.2320
     10 C         -31.0834   -2.7711   30.2684 C.ar    1  UNL1        0.0212
     11 C         -31.0850   -4.0386   29.7867 C.ar    1  UNL1       -0.0007
     12 C         -32.0221   -4.4656   28.8457 C.ar    1  UNL1       -0.0002
     13 C         -32.3757   -2.1502   30.1621 C.ar    1  UNL1       -0.0007
     14 C         -33.4318   -2.6396   29.4370 C.ar    1  UNL1       -0.0002
     15 C         -33.2526   -3.8837   28.7798 C.ar    1  UNL1       -0.0000
     16 C         -34.3342   -4.5011   28.0199 C.ar    1  UNL1       -0.0000
     17 C         -34.2500   -5.3362   27.2809 C.ar    1  UNL1       -0.0000
     18 C         -32.8530   -5.9453   27.0714 C.ar    1  UNL1       -0.0000
     19 C         -31.8292   -5.6687   28.0001 C.ar    1  UNL1       -0.0000
@<TRIPOS>BOND
     1     3     7    1
     2     6     8    1
     3     8     9    1
     4     9    10    1
     5     1     2   ar
     6     2     3   ar
     7     3     4   ar
     8     4     5   ar
     9     5     6   ar
    10     6     1   ar
    11    10    11   ar
    12    11    12   ar
    13    15    14   ar
    14    14    13   ar
    15    13    10   ar
    16    12    15   ar
    17    15    16   ar
    18    16    17   ar
    19    17    18   ar
    20    18    19   ar
    21    19    12   ar
