@<TRIPOS>MOLECULE
No_3956-gen_results/8p0m/2024-11-26-14-13-15/
 15 15 0 0 0
SMALL
GASTEIGER

@<TRIPOS>ATOM
      1 C         -28.0162   -0.8135   28.8779 C.ar    1  UNL1        0.1744
      2 C         -27.0636   -0.1189   28.6079 C.ar    1  UNL1        0.1726
      3 C         -27.0010    0.6913   27.4910 C.ar    1  UNL1        0.0437
      4 C         -28.1420    0.8282   26.7994 C.ar    1  UNL1        0.0746
      5 C         -29.2898   -0.4871   28.3661 C.ar    1  UNL1        0.0327
      6 C         -28.1796    1.6545   25.6431 C.3     1  UNL1        0.4187
      7 C         -29.2994    0.2379   27.2252 C.ar    1  UNL1        0.0064
      8 F         -27.9959   -1.5720   30.0506 F       1  UNL1       -0.2009
      9 F         -27.1702    1.8671   24.9298 F       1  UNL1       -0.1659
     10 F         -28.5655    2.9702   25.9746 F       1  UNL1       -0.1659
     11 F         -29.2005    1.2455   24.7525 F       1  UNL1       -0.1659
     12 O         -25.7509   -0.2966   29.2499 O.3     1  UNL1       -0.4485
     13 C         -25.1832    0.5607   30.0435 C.2     1  UNL1        0.1751
     14 C         -25.1852    0.7061   31.1252 C.2     1  UNL1        0.0148
     15 C         -24.5923    1.8152   31.9533 C.3     1  UNL1        0.0341
@<TRIPOS>BOND
     1     4     6    1
     2     1     8    1
     3     6     9    1
     4     6    10    1
     5     6    11    1
     6     2    12    1
     7    12    13    1
     8    13    14    2
     9    14    15    1
    10     1     2   ar
    11     2     3   ar
    12     3     4   ar
    13     4     7   ar
    14     7     5   ar
    15     5     1   ar
