@<TRIPOS>MOLECULE
No_3957-gen_results/8p0m/2024-11-26-14-13-15/
 11 12 0 0 0
SMALL
GASTEIGER

@<TRIPOS>ATOM
      1 C         -28.0162   -0.8135   28.8779 C.ar    1  UNL1        0.0296
      2 C         -28.4690   -0.7850   29.8287 C.ar    1  UNL1        0.0023
      3 C         -27.1356    0.2359   28.5352 C.ar    1  UNL1        0.1401
      4 C         -26.8745    1.2825   29.3982 C.ar    1  UNL1        0.0296
      5 C         -28.3613    0.1987   30.9244 C.ar    1  UNL1        0.0001
      6 C         -27.5277    1.2234   30.6356 C.ar    1  UNL1        0.0022
      7 F         -26.4877    0.2566   27.3533 F       1  UNL1       -0.2042
      8 C         -29.0652    0.1000   32.2285 C.ar    1  UNL1        0.0000
      9 C         -28.5203    0.6621   33.2022 C.ar    1  UNL1        0.0000
     10 C         -27.6034    1.8560   32.9813 C.ar    1  UNL1        0.0000
     11 C         -26.9841    2.0175   31.7591 C.ar    1  UNL1        0.0001
@<TRIPOS>BOND
     1     3     7    1
     2     6    11   ar
     3    11    10   ar
     4    10     9   ar
     5     9     8   ar
     6     8     5   ar
     7     1     2   ar
     8     2     5   ar
     9     5     6   ar
    10     6     4   ar
    11     4     3   ar
    12     3     1   ar
