@<TRIPOS>MOLECULE
No_3959-gen_results/8p0m/2024-11-26-14-13-15/
 19 19 0 0 0
SMALL
GASTEIGER

@<TRIPOS>ATOM
      1 C         -28.0162   -0.8135   28.8779 C.ar    1  UNL1        0.0119
      2 C         -28.4690   -0.7850   29.8287 C.ar    1  UNL1        0.0122
      3 C         -28.1960    0.3478   28.0550 C.ar    1  UNL1        0.0537
      4 C         -29.0191    1.3501   28.3782 C.ar    1  UNL1       -0.0114
      5 C         -29.4107    0.1803   30.3782 C.ar    1  UNL1        0.0574
      6 C         -29.6059    1.2495   29.6193 C.ar    1  UNL1        0.0079
      7 CL        -27.3467    0.3759   26.5145 Cl      1  UNL1       -0.0826
      8 CL        -30.2389    0.0168   31.9197 Cl      1  UNL1       -0.0823
      9 C         -29.2003    2.4866   27.4973 C.3     1  UNL1        0.0201
     10 C         -29.9429    2.4425   26.3112 C.3     1  UNL1        0.0044
     11 C         -29.5707    3.7223   28.2778 C.3     1  UNL1        0.0044
     12 C         -27.7275    3.0597   27.0080 C.3     1  UNL1        0.0087
     13 C         -26.7466    3.2633   28.0009 C.3     1  UNL1        0.0264
     14 C         -25.3461    3.3261   27.6357 C.2     1  UNL1       -0.0261
     15 C         -24.4148    2.4913   28.2730 C.2     1  UNL1       -0.0046
     16 C         -23.1543    2.3040   27.6084 C.2     1  UNL1       -0.0003
     17 C         -22.1501    1.5044   28.2709 C.2     1  UNL1       -0.0000
     18 C         -22.4887    0.7904   29.4093 C.2     1  UNL1       -0.0000
     19 C         -23.7405    0.9086   30.0234 C.2     1  UNL1       -0.0000
@<TRIPOS>BOND
     1     3     7    1
     2     5     8    1
     3     4     9    1
     4     9    10    1
     5     9    11    1
     6     9    12    1
     7    12    13    1
     8    13    14    1
     9    14    15    2
    10    15    16    1
    11    16    17    2
    12    17    18    1
    13    18    19    2
    14     1     2   ar
    15     2     5   ar
    16     5     6   ar
    17     6     4   ar
    18     4     3   ar
    19     3     1   ar
