@<TRIPOS>MOLECULE
No_396-gen_results/8p0m/2024-11-26-14-13-15/
 21 22 0 0 0
SMALL
GASTEIGER

@<TRIPOS>ATOM
      1 C         -28.0162   -0.8135   28.8779 C.3     1  UNL1        0.0310
      2 C         -27.0636   -0.1189   28.6079 C.ar    1  UNL1       -0.0218
      3 C         -27.0010    0.6913   27.4910 C.ar    1  UNL1       -0.0041
      4 C         -25.8548    1.4825   27.0830 C.ar    1  UNL1        0.0043
      5 C         -24.6901    1.4526   27.8807 C.ar    1  UNL1        0.0566
      6 C         -24.7379    0.6010   29.0416 C.ar    1  UNL1        0.0043
      7 C         -25.8234   -0.1688   29.3887 C.ar    1  UNL1       -0.0041
      8 C         -28.7125   -0.4634   30.1695 C.3     1  UNL1        0.0310
      9 C         -28.7790    0.6069   30.5305 C.ar    1  UNL1       -0.0217
     10 C         -29.5397    0.9594   31.8268 C.ar    1  UNL1       -0.0043
     11 C         -29.6193    2.2760   32.3511 C.ar    1  UNL1       -0.0002
     12 C         -28.9501    3.2764   31.5686 C.ar    1  UNL1        0.0045
     13 C         -28.2153    2.9862   30.4383 C.ar    1  UNL1        0.0547
     14 C         -28.1027    1.7267   29.9961 C.ar    1  UNL1        0.0003
     15 C         -23.4449    2.1016   27.5147 C.2     1  UNL1        0.2842
     16 N         -22.2900    1.6372   27.9829 N.am    1  UNL1       -0.0837
     17 O         -23.5076    3.0926   26.7179 O.2     1  UNL1       -0.2667
     18 C         -27.4824    4.1560   29.8041 C.2     1  UNL1        0.2648
     19 N         -26.5632    4.6941   30.2782 N.am    1  UNL1       -0.1998
     20 O         -27.8981    4.4564   28.6045 O.2     1  UNL1       -0.2684
     21 C         -25.7699    5.7764   29.6469 C.3     1  UNL1        0.1388
@<TRIPOS>BOND
     1     1     2    1
     2     1     8    1
     3     5    15    1
     4    15    16   am
     5    15    17    2
     6    13    18    1
     7    18    19   am
     8    18    20    2
     9    19    21    1
    10     8     9    1
    11     2     3   ar
    12     3     4   ar
    13     4     5   ar
    14     5     6   ar
    15     6     7   ar
    16     7     2   ar
    17     9    10   ar
    18    10    11   ar
    19    11    12   ar
    20    12    13   ar
    21    13    14   ar
    22    14     9   ar
