@<TRIPOS>MOLECULE
No_3960-gen_results/8p0m/2024-11-26-14-13-15/
 26 28 0 0 0
SMALL
GASTEIGER

@<TRIPOS>ATOM
      1 C         -28.0162   -0.8135   28.8779 C.ar    1  UNL1        0.0064
      2 C         -27.0636   -0.1190   28.6079 C.ar    1  UNL1        0.0002
      3 C         -25.7647   -0.3897   29.0360 C.ar    1  UNL1        0.0001
      4 C         -24.5516    0.4058   28.7646 C.ar    1  UNL1        0.0022
      5 C         -24.6957    1.4480   27.7988 C.ar    1  UNL1        0.0296
      6 C         -23.5821    2.2165   27.4626 C.ar    1  UNL1        0.1401
      7 C         -22.3295    1.8427   27.9661 C.ar    1  UNL1        0.0296
      8 C         -22.1809    0.8284   28.8814 C.ar    1  UNL1        0.0023
      9 C         -23.3190    0.0774   29.2471 C.ar    1  UNL1        0.0001
     10 C         -27.8976   -1.8938   29.8574 C.ar    1  UNL1        0.0757
     11 C         -26.6550   -2.3404   30.2745 C.ar    1  UNL1        0.0064
     12 C         -25.5323   -1.5588   29.9128 C.ar    1  UNL1        0.0002
     13 C         -29.0612   -2.7220   30.2437 C.2     1  UNL1        0.3427
     14 O         -28.9730   -3.9294   30.2753 O.2     1  UNL1       -0.2448
     15 O         -30.1309   -2.1619   30.6014 O.3     1  UNL1       -0.4223
     16 F         -23.6793    3.1674   26.5620 F       1  UNL1       -0.2042
     17 C         -31.3041   -2.8472   30.8379 C.3     1  UNL1        0.3245
     18 C         -32.1275   -3.0687   29.7252 C.3     1  UNL1        0.3842
     19 CL        -33.3772   -3.2753   29.6775 Cl      1  UNL1       -0.0416
     20 F         -31.7367   -1.9663   28.8633 F       1  UNL1       -0.1807
     21 F         -31.4133   -4.1247   29.0170 F       1  UNL1       -0.1807
     22 N         -31.0690   -3.8925   31.7786 N.pl3   1  UNL1       -0.2689
     23 C         -31.3857   -3.9061   33.0075 C.2     1  UNL1        0.0594
     24 C         -31.0152   -5.0923   33.7668 C.2     1  UNL1       -0.0085
     25 C         -30.3835   -5.9899   32.8211 C.3     1  UNL1        0.0489
     26 C         -30.3987   -5.1340   31.4555 C.3     1  UNL1        0.0989
@<TRIPOS>BOND
     1     3     4    1
     2    10    13    1
     3    13    14    2
     4    13    15    1
     5     6    16    1
     6    15    17    1
     7    17    18    1
     8    18    19    1
     9    18    20    1
    10    18    21    1
    11    17    22    1
    12    22    23    1
    13    23    24    2
    14    24    25    1
    15    22    26    1
    16    25    26    1
    17     1     2   ar
    18     2     3   ar
    19     3    12   ar
    20    12    11   ar
    21    11    10   ar
    22    10     1   ar
    23     4     5   ar
    24     5     6   ar
    25     6     7   ar
    26     7     8   ar
    27     8     9   ar
    28     9     4   ar
