@<TRIPOS>MOLECULE
No_3962-gen_results/8p0m/2024-11-26-14-13-15/
 14 15 0 0 0
SMALL
GASTEIGER

@<TRIPOS>ATOM
      1 C         -28.0162   -0.8135   28.8779 C.3     1  UNL1        0.1529
      2 C         -27.0636   -0.1190   28.6079 C.ar    1  UNL1        0.0021
      3 C         -25.7647   -0.3897   29.0360 C.ar    1  UNL1       -0.0023
      4 C         -24.5516    0.4058   28.7646 C.ar    1  UNL1       -0.0003
      5 C         -24.6957    1.4480   27.7988 C.ar    1  UNL1       -0.0000
      6 C         -25.9755    1.7250   27.3077 C.ar    1  UNL1       -0.0003
      7 C         -27.0718    1.0134   27.6535 C.ar    1  UNL1       -0.0023
      8 N         -29.1869   -0.1649   29.1026 N.2     1  UNL1       -0.2522
      9 C         -23.4964    2.1689   27.4760 C.ar    1  UNL1       -0.0000
     10 C         -22.2362    1.6392   27.8619 C.ar    1  UNL1       -0.0000
     11 C         -22.1862    0.6201   28.8290 C.ar    1  UNL1       -0.0000
     12 C         -23.3020   -0.0988   29.2079 C.ar    1  UNL1       -0.0000
     13 C         -30.1281   -0.3766   29.4789 C.2     1  UNL1        0.1616
     14 CL        -30.4360   -1.8646   30.1965 Cl      1  UNL1       -0.0592
@<TRIPOS>BOND
     1     1     8    1
     2     8    13    2
     3    13    14    1
     4     1     2    1
     5     2     3   ar
     6     3     4   ar
     7     5     6   ar
     8     6     7   ar
     9     7     2   ar
    10     4     5   ar
    11     5     9   ar
    12     9    10   ar
    13    10    11   ar
    14    11    12   ar
    15    12     4   ar
