@<TRIPOS>MOLECULE
No_3963-gen_results/8p0m/2024-11-26-14-13-15/
 22 24 0 0 0
SMALL
GASTEIGER

@<TRIPOS>ATOM
      1 N         -28.0544   -1.0498   28.7246 N.ar    1  UNL1       -0.2438
      2 C         -26.9659   -0.4722   28.7709 C.ar    1  UNL1        0.0813
      3 C         -25.9289   -1.0196   29.5059 C.ar    1  UNL1        0.0191
      4 C         -26.1023   -2.2905   30.2023 C.ar    1  UNL1        0.0031
      5 C         -27.3441   -2.8033   30.0964 C.ar    1  UNL1        0.0207
      6 C         -28.3049   -2.1942   29.4440 C.ar    1  UNL1        0.0988
      7 C         -26.6719    0.8125   28.1050 C.ar    1  UNL1        0.0174
      8 C         -26.4093    1.8920   28.5517 C.ar    1  UNL1       -0.0014
      9 C         -26.6951    0.6702   26.6068 C.ar    1  UNL1        0.0015
     10 C         -26.1098    3.1044   27.8582 C.ar    1  UNL1       -0.0061
     11 C         -25.7296    4.3028   28.4186 C.3     1  UNL1        0.0994
     12 C         -26.4194    1.7214   25.7971 C.ar    1  UNL1       -0.0002
     13 C         -26.0668    2.9897   26.3639 C.ar    1  UNL1       -0.0029
     14 N         -26.4192    5.1685   28.8107 N.3     1  UNL1       -0.2639
     15 C         -25.9976    6.3325   29.4457 C.3     1  UNL1        0.0994
     16 C         -25.3531    7.2029   28.6105 C.ar    1  UNL1       -0.0061
     17 C         -25.7563    7.5390   27.5217 C.ar    1  UNL1       -0.0029
     18 C         -24.8579    8.0476   26.5047 C.ar    1  UNL1       -0.0003
     19 C         -23.6128    8.4505   26.9713 C.ar    1  UNL1       -0.0000
     20 C         -23.2009    8.3295   28.2779 C.ar    1  UNL1       -0.0003
     21 C         -24.0094    7.6511   29.0634 C.ar    1  UNL1       -0.0029
     22 C         -27.8344    5.1066   28.6298 C.3     1  UNL1        0.0902
@<TRIPOS>BOND
     1     2     7    1
     2    11    14    1
     3    14    15    1
     4    15    16    1
     5    14    22    1
     6    11    10    1
     7     7     8   ar
     8     8    10   ar
     9    10    13   ar
    10    13    12   ar
    11    12     9   ar
    12     9     7   ar
    13     1     2   ar
    14     2     3   ar
    15     3     4   ar
    16     4     5   ar
    17     5     6   ar
    18     6     1   ar
    19    16    17   ar
    20    17    18   ar
    21    18    19   ar
    22    19    20   ar
    23    20    21   ar
    24    21    16   ar
