@<TRIPOS>MOLECULE
No_3965-gen_results/8p0m/2024-11-26-14-13-15/
 16 17 0 0 0
SMALL
GASTEIGER

@<TRIPOS>ATOM
      1 C         -28.0162   -0.8135   28.8779 C.ar    1  UNL1        0.0362
      2 C         -28.4690   -0.7850   29.8287 C.ar    1  UNL1        0.0820
      3 C         -26.5455   -0.8762   28.8500 C.ar    1  UNL1        0.1403
      4 C         -25.8041   -1.0324   30.0571 C.ar    1  UNL1        0.0275
      5 C         -26.5373   -1.0386   31.2171 C.ar    1  UNL1        0.0024
      6 C         -27.8843   -0.9532   31.1862 C.ar    1  UNL1        0.0067
      7 C         -24.3655   -1.1134   30.0483 C.ar    1  UNL1        0.0022
      8 C         -23.7447   -1.3690   30.8125 C.ar    1  UNL1        0.0001
      9 C         -22.2072   -1.2504   30.8577 C.ar    1  UNL1        0.0000
     10 C         -21.6856   -0.8191   29.6527 C.ar    1  UNL1        0.0000
     11 C         -23.7345   -0.6112   28.7797 C.ar    1  UNL1        0.0001
     12 C         -22.4343   -0.4609   28.6549 C.ar    1  UNL1        0.0000
     13 C         -30.0606   -0.6641   29.9175 C.2     1  UNL1        0.3878
     14 O         -30.5636    0.3079   30.5429 O.co2   1  UNL1       -0.2406
     15 O         -30.7140   -1.4695   29.2514 O.co2   1  UNL1       -0.2406
     16 F         -25.9075   -0.8119   27.7122 F       1  UNL1       -0.2042
@<TRIPOS>BOND
     1     4     7    1
     2     2    13    1
     3    13    14   ar
     4    13    15   ar
     5     3    16    1
     6     7     8   ar
     7     8     9   ar
     8     9    10   ar
     9    10    12   ar
    10    12    11   ar
    11    11     7   ar
    12     1     2   ar
    13     2     6   ar
    14     6     5   ar
    15     5     4   ar
    16     4     3   ar
    17     3     1   ar
