@<TRIPOS>MOLECULE
No_3967-gen_results/8p0m/2024-11-26-14-13-15/
 15 15 0 0 0
SMALL
GASTEIGER

@<TRIPOS>ATOM
      1 C         -28.0162   -0.8135   28.8779 C.ar    1  UNL1        0.0370
      2 C         -28.4690   -0.7850   29.8287 C.ar    1  UNL1        0.1424
      3 C         -26.5042   -0.7777   28.8766 C.ar    1  UNL1        0.0031
      4 C         -25.9500    0.1157   29.4052 C.ar    1  UNL1        0.0002
      5 C         -27.9964    0.1190   30.9527 C.ar    1  UNL1        0.0370
      6 C         -26.6037    0.4647   30.8030 C.ar    1  UNL1        0.0031
      7 O         -29.8344   -1.0426   30.0554 O.3     1  UNL1       -0.4393
      8 C         -30.8065   -0.5432   29.5002 C.3     1  UNL1        0.4409
      9 C         -31.7381   -1.4375   29.0630 C.2     1  UNL1        0.4424
     10 O         -31.9690   -1.4681   27.8215 O.co2   1  UNL1       -0.2379
     11 O         -32.3465   -2.2952   29.7656 O.co2   1  UNL1       -0.2379
     12 F         -30.2689    0.1581   28.4532 F       1  UNL1       -0.1729
     13 C         -31.4091    0.4890   30.4242 C.2     1  UNL1        0.3895
     14 O         -31.4721    0.2728   31.5416 O.2     1  UNL1       -0.2515
     15 F         -31.8661    1.5168   29.8758 F       1  UNL1       -0.1561
@<TRIPOS>BOND
     1     2     7    1
     2     7     8    1
     3     8     9    1
     4     9    10   ar
     5     9    11   ar
     6     8    12    1
     7     8    13    1
     8    13    14    2
     9    13    15    1
    10     1     2   ar
    11     2     5   ar
    12     5     6   ar
    13     6     4   ar
    14     4     3   ar
    15     3     1   ar
