@<TRIPOS>MOLECULE
No_3969-gen_results/8p0m/2024-11-26-14-13-15/
 23 24 0 0 0
SMALL
GASTEIGER

@<TRIPOS>ATOM
      1 C         -28.0162   -0.8135   28.8779 C.2     1  UNL1        0.2717
      2 C         -27.0636   -0.1190   28.6079 C.ar    1  UNL1        0.0555
      3 C         -26.9287    1.1713   29.0083 C.ar    1  UNL1        0.0046
      4 C         -25.7702    2.0341   28.6884 C.ar    1  UNL1        0.0014
      5 C         -24.7141    1.4431   27.9188 C.ar    1  UNL1        0.0153
      6 C         -24.8590    0.0783   27.5836 C.ar    1  UNL1        0.0014
      7 C         -25.9647   -0.6606   27.9164 C.ar    1  UNL1        0.0046
      8 N         -29.1701   -0.2984   28.9471 N.am    1  UNL1       -0.1332
      9 C         -29.7216    0.3727   28.0429 C.2     1  UNL1        0.3272
     10 O         -29.2098    0.8030   27.1435 O.2     1  UNL1       -0.2628
     11 C         -31.1752    0.6307   28.3008 C.2     1  UNL1        0.3247
     12 O         -31.9455    0.3634   27.5034 O.2     1  UNL1       -0.2629
     13 N         -31.5447    1.1959   29.5055 N.am    1  UNL1       -0.1715
     14 C         -32.8843    1.4818   29.8232 C.ar    1  UNL1        0.0738
     15 C         -23.4888    2.1153   27.6076 C.2     1  UNL1        0.0809
     16 N         -22.3523    2.1611   28.2618 N.2     1  UNL1       -0.1527
     17 C         -23.4792    2.6927   26.2189 C.3     1  UNL1        0.0540
     18 C         -33.7030    1.9104   29.2970 C.ar    1  UNL1        0.0166
     19 C         -34.6182    2.3729   29.3891 C.ar    1  UNL1        0.0013
     20 C         -35.1130    2.3970   30.8609 C.ar    1  UNL1        0.0001
     21 C         -34.2504    1.8877   31.7661 C.ar    1  UNL1        0.0013
     22 C         -32.9920    1.5034   31.3345 C.ar    1  UNL1        0.0166
     23 O         -27.9205   -2.0127   29.3903 O.2     1  UNL1       -0.2679
@<TRIPOS>BOND
     1     1     2    1
     2     1     8   am
     3     8     9   am
     4     9    10    2
     5     9    11    1
     6    11    12    2
     7    11    13   am
     8    13    14    1
     9     5    15    1
    10    15    16    2
    11    15    17    1
    12     1    23    2
    13     2     3   ar
    14     3     4   ar
    15     4     5   ar
    16     5     6   ar
    17     6     7   ar
    18     7     2   ar
    19    14    18   ar
    20    18    19   ar
    21    19    20   ar
    22    20    21   ar
    23    21    22   ar
    24    22    14   ar
