@<TRIPOS>MOLECULE
No_397-gen_results/8p0m/2024-11-26-14-13-15/
 30 33 0 0 0
SMALL
GASTEIGER

@<TRIPOS>ATOM
      1 CL        -28.1493   -0.8198   28.9079 Cl      1  UNL1       -0.0820
      2 C         -26.9116   -0.0797   28.9452 C.ar    1  UNL1        0.0652
      3 C         -26.7384    1.0439   29.2534 C.ar    1  UNL1        0.0868
      4 C         -25.4392    1.7115   29.2755 C.ar    1  UNL1        0.0132
      5 C         -24.2812    0.9888   28.8542 C.ar    1  UNL1        0.0702
      6 C         -24.4869   -0.3041   28.4957 C.ar    1  UNL1        0.0725
      7 C         -25.7046   -0.8667   28.5244 C.ar    1  UNL1        0.0279
      8 C         -22.9617    1.6322   28.7948 C.2     1  UNL1        0.2676
      9 N         -21.8824    0.9133   28.4730 N.am    1  UNL1       -0.1776
     10 O         -22.8801    2.8938   28.7142 O.2     1  UNL1       -0.2683
     11 C         -21.7416   -0.4582   28.6030 C.3     1  UNL1        0.2270
     12 N         -22.9857   -1.1149   28.6054 N.pl3   1  UNL1       -0.2141
     13 C         -27.7848    2.1044   29.3340 C.2     1  UNL1        0.3465
     14 O         -28.7681    2.1439   28.9285 O.2     1  UNL1       -0.2445
     15 O         -27.3719    3.2691   30.0640 O.3     1  UNL1       -0.4210
     16 C         -27.6600    3.6904   31.0155 C.ar    1  UNL1        0.1488
     17 C         -26.9054    4.4294   31.6725 C.ar    1  UNL1        0.0376
     18 C         -28.9289    3.3631   31.6044 C.ar    1  UNL1        0.0376
     19 C         -27.1590    5.0120   33.0341 C.ar    1  UNL1        0.0031
     20 C         -29.3192    3.9093   32.8964 C.ar    1  UNL1        0.0031
     21 C         -28.4048    4.7363   33.5792 C.ar    1  UNL1        0.0003
     22 C         -28.7307    5.3214   34.8910 C.ar    1  UNL1        0.0030
     23 C         -28.6729    6.1047   35.5187 C.ar    1  UNL1        0.0002
     24 C         -29.1206    6.3271   36.8883 C.ar    1  UNL1        0.0031
     25 C         -29.8615    5.2913   37.4204 C.ar    1  UNL1        0.0375
     26 C         -29.5827    4.1238   35.6642 C.ar    1  UNL1        0.0375
     27 C         -29.8598    4.1808   36.6277 C.ar    1  UNL1        0.1454
     28 O         -30.6456    3.1033   37.2239 O.3     1  UNL1       -0.4504
     29 C         -30.7198    2.0784   37.1397 C.2     1  UNL1        0.1796
     30 C         -31.1549    1.2609   37.7789 C.2     1  UNL1        0.0439
@<TRIPOS>BOND
     1     1     2    1
     2     5     8    1
     3     8     9   am
     4     8    10    2
     5     9    11    1
     6     6    12    1
     7     3    13    1
     8    13    14    2
     9    13    15    1
    10    15    16    1
    11    21    22    1
    12    27    28    1
    13    28    29    1
    14    29    30    2
    15    12    11    1
    16     2     3   ar
    17     3     4   ar
    18     4     5   ar
    19     5     6   ar
    20     6     7   ar
    21     7     2   ar
    22    22    23   ar
    23    23    24   ar
    24    24    25   ar
    25    25    27   ar
    26    27    26   ar
    27    26    22   ar
    28    16    17   ar
    29    17    19   ar
    30    19    21   ar
    31    21    20   ar
    32    20    18   ar
    33    18    16   ar
