@<TRIPOS>MOLECULE
No_3970-gen_results/8p0m/2024-11-26-14-13-15/
 9 9 0 0 0
SMALL
GASTEIGER

@<TRIPOS>ATOM
      1 C         -28.0162   -0.8135   28.8779 C.ar    1  UNL1        0.0015
      2 C         -27.0636   -0.1189   28.6079 C.ar    1  UNL1        0.0001
      3 C         -26.9716    0.7139   27.5060 C.ar    1  UNL1        0.0015
      4 C         -28.1053    0.7744   26.6421 C.ar    1  UNL1        0.0191
      5 C         -29.2008    0.1044   27.0527 C.ar    1  UNL1        0.0810
      6 C         -29.2096   -0.6029   28.1853 C.ar    1  UNL1        0.0191
      7 N         -30.3077    0.2215   26.2218 N.2     1  UNL1       -0.2485
      8 C         -31.3611   -0.4042   26.5033 C.2     1  UNL1        0.0728
      9 C         -31.4760   -1.0981   27.7491 C.3     1  UNL1        0.0534
@<TRIPOS>BOND
     1     5     7    1
     2     7     8    2
     3     8     9    1
     4     1     2   ar
     5     2     3   ar
     6     3     4   ar
     7     4     5   ar
     8     5     6   ar
     9     6     1   ar
