@<TRIPOS>MOLECULE
No_3971-gen_results/8p0m/2024-11-26-14-13-15/
 31 33 0 0 0
SMALL
GASTEIGER

@<TRIPOS>ATOM
      1 C         -28.0162   -0.8135   28.8779 C.ar    1  UNL1        0.0372
      2 C         -28.4690   -0.7850   29.8287 C.ar    1  UNL1        0.1453
      3 C         -26.5042   -0.7777   28.8766 C.ar    1  UNL1       -0.0011
      4 C         -25.9150   -0.6580   29.9230 C.ar    1  UNL1       -0.0220
      5 C         -27.9691   -0.7243   31.2047 C.ar    1  UNL1        0.0372
      6 C         -26.5847   -0.6393   31.2062 C.ar    1  UNL1       -0.0011
      7 O         -29.9415   -0.8626   29.8704 O.3     1  UNL1       -0.4535
      8 C         -30.6762    0.1229   30.3377 C.ar    1  UNL1        0.1455
      9 C         -31.8323    0.0303   30.1708 C.ar    1  UNL1        0.0375
     10 C         -32.7368    1.1382   30.5956 C.ar    1  UNL1        0.0033
     11 C         -32.1061    2.2459   31.2211 C.ar    1  UNL1        0.0068
     12 C         -30.7508    2.2486   31.3768 C.ar    1  UNL1        0.0828
     13 C         -29.9638    1.2381   30.9560 C.ar    1  UNL1        0.0441
     14 C         -30.0869    3.4036   32.0520 C.2     1  UNL1        0.3879
     15 O         -30.3985    4.1649   32.7926 O.co2   1  UNL1       -0.2406
     16 O         -28.7894    3.5448   31.6321 O.co2   1  UNL1       -0.2406
     17 C         -24.3920   -0.6974   30.0315 C.3     1  UNL1        0.0264
     18 C         -23.6780   -0.0973   28.9745 C.3     1  UNL1        0.0264
     19 C         -23.9959    0.8970   28.2428 C.ar    1  UNL1       -0.0225
     20 C         -23.0871    1.4491   27.2887 C.ar    1  UNL1       -0.0043
     21 C         -23.4530    2.4600   26.3687 C.ar    1  UNL1       -0.0006
     22 C         -24.8300    2.9265   26.3978 C.ar    1  UNL1       -0.0040
     23 C         -25.7153    2.3818   27.2464 C.ar    1  UNL1       -0.0181
     24 C         -25.3473    1.4080   28.1612 C.ar    1  UNL1       -0.0082
     25 C         -22.2774   -0.7015   28.8901 C.3     1  UNL1        0.0050
     26 C         -23.8061   -1.2872   31.1908 C.3     1  UNL1        0.0050
     27 C         -27.0474    3.0048   27.2131 C.3     1  UNL1        0.0523
     28 C         -27.9039    2.4968   26.2940 C.2     1  UNL1       -0.0214
     29 C         -29.2685    2.6190   26.4418 C.2     1  UNL1       -0.0042
     30 C         -29.7604    3.4568   27.5142 C.2     1  UNL1       -0.0003
     31 C         -31.1925    3.5882   27.6905 C.2     1  UNL1       -0.0000
@<TRIPOS>BOND
     1     2     7    1
     2     7     8    1
     3    12    14    1
     4    14    15   ar
     5    14    16   ar
     6     4    17    1
     7    17    18    1
     8    18    25    1
     9    17    26    1
    10    23    27    1
    11    27    28    1
    12    28    29    2
    13    29    30    1
    14    30    31    2
    15    18    19    1
    16     8     9   ar
    17     9    10   ar
    18    10    11   ar
    19    11    12   ar
    20    12    13   ar
    21    13     8   ar
    22     1     2   ar
    23     2     5   ar
    24     5     6   ar
    25     6     4   ar
    26     4     3   ar
    27     3     1   ar
    28    19    20   ar
    29    20    21   ar
    30    21    22   ar
    31    22    23   ar
    32    23    24   ar
    33    24    19   ar
