@<TRIPOS>MOLECULE
No_3973-gen_results/8p0m/2024-11-26-14-13-15/
 32 34 0 0 0
SMALL
GASTEIGER

@<TRIPOS>ATOM
      1 C         -28.0162   -0.8135   28.8779 C.ar    1  UNL1        0.0191
      2 C         -28.4690   -0.7850   29.8287 C.ar    1  UNL1        0.0581
      3 C         -27.0871    0.2903   28.6377 C.ar    1  UNL1        0.0724
      4 C         -26.8317    1.2487   29.5869 C.ar    1  UNL1        0.0012
      5 C         -28.3914    0.0801   31.0065 C.ar    1  UNL1        0.0125
      6 C         -27.4940    1.1521   30.7841 C.ar    1  UNL1       -0.0022
      7 C         -26.3109    0.3918   27.3640 C.3     1  UNL1        0.4186
      8 F         -25.5529   -0.4068   27.2286 F       1  UNL1       -0.1659
      9 F         -27.2303    0.4032   26.3199 F       1  UNL1       -0.1659
     10 F         -25.7069    1.6364   27.1432 F       1  UNL1       -0.1659
     11 N         -29.3824   -1.9597   30.1915 N.am    1  UNL1       -0.2339
     12 C         -28.9282   -3.2772   30.4495 C.2     1  UNL1        0.2565
     13 O         -27.7405   -3.4733   30.4152 O.2     1  UNL1       -0.2692
     14 C         -29.9182   -4.2893   30.6682 C.ar    1  UNL1        0.0542
     15 C         -30.5404   -4.7778   29.5525 C.ar    1  UNL1        0.0045
     16 C         -31.4227   -5.9172   29.7020 C.ar    1  UNL1        0.0001
     17 C         -31.6188   -6.4647   30.9739 C.ar    1  UNL1        0.0000
     18 C         -29.9232   -5.0092   31.8541 C.ar    1  UNL1        0.0045
     19 C         -30.8126   -6.0043   32.0695 C.ar    1  UNL1        0.0001
     20 C         -30.7986   -1.6126   30.3382 C.ar    1  UNL1        0.0584
     21 C         -31.4892   -1.4706   29.1560 C.ar    1  UNL1        0.0152
     22 C         -32.8599   -1.2482   29.2687 C.ar    1  UNL1        0.0013
     23 C         -33.4777   -1.2405   30.5680 C.ar    1  UNL1        0.0001
     24 C         -31.3608   -1.5662   31.5836 C.ar    1  UNL1        0.0152
     25 C         -32.7019   -1.3534   31.7307 C.ar    1  UNL1        0.0013
     26 C         -27.2789    2.1945   31.8172 C.3     1  UNL1        0.1240
     27 CL        -26.4044    3.2546   31.8562 Cl      1  UNL1       -0.1053
     28 C         -28.1528    2.0841   33.0638 C.2     1  UNL1       -0.0059
     29 C         -28.1035    2.8143   33.9050 C.2     1  UNL1       -0.0034
     30 C         -28.7185    2.6538   35.2349 C.2     1  UNL1       -0.0049
     31 C         -29.6295    1.5783   35.2867 C.2     1  UNL1       -0.0258
     32 C         -29.7830    0.7211   34.2361 C.3     1  UNL1        0.0307
@<TRIPOS>BOND
     1     3     7    1
     2     7     8    1
     3     7     9    1
     4     7    10    1
     5     2    11    1
     6    11    12   am
     7    12    13    2
     8    12    14    1
     9    11    20    1
    10     6    26    1
    11    26    27    1
    12    26    28    1
    13    28    29    2
    14    29    30    1
    15    30    31    2
    16    31    32    1
    17    20    21   ar
    18    21    22   ar
    19    22    23   ar
    20    23    25   ar
    21    25    24   ar
    22    24    20   ar
    23    14    15   ar
    24    15    16   ar
    25    16    17   ar
    26    17    19   ar
    27    19    18   ar
    28    18    14   ar
    29     1     2   ar
    30     2     5   ar
    31     5     6   ar
    32     6     4   ar
    33     4     3   ar
    34     3     1   ar
