@<TRIPOS>MOLECULE
No_3974-gen_results/8p0m/2024-11-26-14-13-15/
 19 20 0 0 0
SMALL
GASTEIGER

@<TRIPOS>ATOM
      1 N         -28.0544   -1.0498   28.7246 N.pl3   1  UNL1       -0.2278
      2 C         -26.9659   -0.4722   28.7709 C.ar    1  UNL1        0.0659
      3 C         -26.5486    0.3876   27.8310 C.ar    1  UNL1        0.0170
      4 C         -25.2662    1.0684   27.8062 C.ar    1  UNL1        0.0127
      5 C         -24.3565    0.7761   28.8458 C.ar    1  UNL1        0.0578
      6 C         -24.7750   -0.1742   29.8298 C.ar    1  UNL1        0.0127
      7 C         -25.9839   -0.8112   29.8049 C.ar    1  UNL1        0.0170
      8 C         -29.0059   -0.6504   29.6882 C.3     1  UNL1        0.1972
      9 C         -30.2559   -1.4458   29.6619 C.2     1  UNL1        0.2514
     10 O         -30.2088   -2.4351   29.9494 O.2     1  UNL1       -0.2726
     11 N         -31.3536   -0.7677   29.2544 N.am    1  UNL1       -0.2554
     12 C         -31.4465    0.6319   28.8964 C.ar    1  UNL1        0.0539
     13 C         -32.5787   -1.5727   29.1111 C.3     1  UNL1        0.1201
     14 CL        -22.8408    1.5121   28.9009 Cl      1  UNL1       -0.0822
     15 C         -31.7869    1.4972   29.8449 C.ar    1  UNL1        0.0149
     16 C         -31.5725    2.7513   29.5654 C.ar    1  UNL1        0.0013
     17 C         -31.1849    3.2246   28.2825 C.ar    1  UNL1        0.0001
     18 C         -30.8507    0.9637   27.6941 C.ar    1  UNL1        0.0149
     19 C         -30.7277    2.3081   27.3703 C.ar    1  UNL1        0.0013
@<TRIPOS>BOND
     1     1     2    1
     2     1     8    1
     3     8     9    1
     4     9    10    2
     5     9    11   am
     6    11    12    1
     7    11    13    1
     8     5    14    1
     9     2     3   ar
    10     3     4   ar
    11     4     5   ar
    12     5     6   ar
    13     6     7   ar
    14     7     2   ar
    15    12    15   ar
    16    15    16   ar
    17    16    17   ar
    18    17    19   ar
    19    19    18   ar
    20    18    12   ar
