@<TRIPOS>MOLECULE
No_3978-gen_results/8p0m/2024-11-26-14-13-15/
 16 16 0 0 0
SMALL
GASTEIGER

@<TRIPOS>ATOM
      1 C         -28.0162   -0.8135   28.8779 C.ar    1  UNL1       -0.0002
      2 C         -27.0636   -0.1190   28.6079 C.ar    1  UNL1       -0.0037
      3 C         -26.9716    0.7139   27.5060 C.ar    1  UNL1       -0.0098
      4 C         -28.1053    0.7744   26.6421 C.ar    1  UNL1        0.0009
      5 C         -29.2041    0.1179   27.0477 C.ar    1  UNL1        0.0547
      6 C         -29.2127   -0.6088   28.1281 C.ar    1  UNL1        0.0045
      7 C         -25.7106    1.4518   27.1380 C.3     1  UNL1        0.1467
      8 P         -24.3316    1.0098   27.9169 P.3     1  UNL1        0.4039
      9 O         -23.1973    1.6642   27.2116 O.2     1  UNL1       -0.2527
     10 O         -24.1046   -0.4875   27.8548 O.3     1  UNL1       -0.1375
     11 O         -24.5415    1.3170   29.4386 O.3     1  UNL1       -0.1037
     12 C         -30.4182    0.2535   26.2095 C.2     1  UNL1        0.2648
     13 O         -30.4360    0.4342   25.1881 O.2     1  UNL1       -0.2684
     14 N         -31.6139   -0.0388   26.8499 N.am    1  UNL1       -0.1998
     15 C         -32.8538   -0.0574   26.1244 C.3     1  UNL1        0.1388
     16 F         -23.4862    1.7333   29.8730 F       1  UNL1       -0.0389
@<TRIPOS>BOND
     1     3     7    1
     2     7     8    1
     3     8     9    2
     4     8    10    1
     5     8    11    1
     6     5    12    1
     7    12    13    2
     8    12    14   am
     9    14    15    1
    10    11    16    1
    11     1     2   ar
    12     2     3   ar
    13     3     4   ar
    14     4     5   ar
    15     5     6   ar
    16     6     1   ar
