@<TRIPOS>MOLECULE
No_3979-gen_results/8p0m/2024-11-26-14-13-15/
 16 17 0 0 0
SMALL
GASTEIGER

@<TRIPOS>ATOM
      1 O         -28.1229   -1.3353   28.4874 O.2     1  UNL1       -0.2497
      2 C         -28.5208   -0.4363   29.0779 C.2     1  UNL1        0.3217
      3 O         -27.9150    0.0780   30.0386 O.3     1  UNL1       -0.4472
      4 C         -29.8074    0.1885   28.6630 C.3     1  UNL1        0.1357
      5 C         -29.7096    1.3760   28.1635 C.ar    1  UNL1       -0.0117
      6 C         -29.9900    2.0162   27.3858 C.ar    1  UNL1       -0.0039
      7 C         -29.7734    3.5079   26.9867 C.ar    1  UNL1       -0.0003
      8 C         -28.7957    4.1330   27.7903 C.ar    1  UNL1       -0.0002
      9 C         -28.2277    3.3795   28.7849 C.ar    1  UNL1       -0.0011
     10 C         -28.5760    2.0965   29.0270 C.ar    1  UNL1        0.0141
     11 C         -27.6772    1.4688   29.8765 C.3     1  UNL1        0.1976
     12 C         -26.6588    2.0114   30.7951 C.3     1  UNL1        0.1314
     13 C         -25.5820    2.5224   30.2224 C.3     1  UNL1        0.3338
     14 CL        -25.5341    3.1918   29.2228 Cl      1  UNL1       -0.0468
     15 F         -24.7763    3.1424   31.1981 F       1  UNL1       -0.1866
     16 F         -24.7006    1.3611   30.1679 F       1  UNL1       -0.1866
@<TRIPOS>BOND
     1     1     2    2
     2     2     3    1
     3     2     4    1
     4     4     5    1
     5     3    11    1
     6    10    11    1
     7    11    12    1
     8    12    13    1
     9    13    14    1
    10    13    15    1
    11    13    16    1
    12     5     6   ar
    13     6     7   ar
    14     7     8   ar
    15     8     9   ar
    16     9    10   ar
    17    10     5   ar
