@<TRIPOS>MOLECULE
No_398-gen_results/8p0m/2024-11-26-14-13-15/
 34 36 0 0 0
SMALL
GASTEIGER

@<TRIPOS>ATOM
      1 C         -28.0162   -0.8135   28.8779 C.ar    1  UNL1        0.0046
      2 C         -27.0636   -0.1190   28.6079 C.ar    1  UNL1        0.0001
      3 C         -26.9287    1.1713   29.0083 C.ar    1  UNL1        0.0001
      4 C         -25.7702    2.0341   28.6884 C.ar    1  UNL1        0.0022
      5 C         -25.6189    3.3482   29.0918 C.ar    1  UNL1        0.0001
      6 C         -29.0712   -0.3338   29.7689 C.ar    1  UNL1        0.0550
      7 C         -29.0128    0.9333   30.1718 C.ar    1  UNL1        0.0046
      8 C         -27.8993    1.7759   29.8587 C.ar    1  UNL1        0.0001
      9 C         -24.5416    4.1093   28.6528 C.ar    1  UNL1        0.0023
     10 C         -23.7334    3.5516   27.6135 C.ar    1  UNL1        0.0296
     11 C         -24.8513    1.6832   27.6298 C.ar    1  UNL1        0.0296
     12 C         -23.8924    2.3843   27.1237 C.ar    1  UNL1        0.1401
     13 F         -23.0793    1.9522   26.1759 F       1  UNL1       -0.2042
     14 C         -30.1619   -1.2553   30.1075 C.2     1  UNL1        0.2650
     15 N         -29.9821   -2.3977   30.5492 N.am    1  UNL1       -0.1943
     16 O         -31.2710   -0.7513   30.4200 O.2     1  UNL1       -0.2684
     17 C         -28.6722   -3.0969   30.5300 C.3     1  UNL1        0.1943
     18 C         -27.8168   -2.7898   31.3851 C.3     1  UNL1        0.0569
     19 C         -28.8640   -4.6443   30.5637 C.3     1  UNL1        0.4158
     20 F         -29.1318   -5.0335   29.4308 F       1  UNL1       -0.1682
     21 F         -29.9375   -4.9225   31.3825 F       1  UNL1       -0.1682
     22 C         -28.1553   -1.6922   32.3436 C.ar    1  UNL1       -0.0155
     23 F         -27.7980   -5.2564   30.9872 F       1  UNL1       -0.1682
     24 C         -27.1477   -0.8060   32.8059 C.ar    1  UNL1        0.0528
     25 C         -27.4449    0.1811   33.7644 C.ar    1  UNL1        0.0045
     26 C         -28.7845    0.3177   34.2327 C.ar    1  UNL1        0.0067
     27 C         -29.7015   -0.6679   33.8050 C.ar    1  UNL1        0.0795
     28 C         -29.3741   -1.6250   32.9538 C.ar    1  UNL1        0.0025
     29 C         -31.0735   -0.5565   34.4552 C.2     1  UNL1        0.3877
     30 O         -31.8839    0.1264   33.9265 O.co2   1  UNL1       -0.2406
     31 O         -31.1689   -1.0025   35.6725 O.co2   1  UNL1       -0.2406
     32 C         -25.7749   -0.7406   32.2576 C.2     1  UNL1        0.2839
     33 O         -25.4448   -0.9605   31.2766 O.2     1  UNL1       -0.2667
     34 N         -24.7991   -0.2634   33.2029 N.am    1  UNL1       -0.0837
@<TRIPOS>BOND
     1     3     4    1
     2    12    13    1
     3     6    14    1
     4    14    15   am
     5    14    16    2
     6    15    17    1
     7    17    18    1
     8    17    19    1
     9    19    20    1
    10    19    21    1
    11    18    22    1
    12    19    23    1
    13    27    29    1
    14    29    30   ar
    15    29    31   ar
    16    24    32    1
    17    32    33    2
    18    32    34   am
    19    22    24   ar
    20    24    25   ar
    21    25    26   ar
    22    26    27   ar
    23    27    28   ar
    24    28    22   ar
    25     1     2   ar
    26     2     3   ar
    27     3     8   ar
    28     8     7   ar
    29     7     6   ar
    30     6     1   ar
    31     4     5   ar
    32     5     9   ar
    33     9    10   ar
    34    10    12   ar
    35    12    11   ar
    36    11     4   ar
