@<TRIPOS>MOLECULE
No_3980-gen_results/8p0m/2024-11-26-14-13-15/
 21 23 0 0 0
SMALL
GASTEIGER

@<TRIPOS>ATOM
      1 C         -28.0162   -0.8135   28.8779 C.ar    1  UNL1        0.0015
      2 C         -28.4690   -0.7850   29.8287 C.ar    1  UNL1        0.0000
      3 C         -28.1816    0.4277   28.1134 C.ar    1  UNL1        0.0172
      4 C         -28.9841    1.4155   28.5154 C.ar    1  UNL1        0.0015
      5 C         -29.3802    0.1384   30.4612 C.ar    1  UNL1        0.0000
      6 C         -29.5415    1.2736   29.7242 C.ar    1  UNL1        0.0000
      7 C         -27.4586    0.4934   26.7701 C.2     1  UNL1        0.0763
      8 N         -27.8805    0.6637   25.7783 N.2     1  UNL1       -0.2656
      9 C         -25.9360    0.3119   26.8304 C.ar    1  UNL1        0.0172
     10 C         -25.1240    0.1300   27.9284 C.ar    1  UNL1        0.0015
     11 C         -24.0085    0.3216   28.1533 C.ar    1  UNL1        0.0000
     12 C         -23.2362    1.0189   27.0810 C.ar    1  UNL1        0.0000
     13 C         -23.9411    1.4485   25.9497 C.ar    1  UNL1        0.0000
     14 C         -25.3210    1.2382   25.8205 C.ar    1  UNL1        0.0015
     15 C         -28.7317   -0.0473   25.1753 C.3     1  UNL1        0.1518
     16 C         -29.2392    0.3819   23.9152 C.ar    1  UNL1        0.0020
     17 C         -30.4658    0.0532   23.5888 C.ar    1  UNL1       -0.0023
     18 C         -31.2876    0.7395   22.7520 C.ar    1  UNL1       -0.0003
     19 C         -30.8481    2.1039   22.3883 C.ar    1  UNL1       -0.0000
     20 C         -29.6362    2.5542   22.9664 C.ar    1  UNL1       -0.0003
     21 C         -28.9742    1.8090   23.7668 C.ar    1  UNL1       -0.0023
@<TRIPOS>BOND
     1     3     7    1
     2     7     8    2
     3     7     9    1
     4     8    15    1
     5    15    16    1
     6     9    10   ar
     7    10    11   ar
     8    11    12   ar
     9    12    13   ar
    10    13    14   ar
    11    14     9   ar
    12     1     2   ar
    13     2     5   ar
    14     5     6   ar
    15     6     4   ar
    16     4     3   ar
    17     3     1   ar
    18    16    17   ar
    19    17    18   ar
    20    18    19   ar
    21    19    20   ar
    22    20    21   ar
    23    21    16   ar
