@<TRIPOS>MOLECULE
No_3981-gen_results/8p0m/2024-11-26-14-13-15/
 9 9 0 0 0
SMALL
GASTEIGER

@<TRIPOS>ATOM
      1 C         -28.0162   -0.8135   28.8779 C.ar    1  UNL1        0.0236
      2 C         -28.4690   -0.7850   29.8287 C.ar    1  UNL1        0.0586
      3 C         -27.0871    0.2903   28.6377 C.ar    1  UNL1        0.0690
      4 C         -26.7676    1.0274   29.4716 C.ar    1  UNL1        0.0683
      5 C         -28.2764    0.0268   31.0145 C.ar    1  UNL1        0.0123
      6 C         -27.3287    1.0538   30.7535 C.ar    1  UNL1        0.0131
      7 CL        -26.2914    0.2875   27.0609 Cl      1  UNL1       -0.0813
      8 CL        -29.6462   -2.1250   30.2854 Cl      1  UNL1       -0.0822
      9 CL        -25.5846    2.3922   29.1887 Cl      1  UNL1       -0.0814
@<TRIPOS>BOND
     1     3     7    1
     2     2     8    1
     3     4     9    1
     4     1     2   ar
     5     2     5   ar
     6     5     6   ar
     7     6     4   ar
     8     4     3   ar
     9     3     1   ar
