@<TRIPOS>MOLECULE
No_3982-gen_results/8p0m/2024-11-26-14-13-15/
 26 27 0 0 0
SMALL
GASTEIGER

@<TRIPOS>ATOM
      1 C         -28.0162   -0.8135   28.8779 C.ar    1  UNL1        0.0029
      2 C         -28.4690   -0.7850   29.8287 C.ar    1  UNL1        0.0001
      3 C         -28.1816    0.4277   28.1134 C.ar    1  UNL1        0.0350
      4 C         -28.9841    1.4155   28.5154 C.ar    1  UNL1        0.0029
      5 C         -29.3802    0.1384   30.4612 C.ar    1  UNL1        0.0000
      6 C         -29.5415    1.2736   29.7242 C.ar    1  UNL1        0.0001
      7 C         -27.4586    0.4934   26.7701 C.2     1  UNL1        0.1767
      8 C         -26.4813    1.5210   26.6301 C.3     1  UNL1        0.0841
      9 C         -25.2027    1.4103   27.3432 C.ar    1  UNL1       -0.0155
     10 C         -24.2794    2.4114   27.2150 C.ar    1  UNL1       -0.0039
     11 C         -22.9946    2.3383   27.8506 C.ar    1  UNL1       -0.0006
     12 C         -22.6580    1.0869   28.5328 C.ar    1  UNL1       -0.0043
     13 C         -23.5781    0.0859   28.5460 C.ar    1  UNL1       -0.0228
     14 C         -24.8241    0.2126   27.9752 C.ar    1  UNL1       -0.0081
     15 C         -23.2482   -1.1644   29.2840 C.3     1  UNL1        0.0223
     16 C         -22.6408   -1.0856   30.5288 C.3     1  UNL1        0.0047
     17 C         -26.4102    2.0183   25.2418 C.3     1  UNL1        0.0129
     18 O         -27.9468   -0.1363   25.8068 O.2     1  UNL1       -0.2910
     19 C         -23.7656   -2.3876   28.8283 C.3     1  UNL1        0.0044
     20 C         -24.4656   -3.2414   29.7854 C.3     1  UNL1        0.0003
     21 C         -25.3009   -4.2260   29.0760 C.3     1  UNL1        0.0006
     22 C         -26.5231   -4.5832   29.8805 C.3     1  UNL1        0.0118
     23 C         -27.8389   -4.1063   29.2423 C.3     1  UNL1        0.1141
     24 C         -29.0190   -4.6411   29.9935 C.2     1  UNL1        0.3649
     25 O         -28.9642   -4.9815   31.1538 O.co2   1  UNL1       -0.2457
     26 O         -30.0838   -4.7409   29.3369 O.co2   1  UNL1       -0.2457
@<TRIPOS>BOND
     1     3     7    1
     2     7     8    1
     3     8     9    1
     4    13    15    1
     5    15    16    1
     6     8    17    1
     7     7    18    2
     8    15    19    1
     9    19    20    1
    10    20    21    1
    11    21    22    1
    12    22    23    1
    13    23    24    1
    14    24    25   ar
    15    24    26   ar
    16     9    10   ar
    17    10    11   ar
    18    11    12   ar
    19    12    13   ar
    20    13    14   ar
    21    14     9   ar
    22     1     2   ar
    23     2     5   ar
    24     5     6   ar
    25     6     4   ar
    26     4     3   ar
    27     3     1   ar
