@<TRIPOS>MOLECULE
No_3983-gen_results/8p0m/2024-11-26-14-13-15/
 14 14 0 0 0
SMALL
GASTEIGER

@<TRIPOS>ATOM
      1 C         -28.0162   -0.8135   28.8779 C.3     1  UNL1        0.0312
      2 C         -27.0636   -0.1189   28.6079 C.3     1  UNL1        0.0406
      3 C         -25.7923   -0.4302   29.0761 C.2     1  UNL1       -0.0292
      4 C         -25.2700   -0.0487   30.0123 C.2     1  UNL1       -0.0260
      5 C         -27.8851   -1.6683   30.1122 C.2     1  UNL1       -0.0300
      6 C         -26.9250   -1.6038   31.1803 C.2     1  UNL1       -0.0260
      7 C         -25.6359   -1.0991   31.0559 C.3     1  UNL1        0.0513
      8 C         -27.1491    0.5617   27.2655 C.3     1  UNL1        0.0832
      9 BR        -26.1231    1.5500   26.9660 Br      1  UNL1       -0.0765
     10 C         -28.2667    0.3215   26.3764 C.2     1  UNL1       -0.0147
     11 C         -28.1744    0.3915   25.1465 C.2     1  UNL1       -0.0041
     12 C         -29.2627    0.0692   24.2043 C.2     1  UNL1       -0.0049
     13 C         -30.3670   -0.5604   24.7634 C.2     1  UNL1       -0.0258
     14 C         -30.5115   -0.5547   26.1779 C.3     1  UNL1        0.0307
@<TRIPOS>BOND
     1     1     2    1
     2     2     3    1
     3     3     4    2
     4     1     5    1
     5     5     6    2
     6     4     7    1
     7     6     7    1
     8     2     8    1
     9     8     9    1
    10     8    10    1
    11    10    11    2
    12    11    12    1
    13    12    13    2
    14    13    14    1
