@<TRIPOS>MOLECULE
No_3984-gen_results/8p0m/2024-11-26-14-13-15/
 22 23 0 0 0
SMALL
GASTEIGER

@<TRIPOS>ATOM
      1 C         -28.0162   -0.8135   28.8779 C.ar    1  UNL1        0.0420
      2 C         -27.0636   -0.1189   28.6079 C.ar    1  UNL1        0.0030
      3 C         -25.7647   -0.3897   29.0360 C.ar    1  UNL1       -0.0035
      4 C         -25.5296   -1.5302   29.9014 C.ar    1  UNL1        0.0029
      5 C         -26.6888   -2.2893   30.1810 C.ar    1  UNL1        0.0420
      6 C         -27.8727   -1.9508   29.7373 C.ar    1  UNL1        0.1957
      7 O         -28.9304   -2.7298   30.1154 O.3     1  UNL1       -0.2866
      8 C         -24.5394    0.4211   28.7421 C.ar    1  UNL1       -0.0157
      9 C         -24.5259    1.2743   27.7265 C.3     1  UNL1        0.0570
     10 C         -23.3174    1.9856   27.4033 C.2     1  UNL1        0.0388
     11 C         -22.1311    1.7374   28.0503 C.2     1  UNL1        0.2749
     12 C         -23.2983    0.1369   29.3770 C.ar    1  UNL1        0.0462
     13 C         -23.2391   -0.8155   30.4400 C.ar    1  UNL1        0.0015
     14 C         -22.0474    0.8840   29.0049 C.3     1  UNL1        0.3462
     15 F         -21.0420    2.4071   27.7087 F       1  UNL1       -0.1724
     16 F         -22.2227    2.5894   28.6170 F       1  UNL1       -0.1724
     17 O         -21.0512    0.0275   28.8829 O.3     1  UNL1       -0.1692
     18 O         -21.5149    0.9870   30.3678 O.3     1  UNL1       -0.3849
     19 C         -24.3340   -1.7688   30.6116 C.ar    1  UNL1       -0.0000
     20 C         -22.2437    0.6078   31.2597 C.2     1  UNL1        0.5541
     21 O         -22.9018    1.2175   32.0033 O.co2   1  UNL1       -0.1999
     22 O         -21.4992   -0.4845   32.0342 O.co2   1  UNL1       -0.1999
@<TRIPOS>BOND
     1     6     7    1
     2     9    10    1
     3    10    11    2
     4    12    14    1
     5    11    15    1
     6    11    16    1
     7    14    17    1
     8    14    18    1
     9    18    20    1
    10    20    21   ar
    11    20    22   ar
    12     9     8    1
    13     4    19   ar
    14    19    13   ar
    15    13    12   ar
    16    12     8   ar
    17     8     3   ar
    18     1     2   ar
    19     2     3   ar
    20     3     4   ar
    21     4     5   ar
    22     5     6   ar
    23     6     1   ar
