@<TRIPOS>MOLECULE
No_3985-gen_results/8p0m/2024-11-26-14-13-15/
 24 26 0 0 0
SMALL
GASTEIGER

@<TRIPOS>ATOM
      1 C         -28.0162   -0.8135   28.8779 C.ar    1  UNL1        0.0026
      2 C         -28.4690   -0.7850   29.8287 C.ar    1  UNL1        0.0795
      3 C         -27.1356    0.2359   28.5352 C.ar    1  UNL1       -0.0178
      4 C         -26.8745    1.2825   29.3982 C.ar    1  UNL1       -0.0028
      5 C         -27.5070    1.2380   30.6295 C.ar    1  UNL1       -0.0001
      6 C         -29.4093   -1.9436   30.2887 C.2     1  UNL1        0.3877
      7 C         -28.3221    0.1318   30.9672 C.ar    1  UNL1        0.0060
      8 O         -30.3326   -1.8108   29.8340 O.co2   1  UNL1       -0.2406
      9 O         -28.9558   -2.8994   31.0545 O.co2   1  UNL1       -0.2406
     10 C         -26.3947    0.3130   27.2081 C.3     1  UNL1        0.0517
     11 C         -26.3157    1.0871   26.4929 C.2     1  UNL1       -0.0031
     12 C         -26.7755    2.3617   26.7184 C.2     1  UNL1        0.0065
     13 C         -26.6563    2.9770   27.8555 C.2     1  UNL1        0.0572
     14 C         -26.6344    2.6879   29.0103 C.2     1  UNL1        0.0111
     15 C         -25.9702    0.7452   25.0463 C.3     1  UNL1        0.1528
     16 CL        -26.2586    4.7812   27.6052 Cl      1  UNL1       -0.0823
     17 C         -24.5685    0.4086   24.8807 C.3     1  UNL1        0.0483
     18 C         -26.9877   -0.2189   24.5016 C.3     1  UNL1        0.0733
     19 O         -26.2858    1.9550   24.3293 O.2     1  UNL1       -0.4758
     20 C         -27.4596    1.9105   23.6422 C.2     1  UNL1        0.1679
     21 C         -27.8864    0.5495   23.7700 C.2     1  UNL1        0.0178
     22 C         -28.8489    0.0031   32.3185 C.2     1  UNL1       -0.0044
     23 C         -28.6549    0.9154   33.0520 C.2     1  UNL1       -0.0258
     24 C         -27.8228    2.0602   32.7883 C.3     1  UNL1        0.0307
@<TRIPOS>BOND
     1     2     6    1
     2     6     8   ar
     3     6     9   ar
     4     3    10    1
     5    10    11    1
     6    11    12    2
     7    12    13    1
     8     4    14    1
     9    13    14    2
    10    11    15    1
    11    13    16    1
    12    15    17    1
    13    15    18    1
    14    15    19    1
    15    19    20    1
    16    18    21    1
    17    20    21    2
    18     7    22    1
    19    22    23    2
    20    23    24    1
    21     1     2   ar
    22     2     7   ar
    23     7     5   ar
    24     5     4   ar
    25     4     3   ar
    26     3     1   ar
