@<TRIPOS>MOLECULE
No_3986-gen_results/8p0m/2024-11-26-14-13-15/
 16 18 0 0 0
SMALL
GASTEIGER

@<TRIPOS>ATOM
      1 C         -28.0162   -0.8135   28.8779 C.ar    1  UNL1        0.0000
      2 C         -27.0636   -0.1190   28.6079 C.ar    1  UNL1        0.0000
      3 C         -25.7923   -0.4302   29.0761 C.ar    1  UNL1        0.0000
      4 C         -25.5756   -1.5654   29.9363 C.ar    1  UNL1        0.0000
      5 C         -26.7354   -2.3004   30.2173 C.ar    1  UNL1        0.0000
      6 C         -27.9184   -1.9537   29.7629 C.ar    1  UNL1        0.0000
      7 C         -27.1057    1.1023   27.7593 C.ar    1  UNL1        0.0000
      8 C         -27.8576    1.5309   27.2156 C.ar    1  UNL1        0.0000
      9 C         -27.8433    2.7213   26.2861 C.ar    1  UNL1        0.0000
     10 C         -28.9357    3.2862   25.6170 C.ar    1  UNL1        0.0000
     11 C         -30.1399    2.6209   25.6952 C.ar    1  UNL1        0.0000
     12 C         -30.2383    1.4941   26.4532 C.ar    1  UNL1        0.0000
     13 C         -29.2829    0.9986   27.1618 C.ar    1  UNL1        0.0000
     14 C         -25.6092    1.6739   27.6038 C.ar    1  UNL1        0.0000
     15 C         -25.2730    2.0869   26.6234 C.ar    1  UNL1        0.0000
     16 C         -26.4151    3.0892   25.9944 C.ar    1  UNL1        0.0000
@<TRIPOS>BOND
     1     2     7    1
     2     1     2   ar
     3     2     3   ar
     4     3     4   ar
     5     4     5   ar
     6     5     6   ar
     7     6     1   ar
     8     7     8   ar
     9     9    16   ar
    10    16    15   ar
    11    15    14   ar
    12    14     7   ar
    13     8     9   ar
    14     9    10   ar
    15    10    11   ar
    16    11    12   ar
    17    12    13   ar
    18    13     8   ar
