@<TRIPOS>MOLECULE
No_3987-gen_results/8p0m/2024-11-26-14-13-15/
 35 38 0 0 0
SMALL
GASTEIGER

@<TRIPOS>ATOM
      1 C         -28.0162   -0.8135   28.8779 C.ar    1  UNL1        0.0369
      2 C         -27.0636   -0.1190   28.6079 C.ar    1  UNL1        0.0032
      3 C         -25.7647   -0.3897   29.0360 C.ar    1  UNL1        0.0033
      4 C         -25.5296   -1.5302   29.9014 C.ar    1  UNL1        0.0032
      5 C         -26.6888   -2.2893   30.1810 C.ar    1  UNL1        0.0369
      6 C         -27.8727   -1.9508   29.7373 C.ar    1  UNL1        0.1393
      7 C         -24.7078    0.5670   28.7015 C.ar    1  UNL1        0.0390
      8 C         -23.4620    0.2939   29.1741 C.ar    1  UNL1        0.1956
      9 C         -23.2350   -0.9849   29.8468 C.ar    1  UNL1        0.0420
     10 C         -24.2215   -1.8157   30.2673 C.ar    1  UNL1        0.0034
     11 C         -24.8417    1.7300   27.8988 C.ar    1  UNL1        0.0031
     12 C         -25.1219    2.8433   28.4926 C.ar    1  UNL1        0.0001
     13 C         -25.9694    3.6485   28.1281 C.ar    1  UNL1        0.0000
     14 C         -26.3233    3.6128   26.7188 C.ar    1  UNL1        0.0000
     15 C         -25.9529    2.5301   25.9578 C.ar    1  UNL1        0.0000
     16 C         -25.2752    1.5047   26.5615 C.ar    1  UNL1        0.0001
     17 O         -22.5504    1.2033   28.9577 O.3     1  UNL1       -0.2866
     18 O         -28.9795   -2.6936   30.0427 O.3     1  UNL1       -0.4656
     19 C         -30.0766   -2.1015   30.5570 C.3     1  UNL1        0.2915
     20 C         -30.6131   -2.8617   31.6228 C.2     1  UNL1        0.2901
     21 O         -30.2924   -3.8873   31.9568 O.2     1  UNL1       -0.2689
     22 N         -31.7211   -2.2690   32.3377 N.am    1  UNL1       -0.1761
     23 C         -32.2104   -0.9598   32.0961 C.2     1  UNL1        0.0734
     24 C         -31.9367   -0.0473   32.6035 C.2     1  UNL1        0.0166
     25 C         -31.7393    1.0800   32.6249 C.2     1  UNL1        0.0013
     26 C         -31.3643    2.3269   32.8173 C.2     1  UNL1       -0.0003
     27 C         -33.5477   -1.2621   31.4926 C.ar    1  UNL1        0.0153
     28 C         -33.7052   -2.0163   30.5825 C.ar    1  UNL1        0.0013
     29 C         -34.9999   -2.0469   29.8393 C.ar    1  UNL1        0.0000
     30 C         -35.9372   -1.1565   30.2561 C.ar    1  UNL1        0.0000
     31 C         -35.7247   -0.2845   31.2521 C.ar    1  UNL1        0.0000
     32 C         -34.4836   -0.2129   31.8761 C.ar    1  UNL1        0.0013
     33 C         -31.1471    3.5058   32.7791 C.2     1  UNL1       -0.0046
     34 C         -31.8927    4.5384   32.3400 C.2     1  UNL1       -0.0258
     35 C         -33.1861    4.4252   31.9868 C.3     1  UNL1        0.0307
@<TRIPOS>BOND
     1     7    11    1
     2     8    17    1
     3     6    18    1
     4    18    19    1
     5    19    20    1
     6    20    21    2
     7    20    22   am
     8    22    23    1
     9    23    24    2
    10    24    25    1
    11    25    26    2
    12    23    27    1
    13    26    33    1
    14    33    34    2
    15    34    35    1
    16    11    12   ar
    17    12    13   ar
    18    13    14   ar
    19    14    15   ar
    20    15    16   ar
    21    16    11   ar
    22     1     2   ar
    23     2     3   ar
    24     4     5   ar
    25     5     6   ar
    26     6     1   ar
    27    27    28   ar
    28    28    29   ar
    29    29    30   ar
    30    30    31   ar
    31    31    32   ar
    32    32    27   ar
    33     3     4   ar
    34     4    10   ar
    35    10     9   ar
    36     9     8   ar
    37     8     7   ar
    38     7     3   ar
