@<TRIPOS>MOLECULE
No_3988-gen_results/8p0m/2024-11-26-14-13-15/
 17 17 0 0 0
SMALL
GASTEIGER

@<TRIPOS>ATOM
      1 C         -28.0162   -0.8135   28.8779 C.3     1  UNL1        0.2704
      2 C         -27.0636   -0.1189   28.6079 C.3     1  UNL1        0.2461
      3 F         -27.0425    0.2440   27.4277 F       1  UNL1       -0.2189
      4 O         -27.8750   -1.6429   29.9472 O.3     1  UNL1       -0.1993
      5 C         -26.9044    1.1856   29.4613 C.3     1  UNL1        0.0785
      6 C         -25.7038    1.7938   29.3948 C.ar    1  UNL1       -0.0221
      7 C         -25.3977    2.9591   29.2497 C.ar    1  UNL1       -0.0044
      8 C         -25.3246    3.5529   28.3188 C.ar    1  UNL1       -0.0003
      9 C         -24.5303    3.0740   27.1606 C.ar    1  UNL1       -0.0003
     10 C         -23.8252    1.8947   27.3692 C.ar    1  UNL1       -0.0046
     11 C         -24.5732    0.8873   28.7269 C.ar    1  UNL1       -0.0263
     12 CL        -25.5440   -1.1553   28.8515 Cl      1  UNL1       -0.0760
     13 C         -23.2568    0.5082   29.4596 C.3     1  UNL1        0.0220
     14 N         -29.2259   -0.5684   28.5259 N.3     1  UNL1       -0.1843
     15 C         -30.4636   -1.1091   29.0024 C.3     1  UNL1        0.1103
     16 C         -23.3876    0.5423   30.7867 C.3     1  UNL1        0.0047
     17 C         -22.2413    0.0193   28.7622 C.3     1  UNL1        0.0047
@<TRIPOS>BOND
     1     1     2    1
     2     2     3    1
     3     1     4    1
     4     2     5    1
     5     5     6    1
     6     2    12    1
     7    11    13    1
     8     1    14    1
     9    14    15    1
    10    13    16    1
    11    13    17    1
    12     6     7   ar
    13     7     8   ar
    14     8     9   ar
    15     9    10   ar
    16    10    11   ar
    17    11     6   ar
