@<TRIPOS>MOLECULE
No_3989-gen_results/8p0m/2024-11-26-14-13-15/
 33 35 0 0 0
SMALL
GASTEIGER

@<TRIPOS>ATOM
      1 C         -28.0162   -0.8135   28.8779 C.ar    1  UNL1        0.0065
      2 C         -28.4690   -0.7850   29.8287 C.ar    1  UNL1        0.0797
      3 C         -28.1816    0.4277   28.1134 C.ar    1  UNL1        0.0041
      4 C         -28.9841    1.4155   28.5154 C.ar    1  UNL1        0.0038
      5 C         -28.3375   -2.0481   30.7873 C.2     1  UNL1        0.3877
      6 C         -29.5615    1.2930   29.7416 C.ar    1  UNL1        0.0716
      7 C         -29.3196    0.1647   30.4451 C.ar    1  UNL1        0.0104
      8 O         -27.3512   -2.1149   31.3659 O.co2   1  UNL1       -0.2406
      9 O         -29.4094   -2.7706   31.0107 O.co2   1  UNL1       -0.2406
     10 C         -27.4315    0.5025   26.7557 C.2     1  UNL1        0.0714
     11 C         -26.4387    0.8950   26.5779 C.2     1  UNL1        0.0039
     12 C         -25.5362    1.4210   27.6848 C.ar    1  UNL1       -0.0001
     13 C         -24.1984    1.8587   27.4015 C.ar    1  UNL1       -0.0000
     14 C         -23.2417    2.1764   28.3828 C.ar    1  UNL1       -0.0000
     15 C         -23.6397    1.8783   29.7147 C.ar    1  UNL1       -0.0000
     16 C         -24.9017    1.4843   30.0300 C.ar    1  UNL1       -0.0000
     17 C         -25.8124    1.1529   29.0217 C.ar    1  UNL1       -0.0000
     18 C         -25.2537    1.3518   31.4771 C.2     1  UNL1       -0.0000
     19 C         -26.0363    0.6343   32.0430 C.2     1  UNL1        0.0000
     20 C         -26.3512    0.6609   33.4296 C.ar    1  UNL1        0.0000
     21 C         -26.8943    1.5242   33.9635 C.ar    1  UNL1        0.0000
     22 C         -27.1826    1.5703   35.3886 C.ar    1  UNL1        0.0000
     23 C         -26.9015    0.4390   36.1031 C.ar    1  UNL1        0.0000
     24 C         -25.8662   -0.5192   34.2350 C.ar    1  UNL1        0.0000
     25 C         -26.1814   -0.5818   35.5544 C.ar    1  UNL1        0.0000
     26 C         -28.4014    0.2085   25.6642 C.3     1  UNL1        0.4186
     27 F         -29.1663   -0.6353   25.7749 F       1  UNL1       -0.1659
     28 F         -27.6203    0.0425   24.5136 F       1  UNL1       -0.1659
     29 F         -29.0541    1.4293   25.3923 F       1  UNL1       -0.1659
     30 C         -30.4352    2.3868   30.2205 C.3     1  UNL1        0.4186
     31 F         -31.3746    2.1491   30.6789 F       1  UNL1       -0.1659
     32 F         -30.6097    3.3354   29.2250 F       1  UNL1       -0.1659
     33 F         -29.5861    3.0702   31.1379 F       1  UNL1       -0.1659
@<TRIPOS>BOND
     1     2     5    1
     2     5     8   ar
     3     5     9   ar
     4     3    10    1
     5    10    11    2
     6    11    12    1
     7    16    18    1
     8    18    19    2
     9    19    20    1
    10    10    26    1
    11    26    27    1
    12    26    28    1
    13    26    29    1
    14     6    30    1
    15    30    31    1
    16    30    32    1
    17    30    33    1
    18    12    13   ar
    19    13    14   ar
    20    14    15   ar
    21    15    16   ar
    22    16    17   ar
    23    17    12   ar
    24    20    21   ar
    25    21    22   ar
    26    22    23   ar
    27    23    25   ar
    28    25    24   ar
    29    24    20   ar
    30     1     2   ar
    31     2     7   ar
    32     7     6   ar
    33     6     4   ar
    34     4     3   ar
    35     3     1   ar
