@<TRIPOS>MOLECULE
No_399-gen_results/8p0m/2024-11-26-14-13-15/
 19 21 0 0 0
SMALL
GASTEIGER

@<TRIPOS>ATOM
      1 C         -28.0162   -0.8135   28.8779 C.ar    1  UNL1       -0.0036
      2 C         -28.4690   -0.7850   29.8287 C.ar    1  UNL1       -0.0003
      3 C         -28.1816    0.4277   28.1134 C.ar    1  UNL1       -0.0143
      4 C         -27.4498    0.6435   26.8500 C.3     1  UNL1        0.0664
      5 C         -26.1815    0.0357   26.7145 C.2     1  UNL1       -0.0177
      6 C         -25.2987    0.1871   27.5499 C.2     1  UNL1       -0.0036
      7 C         -23.9032    0.2113   27.2890 C.2     1  UNL1       -0.0003
      8 C         -23.0352    0.1096   28.5071 C.2     1  UNL1       -0.0000
      9 C         -23.6163   -0.1343   29.7558 C.2     1  UNL1       -0.0000
     10 C         -25.4033   -0.1633   29.0646 C.2     1  UNL1       -0.0003
     11 C         -29.5205    0.0783   30.3375 C.ar    1  UNL1       -0.0000
     12 C         -29.1428    1.3007   28.4903 C.ar    1  UNL1       -0.0036
     13 C         -29.7789    1.1472   29.6411 C.ar    1  UNL1       -0.0003
     14 C         -28.0759    1.4117   25.8511 C.ar    1  UNL1       -0.0143
     15 C         -29.3162    0.9753   25.3230 C.ar    1  UNL1       -0.0036
     16 C         -29.8491    1.6796   24.3821 C.ar    1  UNL1       -0.0003
     17 C         -27.5060    2.5735   25.4675 C.ar    1  UNL1       -0.0036
     18 C         -28.1242    3.3970   24.5286 C.ar    1  UNL1       -0.0003
     19 C         -29.3204    2.9490   23.9941 C.ar    1  UNL1       -0.0000
@<TRIPOS>BOND
     1     3     4    1
     2     4     5    1
     3     5     6    2
     4     6     7    1
     5     7     8    2
     6     8     9    1
     7     6    10    1
     8     9    10    2
     9     4    14    1
    10     1     2   ar
    11     2    11   ar
    12    11    13   ar
    13    13    12   ar
    14    12     3   ar
    15     3     1   ar
    16    14    15   ar
    17    15    16   ar
    18    16    19   ar
    19    19    18   ar
    20    18    17   ar
    21    17    14   ar
