@<TRIPOS>MOLECULE
No_3991-gen_results/8p0m/2024-11-26-14-13-15/
 16 16 0 0 0
SMALL
GASTEIGER

@<TRIPOS>ATOM
      1 C         -28.0162   -0.8135   28.8779 C.ar    1  UNL1        0.0111
      2 C         -28.4690   -0.7850   29.8287 C.ar    1  UNL1        0.0008
      3 C         -26.5455   -0.8762   28.8500 C.ar    1  UNL1        0.0540
      4 C         -25.8041   -1.0324   30.0571 C.ar    1  UNL1       -0.0072
      5 C         -26.5373   -1.0386   31.2171 C.ar    1  UNL1       -0.0031
      6 C         -27.8843   -0.9532   31.1862 C.ar    1  UNL1       -0.0003
      7 C         -24.3655   -1.1134   30.0483 C.3     1  UNL1        0.0532
      8 C         -23.6925    0.1188   29.9185 C.2     1  UNL1       -0.0214
      9 C         -23.1776    0.5817   28.7884 C.2     1  UNL1       -0.0042
     10 C         -23.0437    1.5120   28.0903 C.2     1  UNL1       -0.0003
     11 C         -22.2305    1.6536   26.8893 C.2     1  UNL1       -0.0003
     12 CL        -25.6199   -0.8325   27.3972 Cl      1  UNL1       -0.0826
     13 C         -22.3970    1.6348   25.8500 C.2     1  UNL1       -0.0046
     14 C         -23.7505    1.7058   25.2762 C.2     1  UNL1       -0.0261
     15 C         -24.7519    2.0089   26.2126 C.3     1  UNL1        0.0260
     16 C         -26.0862    2.3347   25.9914 C.3     1  UNL1        0.0050
@<TRIPOS>BOND
     1     4     7    1
     2     7     8    1
     3     8     9    2
     4     9    10    1
     5    10    11    2
     6     3    12    1
     7    11    13    1
     8    13    14    2
     9    14    15    1
    10    15    16    1
    11     1     2   ar
    12     2     6   ar
    13     6     5   ar
    14     5     4   ar
    15     4     3   ar
    16     3     1   ar
