@<TRIPOS>MOLECULE
No_3992-gen_results/8p0m/2024-11-26-14-13-15/
 23 23 0 0 0
SMALL
GASTEIGER

@<TRIPOS>ATOM
      1 C         -28.0162   -0.8135   28.8779 C.ar    1  UNL1        0.0111
      2 C         -28.4690   -0.7850   29.8287 C.ar    1  UNL1        0.0008
      3 C         -26.5455   -0.8762   28.8500 C.ar    1  UNL1        0.0537
      4 C         -25.8041   -1.0324   30.0571 C.ar    1  UNL1       -0.0113
      5 C         -26.5373   -1.0386   31.2171 C.ar    1  UNL1       -0.0034
      6 C         -27.8843   -0.9532   31.1862 C.ar    1  UNL1       -0.0003
      7 C         -24.3655   -1.1134   30.0483 C.3     1  UNL1        0.0319
      8 C         -23.6925    0.1188   29.9185 C.3     1  UNL1        0.0304
      9 C         -23.9863    1.2743   30.4522 C.3     1  UNL1        0.0304
     10 C         -22.4570    0.1164   29.0535 C.2     1  UNL1       -0.0303
     11 C         -21.9636    1.2534   28.4456 C.2     1  UNL1       -0.0303
     12 C         -25.1877    1.3503   31.3303 C.2     1  UNL1       -0.0302
     13 C         -25.4440    2.7169   31.8947 C.2     1  UNL1       -0.0250
     14 C         -24.6613    3.7687   31.5441 C.3     1  UNL1        0.0941
     15 C         -24.9684    5.0289   32.2042 C.3     1  UNL1        0.2875
     16 C         -24.3482    6.2210   31.7342 C.3     1  UNL1        0.1788
     17 CL        -25.6242   -0.8039   27.3935 Cl      1  UNL1       -0.0826
     18 C         -21.0466    1.1863   27.4578 C.3     1  UNL1        0.0303
     19 F         -24.7290    5.0118   33.6102 F       1  UNL1       -0.2020
     20 F         -26.3246    5.1999   32.0815 F       1  UNL1       -0.2020
     21 N         -23.4291    6.7956   32.4701 N.pl3   1  UNL1       -0.2305
     22 C         -22.7474    8.0060   32.1698 C.2     1  UNL1        0.0803
     23 C         -21.6922    8.4531   33.0449 C.2     1  UNL1        0.0188
@<TRIPOS>BOND
     1     4     7    1
     2     7     8    1
     3     8     9    1
     4     8    10    1
     5    10    11    2
     6     9    12    1
     7    12    13    2
     8    13    14    1
     9    14    15    1
    10    15    16    1
    11     3    17    1
    12    11    18    1
    13    15    19    1
    14    15    20    1
    15    16    21    1
    16    21    22    1
    17    22    23    2
    18     1     2   ar
    19     2     6   ar
    20     6     5   ar
    21     5     4   ar
    22     4     3   ar
    23     3     1   ar
