@<TRIPOS>MOLECULE
No_3993-gen_results/8p0m/2024-11-26-14-13-15/
 11 12 0 0 0
SMALL
GASTEIGER

@<TRIPOS>ATOM
      1 CL        -28.1493   -0.8198   28.9079 Cl      1  UNL1       -0.0822
      2 C         -26.9116   -0.0797   28.9452 C.ar    1  UNL1        0.0576
      3 C         -26.7384    1.0439   29.2534 C.ar    1  UNL1        0.0106
      4 C         -27.8546    1.8906   29.5550 C.ar    1  UNL1        0.0008
      5 C         -27.7153    3.2169   29.9194 C.ar    1  UNL1        0.0000
      6 C         -26.3931    3.7972   29.9327 C.ar    1  UNL1        0.0000
      7 C         -25.2601    2.9864   29.5933 C.ar    1  UNL1        0.0000
      8 C         -25.4493    1.6785   29.3037 C.ar    1  UNL1        0.0008
      9 C         -25.6286   -0.8934   28.5370 C.ar    1  UNL1        0.0114
     10 C         -24.4121   -0.3445   28.3560 C.ar    1  UNL1        0.0009
     11 C         -24.2183    1.0019   28.8549 C.ar    1  UNL1        0.0001
@<TRIPOS>BOND
     1     1     2    1
     2     2     3   ar
     3     8    11   ar
     4    11    10   ar
     5    10     9   ar
     6     9     2   ar
     7     3     4   ar
     8     4     5   ar
     9     5     6   ar
    10     6     7   ar
    11     7     8   ar
    12     8     3   ar
