@<TRIPOS>MOLECULE
No_3994-gen_results/8p0m/2024-11-26-14-13-15/
 17 17 0 0 0
SMALL
GASTEIGER

@<TRIPOS>ATOM
      1 C         -28.0162   -0.8135   28.8779 C.3     1  UNL1        0.1160
      2 C         -27.0636   -0.1189   28.6079 C.ar    1  UNL1       -0.0048
      3 C         -25.7923   -0.4302   29.0761 C.ar    1  UNL1       -0.0027
      4 C         -24.5456    0.3494   28.8225 C.ar    1  UNL1        0.0036
      5 C         -24.6586    1.4196   27.8878 C.ar    1  UNL1        0.0475
      6 C         -25.9471    1.6811   27.3792 C.ar    1  UNL1        0.0036
      7 C         -27.0439    0.9739   27.6871 C.ar    1  UNL1       -0.0027
      8 N         -28.6643   -0.5274   30.1017 N.3     1  UNL1       -0.1965
      9 CA        -29.6153   -1.2473   30.6541 C.3     1  UNL1        0.2409
     10 C         -30.1339   -2.2836   30.0191 C.2     1  UNL1        0.3879
     11 O         -30.9750   -2.2961   29.3592 O.co2   1  UNL1       -0.2436
     12 O         -29.5125   -3.4882   30.3177 O.co2   1  UNL1       -0.2436
     13 C         -23.4465    2.1618   27.6100 C.2     1  UNL1        0.2416
     14 N         -22.2512    1.7276   28.0927 N.2     1  UNL1       -0.1156
     15 F         -23.5172    3.0012   26.7010 F       1  UNL1       -0.1815
     16 C         -30.1765   -0.7990   31.9749 C.2     1  UNL1        0.2361
     17 O         -30.9978   -1.1925   32.4862 O.2     1  UNL1       -0.2861
@<TRIPOS>BOND
     1     1     2    1
     2     1     8    1
     3     8     9    1
     4     9    10    1
     5    10    11   ar
     6    10    12   ar
     7     5    13    1
     8    13    14    2
     9    13    15    1
    10     9    16    1
    11    16    17    2
    12     2     3   ar
    13     3     4   ar
    14     4     5   ar
    15     5     6   ar
    16     6     7   ar
    17     7     2   ar
