@<TRIPOS>MOLECULE
No_3996-gen_results/8p0m/2024-11-26-14-13-15/
 13 13 0 0 0
SMALL
GASTEIGER

@<TRIPOS>ATOM
      1 C         -28.0162   -0.8135   28.8779 C.ar    1  UNL1        0.0375
      2 C         -27.0636   -0.1190   28.6079 C.ar    1  UNL1        0.1448
      3 C         -26.9287    1.1713   29.0083 C.ar    1  UNL1        0.0375
      4 C         -27.9560    1.7411   29.7840 C.ar    1  UNL1        0.0031
      5 C         -29.0569   -0.3271   29.7466 C.ar    1  UNL1        0.0031
      6 C         -28.9828    0.9722   30.1516 C.ar    1  UNL1        0.0002
      7 O         -25.9911   -0.6119   27.8566 O.3     1  UNL1       -0.4578
      8 C         -24.9038   -1.1483   28.5775 C.2     1  UNL1        0.1232
      9 C         -23.7733   -0.9238   28.7488 C.2     1  UNL1        0.0326
     10 C         -25.2670   -2.5528   29.1249 C.3     1  UNL1        0.0725
     11 C         -23.1847    0.4310   28.3210 C.2     1  UNL1       -0.0018
     12 C         -21.8336    0.7493   28.5075 C.2     1  UNL1       -0.0257
     13 C         -21.0269   -0.3088   28.9753 C.3     1  UNL1        0.0307
@<TRIPOS>BOND
     1     2     7    1
     2     7     8    1
     3     8     9    2
     4     8    10    1
     5     9    11    1
     6    11    12    2
     7    12    13    1
     8     1     2   ar
     9     2     3   ar
    10     3     4   ar
    11     4     6   ar
    12     6     5   ar
    13     5     1   ar
