@<TRIPOS>MOLECULE
No_3997-gen_results/8p0m/2024-11-26-14-13-15/
 19 19 0 0 0
SMALL
GASTEIGER

@<TRIPOS>ATOM
      1 CL        -28.1493   -0.8198   28.9079 Cl      1  UNL1       -0.0408
      2 C         -28.5324   -0.0471   29.7727 C.3     1  UNL1        0.3684
      3 F         -27.6515    0.7172   30.3086 F       1  UNL1       -0.1807
      4 C         -29.6789    0.8470   29.3357 C.2     1  UNL1        0.1682
      5 F         -28.9713   -0.6705   31.0034 F       1  UNL1       -0.1807
      6 N         -30.2598    1.4925   29.9812 N.2     1  UNL1       -0.2650
      7 C         -29.9527    0.7697   27.8915 C.2     1  UNL1        0.2151
      8 C         -29.1712    1.4694   26.9915 C.ar    1  UNL1        0.0404
      9 C         -28.1087    2.1356   27.4445 C.ar    1  UNL1        0.0032
     10 C         -27.1391    2.7528   26.4795 C.ar    1  UNL1        0.0001
     11 C         -27.4457    2.5379   25.0925 C.ar    1  UNL1        0.0000
     12 C         -28.4712    1.8708   24.6500 C.ar    1  UNL1        0.0001
     13 C         -29.2957    1.2613   25.5895 C.ar    1  UNL1        0.0032
     14 O         -30.9696    0.0758   27.5025 O.2     1  UNL1       -0.2851
     15 C         -30.7314    2.5110   30.1861 C.3     1  UNL1        0.1301
     16 C         -30.5322    3.5199   29.3269 C.3     1  UNL1        0.0520
     17 C         -29.9066    4.6034   29.5100 C.2     1  UNL1       -0.0286
     18 C         -29.4313    4.8536   30.8646 C.2     1  UNL1       -0.0303
     19 C         -28.6539    5.9840   31.1990 C.3     1  UNL1        0.0303
@<TRIPOS>BOND
     1     1     2    1
     2     2     3    1
     3     2     4    1
     4     2     5    1
     5     4     6    2
     6     4     7    1
     7     7     8    1
     8     7    14    2
     9     6    15    1
    10    15    16    1
    11    16    17    1
    12    17    18    2
    13    18    19    1
    14     8     9   ar
    15     9    10   ar
    16    10    11   ar
    17    11    12   ar
    18    12    13   ar
    19    13     8   ar
