@<TRIPOS>MOLECULE
No_3998-gen_results/8p0m/2024-11-26-14-13-15/
 16 16 0 0 0
SMALL
GASTEIGER

@<TRIPOS>ATOM
      1 O         -28.1229   -1.3353   28.4874 O.2     1  UNL1       -0.2726
      2 C         -27.4806   -0.4044   28.7094 C.2     1  UNL1        0.2500
      3 C         -26.3804   -0.0867   27.9395 C.3     1  UNL1        0.1135
      4 N         -27.6664    0.4468   29.8988 N.am    1  UNL1       -0.1776
      5 C         -25.1773   -0.4388   28.3946 C.ar    1  UNL1       -0.0130
      6 C         -23.9281   -0.2469   27.6677 C.ar    1  UNL1       -0.0038
      7 C         -22.6979   -0.4046   28.4363 C.ar    1  UNL1       -0.0003
      8 C         -22.7943   -1.0875   29.7065 C.ar    1  UNL1       -0.0000
      9 C         -23.9663   -1.4068   30.3034 C.ar    1  UNL1       -0.0003
     10 C         -25.1322   -1.0549   29.7159 C.ar    1  UNL1       -0.0038
     11 C         -28.7610    0.1969   30.7687 C.2     1  UNL1        0.0886
     12 C         -29.6827   -0.3441   30.5684 C.2     1  UNL1        0.0179
     13 C         -30.8209   -0.5111   31.5051 C.2     1  UNL1        0.0014
     14 C         -31.9488   -1.2862   31.2681 C.2     1  UNL1        0.0000
     15 C         -32.0414   -1.9341   30.0089 C.2     1  UNL1        0.0000
     16 C         -31.0422   -1.8457   29.0747 C.2     1  UNL1        0.0000
@<TRIPOS>BOND
     1     1     2    2
     2     2     3    1
     3     2     4   am
     4     4    11    1
     5    11    12    2
     6    12    13    1
     7    13    14    2
     8    14    15    1
     9    15    16    2
    10     3     5    1
    11     5     6   ar
    12     6     7   ar
    13     7     8   ar
    14     8     9   ar
    15     9    10   ar
    16    10     5   ar
