@<TRIPOS>MOLECULE
No_3999-gen_results/8p0m/2024-11-26-14-13-15/
 20 22 0 0 0
SMALL
GASTEIGER

@<TRIPOS>ATOM
      1 C         -28.0162   -0.8135   28.8779 C.ar    1  UNL1        0.0441
      2 C         -28.4690   -0.7850   29.8287 C.ar    1  UNL1        0.0828
      3 C         -27.1356    0.2359   28.5352 C.ar    1  UNL1        0.1455
      4 C         -26.8745    1.2825   29.3982 C.ar    1  UNL1        0.0375
      5 C         -27.5070    1.2380   30.6295 C.ar    1  UNL1        0.0033
      6 C         -28.3293    0.1745   30.9350 C.ar    1  UNL1        0.0068
      7 O         -26.4668    0.2796   27.3235 O.3     1  UNL1       -0.4535
      8 C         -25.1188    0.3387   27.3473 C.ar    1  UNL1        0.1452
      9 C         -24.5156    1.4514   26.6447 C.ar    1  UNL1        0.0346
     10 C         -25.0417    2.3994   26.0011 C.ar    1  UNL1        0.0030
     11 C         -24.2295    3.5823   25.6678 C.ar    1  UNL1        0.0001
     12 C         -23.0830    1.7552   27.0776 C.ar    1  UNL1        0.0029
     13 C         -22.3756    0.8024   28.0025 C.ar    1  UNL1        0.0002
     14 C         -24.3683   -0.4653   28.2500 C.ar    1  UNL1        0.0375
     15 C         -23.0410   -0.1879   28.5696 C.ar    1  UNL1        0.0031
     16 C         -22.9505    3.7672   25.9431 C.ar    1  UNL1        0.0000
     17 C         -22.3675    2.8546   26.6752 C.ar    1  UNL1        0.0001
     18 C         -29.4012   -2.0156   30.3221 C.2     1  UNL1        0.3879
     19 O         -29.2938   -2.6230   31.2232 O.co2   1  UNL1       -0.2406
     20 O         -30.1880   -2.3866   29.2803 O.co2   1  UNL1       -0.2406
@<TRIPOS>BOND
     1     3     7    1
     2     7     8    1
     3     2    18    1
     4    18    19   ar
     5    18    20   ar
     6     1     2   ar
     7     2     6   ar
     8     6     5   ar
     9     5     4   ar
    10     4     3   ar
    11     3     1   ar
    12     8     9   ar
    13    12    13   ar
    14    13    15   ar
    15    15    14   ar
    16    14     8   ar
    17     9    10   ar
    18    10    11   ar
    19    11    16   ar
    20    16    17   ar
    21    17    12   ar
    22    12     9   ar
