@<TRIPOS>MOLECULE
No_4-gen_results/8p0m/2024-11-26-14-13-15/
 14 15 0 0 0
SMALL
GASTEIGER

@<TRIPOS>ATOM
      1 O         -28.1229   -1.3353   28.4874 O.2     1  UNL1       -0.2730
      2 C         -27.0637   -0.8242   28.8687 C.2     1  UNL1        0.2450
      3 C         -26.4017   -0.0623   28.6224 C.3     1  UNL1        0.1001
      4 N         -26.3805   -1.7991   29.9619 N.am    1  UNL1       -0.2052
      5 C         -26.7771    1.0571   27.7896 C.ar    1  UNL1       -0.0178
      6 C         -27.7401    1.4787   27.6544 C.ar    1  UNL1       -0.0041
      7 C         -28.0869    2.5845   26.6424 C.ar    1  UNL1       -0.0003
      8 C         -27.0174    3.1086   25.9247 C.ar    1  UNL1       -0.0003
      9 C         -25.7358    2.6082   26.0838 C.ar    1  UNL1       -0.0046
     10 C         -25.5045    1.6396   27.0051 C.ar    1  UNL1       -0.0254
     11 C         -25.2135   -1.8324   30.1087 C.3     1  UNL1        0.1152
     12 C         -24.3411   -0.8343   29.7910 C.3     1  UNL1        0.0243
     13 C         -24.8204    0.0967   28.9968 C.3     1  UNL1        0.0154
     14 C         -24.1857    1.2296   27.2581 C.3     1  UNL1        0.0307
@<TRIPOS>BOND
     1     1     2    2
     2     2     3    1
     3     2     4   am
     4     3     5    1
     5    11    12    1
     6     3    13    1
     7    10    14    1
     8    13    12    1
     9    11     4    1
    10     5     6   ar
    11     6     7   ar
    12     7     8   ar
    13     8     9   ar
    14     9    10   ar
    15    10     5   ar
