@<TRIPOS>MOLECULE
No_40-gen_results/8p0m/2024-11-26-14-13-15/
 14 15 0 0 0
SMALL
GASTEIGER

@<TRIPOS>ATOM
      1 C         -28.0162   -0.8135   28.8779 C.1     1  UNL1       -0.0597
      2 C         -28.4690   -0.7850   29.8287 C.1     1  UNL1       -0.0597
      3 C         -27.2166   -0.0832   27.9639 C.ar    1  UNL1        0.0420
      4 C         -26.5094   -0.3500   26.9456 C.ar    1  UNL1        0.0082
      5 C         -25.8221    0.6874   26.0575 C.ar    1  UNL1        0.0006
      6 C         -25.4640    1.5136   26.5058 C.ar    1  UNL1        0.0000
      7 C         -25.8991    2.1115   27.7469 C.ar    1  UNL1        0.0006
      8 C         -26.6964    1.2230   28.4855 C.ar    1  UNL1        0.0082
      9 C         -29.2312   -1.2793   30.6845 C.ar    1  UNL1        0.0420
     10 C         -29.6835   -2.5773   30.3745 C.ar    1  UNL1        0.0082
     11 C         -30.7410   -3.1651   30.9921 C.ar    1  UNL1        0.0006
     12 C         -31.2777   -2.5813   32.0999 C.ar    1  UNL1        0.0000
     13 C         -30.8855   -1.3617   32.5405 C.ar    1  UNL1        0.0006
     14 C         -29.9145   -0.6710   31.7987 C.ar    1  UNL1        0.0082
@<TRIPOS>BOND
     1     1     2    3
     2     1     3    1
     3     2     9    1
     4     3     4   ar
     5     4     5   ar
     6     5     6   ar
     7     6     7   ar
     8     7     8   ar
     9     8     3   ar
    10     9    10   ar
    11    10    11   ar
    12    11    12   ar
    13    12    13   ar
    14    13    14   ar
    15    14     9   ar
