@<TRIPOS>MOLECULE
No_400-gen_results/8p0m/2024-11-26-14-13-15/
 13 14 0 0 0
SMALL
GASTEIGER

@<TRIPOS>ATOM
      1 C         -28.0162   -0.8135   28.8779 C.ar    1  UNL1       -0.0039
      2 C         -28.4690   -0.7850   29.8287 C.ar    1  UNL1       -0.0003
      3 C         -27.1356    0.2359   28.5352 C.ar    1  UNL1       -0.0178
      4 C         -26.8745    1.2825   29.3982 C.ar    1  UNL1       -0.0039
      5 C         -27.5070    1.2380   30.6295 C.ar    1  UNL1       -0.0003
      6 C         -28.3269    0.1637   30.9240 C.ar    1  UNL1       -0.0000
      7 C         -26.4007    0.2985   27.2217 C.3     1  UNL1        0.0526
      8 C         -25.1837    0.2398   27.2131 C.ar    1  UNL1       -0.0178
      9 C         -24.3205    0.1796   28.3831 C.ar    1  UNL1       -0.0039
     10 C         -23.0232    0.7441   28.3541 C.ar    1  UNL1       -0.0003
     11 C         -22.6278    1.5628   27.2614 C.ar    1  UNL1       -0.0000
     12 C         -23.4807    1.7444   26.1964 C.ar    1  UNL1       -0.0003
     13 C         -24.6727    1.1818   26.1359 C.ar    1  UNL1       -0.0039
@<TRIPOS>BOND
     1     3     7    1
     2     7     8    1
     3     1     2   ar
     4     2     6   ar
     5     6     5   ar
     6     5     4   ar
     7     4     3   ar
     8     3     1   ar
     9     8     9   ar
    10     9    10   ar
    11    10    11   ar
    12    11    12   ar
    13    12    13   ar
    14    13     8   ar
