@<TRIPOS>MOLECULE
No_4002-gen_results/8p0m/2024-11-26-14-13-15/
 15 16 0 0 0
SMALL
GASTEIGER

@<TRIPOS>ATOM
      1 C         -28.0162   -0.8135   28.8779 C.ar    1  UNL1        0.0000
      2 C         -28.4690   -0.7850   29.8287 C.ar    1  UNL1        0.0002
      3 C         -28.1960    0.3478   28.0550 C.ar    1  UNL1        0.0002
      4 C         -27.4421    0.5100   26.7946 C.ar    1  UNL1        0.0000
      5 C         -27.8427    1.3330   25.8056 C.ar    1  UNL1        0.0000
      6 C         -29.4956    0.1092   30.3452 C.ar    1  UNL1        0.0066
      7 C         -29.7284    1.1870   29.5687 C.ar    1  UNL1        0.0798
      8 C         -29.0420    1.3665   28.3718 C.ar    1  UNL1        0.0066
      9 C         -26.1281   -0.0671   26.6257 C.ar    1  UNL1        0.0000
     10 C         -25.3186    0.2592   25.5799 C.ar    1  UNL1        0.0000
     11 C         -27.2141    1.4352   24.5156 C.ar    1  UNL1        0.0000
     12 C         -25.8810    0.8897   24.5015 C.ar    1  UNL1        0.0000
     13 C         -30.7865    2.1297   29.7822 C.2     1  UNL1        0.3878
     14 O         -31.4353    2.1769   30.7590 O.co2   1  UNL1       -0.2406
     15 O         -30.7054    3.2197   29.0502 O.co2   1  UNL1       -0.2406
@<TRIPOS>BOND
     1     3     4    1
     2     7    13    1
     3    13    14   ar
     4    13    15   ar
     5     4     5   ar
     6     5    11   ar
     7    11    12   ar
     8    12    10   ar
     9    10     9   ar
    10     9     4   ar
    11     1     2   ar
    12     2     6   ar
    13     6     7   ar
    14     7     8   ar
    15     8     3   ar
    16     3     1   ar
