@<TRIPOS>MOLECULE
No_4003-gen_results/8p0m/2024-11-26-14-13-15/
 30 32 0 0 0
SMALL
GASTEIGER

@<TRIPOS>ATOM
      1 C         -28.0162   -0.8135   28.8779 C.ar    1  UNL1        0.0064
      2 C         -27.0636   -0.1189   28.6079 C.ar    1  UNL1        0.0004
      3 C         -27.0010    0.6913   27.4910 C.ar    1  UNL1        0.0005
      4 C         -27.1778    1.9037   27.5632 C.ar    1  UNL1        0.0067
      5 C         -28.0594   -1.3960   30.2136 C.ar    1  UNL1        0.0760
      6 C         -26.8947   -1.6080   30.9179 C.ar    1  UNL1        0.0130
      7 C         -25.7839   -0.2253   29.3757 C.ar    1  UNL1        0.0064
      8 C         -25.7520   -0.9581   30.5315 C.ar    1  UNL1        0.0800
      9 C         -27.1170    2.7946   26.3619 C.ar    1  UNL1        0.0346
     10 C         -26.8513    2.2095   25.1238 C.ar    1  UNL1        0.0067
     11 C         -26.6683    0.1690   26.1643 C.ar    1  UNL1        0.0000
     12 C         -26.6112    0.9191   25.0364 C.ar    1  UNL1        0.0005
     13 C         -29.2900   -2.1784   30.6429 C.2     1  UNL1        0.3466
     14 O         -29.2965   -3.3257   30.9491 O.2     1  UNL1       -0.2447
     15 O         -30.4445   -1.6176   30.2502 O.3     1  UNL1       -0.3701
     16 C         -30.8496   -0.5905   30.5721 C.3     1  UNL1        0.5774
     17 F         -30.1542    0.1020   31.3202 F       1  UNL1       -0.1328
     18 F         -32.0701   -0.7211   31.1750 F       1  UNL1       -0.1328
     19 F         -31.1399    0.1670   29.3947 F       1  UNL1       -0.1328
     20 C         -24.5687    0.4876   28.9567 C.ar    1  UNL1        0.0010
     21 C         -23.3743   -0.1862   28.9503 C.ar    1  UNL1        0.0114
     22 C         -22.1518    0.4682   28.6273 C.ar    1  UNL1        0.0577
     23 C         -22.1369    1.6296   27.8927 C.ar    1  UNL1        0.0114
     24 C         -24.5741    1.8498   28.4163 C.ar    1  UNL1        0.0001
     25 C         -23.3087    2.4281   28.0006 C.ar    1  UNL1        0.0009
     26 CL        -20.6975   -0.4465   28.6006 Cl      1  UNL1       -0.0822
     27 BR        -27.4816    4.6600   26.5442 Br      1  UNL1       -0.0490
     28 C         -24.5577   -1.0606   31.3949 C.2     1  UNL1        0.3878
     29 O         -24.7081   -0.6143   32.5913 O.co2   1  UNL1       -0.2406
     30 O         -23.7363   -2.0991   31.2368 O.co2   1  UNL1       -0.2406
@<TRIPOS>BOND
     1     2     3    1
     2     5    13    1
     3    13    14    2
     4    13    15    1
     5    15    16    1
     6    16    17    1
     7    16    18    1
     8    16    19    1
     9     7    20    1
    10    22    26    1
    11     9    27    1
    12     8    28    1
    13    28    29   ar
    14    28    30   ar
    15     1     2   ar
    16     2     7   ar
    17     7     8   ar
    18     8     6   ar
    19     6     5   ar
    20     5     1   ar
    21    20    21   ar
    22    21    22   ar
    23    22    23   ar
    24    23    25   ar
    25    25    24   ar
    26    24    20   ar
    27     3     4   ar
    28     4     9   ar
    29     9    10   ar
    30    10    12   ar
    31    12    11   ar
    32    11     3   ar
