@<TRIPOS>MOLECULE
No_4004-gen_results/8p0m/2024-11-26-14-13-15/
 35 35 0 0 0
SMALL
GASTEIGER

@<TRIPOS>ATOM
      1 C         -28.0162   -0.8135   28.8779 C.ar    1  UNL1        0.0103
      2 C         -28.4690   -0.7850   29.8287 C.ar    1  UNL1        0.0755
      3 C         -28.1816    0.4277   28.1134 C.ar    1  UNL1        0.0715
      4 C         -28.9841    1.4155   28.5154 C.ar    1  UNL1        0.0050
      5 C         -29.3802    0.1384   30.4612 C.ar    1  UNL1        0.0076
      6 C         -29.5415    1.2736   29.7242 C.ar    1  UNL1        0.0437
      7 C         -27.4586    0.4934   26.7701 C.3     1  UNL1        0.4186
      8 F         -26.3677   -0.2536   26.7330 F       1  UNL1       -0.1659
      9 F         -27.0122    1.7725   26.4880 F       1  UNL1       -0.1659
     10 F         -28.3935    0.0974   25.8100 F       1  UNL1       -0.1659
     11 C         -30.4693    2.3145   30.2773 C.3     1  UNL1        0.3410
     12 F         -31.4247    2.4971   29.8083 F       1  UNL1       -0.1933
     13 F         -30.0370    3.0591   31.1057 F       1  UNL1       -0.1933
     14 C         -28.2598   -2.1418   30.7554 C.2     1  UNL1        0.3414
     15 O         -28.0427   -2.2592   31.8001 O.2     1  UNL1       -0.2449
     16 O         -28.4614   -3.3294   30.0106 O.3     1  UNL1       -0.4398
     17 C         -28.0816   -4.4183   30.6519 C.3     1  UNL1        0.2726
     18 C         -29.2875   -5.3607   30.4818 C.3     1  UNL1        0.3137
     19 O         -30.2572   -4.7191   31.0030 O.3     1  UNL1       -0.3187
     20 C         -31.5133   -5.1751   30.8174 C.3     1  UNL1        0.1965
     21 C         -32.4898   -5.2275   31.5962 C.2     1  UNL1        0.1430
     22 C         -32.3855   -4.5098   32.7017 C.2     1  UNL1        0.0019
     23 C         -31.3705   -6.1666   29.6418 C.3     1  UNL1        0.1790
     24 C         -33.5225   -4.3214   33.6695 C.3     1  UNL1        0.0328
     25 C         -30.3188   -5.6249   28.8485 C.3     1  UNL1        0.1818
     26 O         -29.1984   -6.5868   31.1078 O.3     1  UNL1       -0.1857
     27 C         -30.9105   -4.3977   28.3664 C.3     1  UNL1        0.0360
     28 O         -30.0528   -6.2302   27.6186 O.3     1  UNL1       -0.2204
     29 O         -31.0542   -7.4920   30.0036 O.3     1  UNL1       -0.3481
     30 C         -32.2184   -4.4680   27.7591 C.3     1  UNL1        0.0109
     31 C         -32.9297   -3.1848   27.8232 C.3     1  UNL1        0.0723
     32 C         -32.3057   -2.0836   28.1139 C.2     1  UNL1        0.2074
     33 O         -32.8717   -0.9266   28.1570 O.2     1  UNL1       -0.2883
     34 C         -31.9283   -8.5140   29.5361 C.3     1  UNL1        0.1742
     35 F         -32.9757   -6.4034   31.9079 F       1  UNL1       -0.2066
@<TRIPOS>BOND
     1     3     7    1
     2     7     8    1
     3     7     9    1
     4     7    10    1
     5     6    11    1
     6    11    12    1
     7    11    13    1
     8     2    14    1
     9    14    15    2
    10    14    16    1
    11    16    17    1
    12    17    18    1
    13    18    19    1
    14    19    20    1
    15    20    21    1
    16    21    22    2
    17    20    23    1
    18    22    24    1
    19    23    25    1
    20    18    26    1
    21    25    27    1
    22    25    28    1
    23    23    29    1
    24    27    30    1
    25    30    31    1
    26    31    32    1
    27    32    33    2
    28    29    34    1
    29    21    35    1
    30     1     2   ar
    31     2     5   ar
    32     5     6   ar
    33     6     4   ar
    34     4     3   ar
    35     3     1   ar
