@<TRIPOS>MOLECULE
No_4005-gen_results/8p0m/2024-11-26-14-13-15/
 23 25 0 0 0
SMALL
GASTEIGER

@<TRIPOS>ATOM
      1 C         -28.0162   -0.8135   28.8779 C.ar    1  UNL1        0.0369
      2 C         -27.0636   -0.1189   28.6079 C.ar    1  UNL1        0.0031
      3 C         -25.7647   -0.3897   29.0360 C.ar    1  UNL1        0.0002
      4 C         -25.5296   -1.5302   29.9014 C.ar    1  UNL1        0.0031
      5 C         -26.6888   -2.2893   30.1810 C.ar    1  UNL1        0.0369
      6 C         -27.8727   -1.9508   29.7373 C.ar    1  UNL1        0.1386
      7 O         -28.9304   -2.7298   30.1154 O.3     1  UNL1       -0.4751
      8 C         -24.5394    0.4211   28.7421 C.ar    1  UNL1        0.0000
      9 C         -23.3459    0.1143   29.1690 C.ar    1  UNL1        0.0000
     10 C         -22.1936    0.8740   28.7553 C.ar    1  UNL1        0.0000
     11 C         -22.3615    1.8342   27.6952 C.ar    1  UNL1        0.0000
     12 C         -24.5980    1.3584   27.6395 C.ar    1  UNL1        0.0000
     13 C         -23.5460    2.0827   27.2326 C.ar    1  UNL1        0.0000
     14 C         -29.3052   -2.7582   31.4550 C.3     1  UNL1        0.2096
     15 C         -29.8375   -1.7035   31.9533 C.3     1  UNL1        0.0660
     16 C         -30.3716   -0.8035   31.2427 C.ar    1  UNL1       -0.0189
     17 C         -30.3818    0.4773   31.7430 C.ar    1  UNL1       -0.0042
     18 C         -30.8301    1.6534   30.9330 C.ar    1  UNL1       -0.0003
     19 C         -31.3728    1.3701   29.6881 C.ar    1  UNL1       -0.0000
     20 C         -31.4096    0.0711   29.2343 C.ar    1  UNL1       -0.0003
     21 C         -30.8746   -0.9716   29.9689 C.ar    1  UNL1       -0.0042
     22 C         -29.7586   -1.6049   33.4504 C.3     1  UNL1        0.0081
     23 C         -30.9883   -1.7185   34.1355 C.3     1  UNL1        0.0005
@<TRIPOS>BOND
     1     6     7    1
     2     3     8    1
     3     7    14    1
     4    14    15    1
     5    15    16    1
     6    15    22    1
     7    22    23    1
     8     1     2   ar
     9     2     3   ar
    10     3     4   ar
    11     4     5   ar
    12     5     6   ar
    13     6     1   ar
    14    16    17   ar
    15    17    18   ar
    16    18    19   ar
    17    19    20   ar
    18    20    21   ar
    19    21    16   ar
    20     8     9   ar
    21     9    10   ar
    22    10    11   ar
    23    11    13   ar
    24    13    12   ar
    25    12     8   ar
