@<TRIPOS>MOLECULE
No_4006-gen_results/8p0m/2024-11-26-14-13-15/
 22 23 0 0 0
SMALL
GASTEIGER

@<TRIPOS>ATOM
      1 C         -28.0162   -0.8135   28.8779 C.ar    1  UNL1        0.0127
      2 C         -28.4690   -0.7850   29.8287 C.ar    1  UNL1        0.0578
      3 C         -26.5041   -0.7777   28.8766 C.ar    1  UNL1        0.0154
      4 C         -25.8103   -0.8531   30.1028 C.ar    1  UNL1        0.0479
      5 C         -27.9906   -0.8916   31.2257 C.ar    1  UNL1        0.0127
      6 C         -26.6042   -0.8676   31.2652 C.ar    1  UNL1        0.0154
      7 CL        -30.2937   -0.8377   29.8355 Cl      1  UNL1       -0.0822
      8 N         -24.4554   -0.8153   30.1264 N.pl3   1  UNL1       -0.3074
      9 C         -23.8167    0.4686   30.1398 C.3     1  UNL1        0.0732
     10 C         -24.2334    1.5924   30.2447 C.3     1  UNL1        0.0214
     11 C         -22.6929    0.3680   29.0653 C.3     1  UNL1        0.0244
     12 C         -23.8352   -1.6033   31.2241 C.3     1  UNL1        0.1121
     13 C         -22.0882    1.4715   28.4819 C.3     1  UNL1        0.0274
     14 C         -22.7451    1.8665   27.4057 C.2     1  UNL1       -0.0303
     15 C         -24.1124    1.6844   27.0856 C.2     1  UNL1       -0.0260
     16 C         -24.5984    2.1818   25.8428 C.3     1  UNL1        0.0520
     17 C         -25.8953    1.9481   25.4704 C.ar    1  UNL1       -0.0178
     18 C         -26.2314    0.6868   25.1693 C.ar    1  UNL1       -0.0039
     19 C         -27.5195    0.2622   24.7762 C.ar    1  UNL1       -0.0003
     20 C         -28.5034    1.2129   24.6856 C.ar    1  UNL1       -0.0000
     21 C         -28.2427    2.5869   25.0055 C.ar    1  UNL1       -0.0003
     22 C         -26.9437    2.9692   25.3880 C.ar    1  UNL1       -0.0039
@<TRIPOS>BOND
     1     2     7    1
     2     4     8    1
     3     8     9    1
     4     9    10    1
     5     9    11    1
     6     8    12    1
     7    11    13    1
     8    13    14    1
     9    14    15    2
    10    15    16    1
    11    16    17    1
    12    17    18   ar
    13    18    19   ar
    14    19    20   ar
    15    20    21   ar
    16    21    22   ar
    17    22    17   ar
    18     1     2   ar
    19     2     5   ar
    20     5     6   ar
    21     6     4   ar
    22     4     3   ar
    23     3     1   ar
