@<TRIPOS>MOLECULE
No_4007-gen_results/8p0m/2024-11-26-14-13-15/
 12 12 0 0 0
SMALL
GASTEIGER

@<TRIPOS>ATOM
      1 C         -28.0162   -0.8135   28.8779 C.ar    1  UNL1       -0.0039
      2 C         -28.4690   -0.7850   29.8287 C.ar    1  UNL1       -0.0003
      3 C         -27.0871    0.2903   28.6377 C.ar    1  UNL1       -0.0178
      4 C         -26.2516    0.4114   27.4223 C.3     1  UNL1        0.0523
      5 C         -28.3913    0.1041   30.9805 C.ar    1  UNL1       -0.0000
      6 C         -27.5332    1.1666   30.7866 C.ar    1  UNL1       -0.0003
      7 C         -26.8281    1.2557   29.6454 C.ar    1  UNL1       -0.0039
      8 C         -24.9667    0.4106   27.5253 C.2     1  UNL1       -0.0214
      9 C         -24.1553   -0.0215   28.5814 C.2     1  UNL1       -0.0046
     10 C         -22.7568    0.1661   28.5744 C.2     1  UNL1       -0.0049
     11 C         -21.8960   -0.4893   29.4607 C.2     1  UNL1       -0.0258
     12 C         -22.4996   -1.2471   30.4747 C.3     1  UNL1        0.0307
@<TRIPOS>BOND
     1     3     4    1
     2     4     8    1
     3     8     9    2
     4     9    10    1
     5    10    11    2
     6    11    12    1
     7     1     2   ar
     8     2     5   ar
     9     5     6   ar
    10     6     7   ar
    11     7     3   ar
    12     3     1   ar
