@<TRIPOS>MOLECULE
No_4008-gen_results/8p0m/2024-11-26-14-13-15/
 21 22 0 0 0
SMALL
GASTEIGER

@<TRIPOS>ATOM
      1 C         -28.0162   -0.8135   28.8779 C.ar    1  UNL1        0.0369
      2 C         -28.4690   -0.7850   29.8287 C.ar    1  UNL1        0.1391
      3 C         -26.5042   -0.7777   28.8766 C.ar    1  UNL1        0.0030
      4 C         -25.6540   -0.6597   27.7191 C.ar    1  UNL1        0.0002
      5 C         -27.9180   -0.9374   31.1824 C.ar    1  UNL1        0.0369
      6 C         -26.5423   -0.9399   31.2606 C.ar    1  UNL1        0.0031
      7 C         -25.7832   -0.8935   30.1201 C.ar    1  UNL1        0.0003
      8 C         -24.3096   -0.3015   27.8531 C.ar    1  UNL1        0.0046
      9 C         -23.6669   -0.4595   29.0986 C.ar    1  UNL1        0.0567
     10 C         -24.3700   -0.6645   30.2027 C.ar    1  UNL1        0.0046
     11 C         -22.1946   -0.2290   29.1314 C.2     1  UNL1        0.2842
     12 N         -21.2882    0.5666   28.7716 N.am    1  UNL1       -0.0837
     13 O         -21.6347   -1.3705   29.7204 O.2     1  UNL1       -0.2667
     14 O         -29.9242   -0.8672   29.8610 O.3     1  UNL1       -0.4707
     15 C         -30.5426   -0.1061   29.0181 C.3     1  UNL1        0.2318
     16 C         -31.7871    0.3710   29.4166 C.2     1  UNL1        0.0207
     17 C         -32.3268    0.2046   30.4425 C.2     1  UNL1       -0.0009
     18 C         -33.6575    0.7471   30.8593 C.2     1  UNL1       -0.0002
     19 C         -34.2595    0.5634   32.1089 C.2     1  UNL1       -0.0000
     20 C         -33.5140   -0.2716   33.0106 C.2     1  UNL1       -0.0000
     21 C         -32.3142   -0.8393   32.7344 C.2     1  UNL1       -0.0000
@<TRIPOS>BOND
     1     9    11    1
     2    11    12   am
     3    11    13    2
     4     2    14    1
     5    14    15    1
     6    15    16    1
     7    16    17    2
     8    17    18    1
     9    18    19    2
    10    19    20    1
    11    20    21    2
    12     1     2   ar
    13     2     5   ar
    14     5     6   ar
    15     6     7   ar
    16     3     1   ar
    17     3     4   ar
    18     4     8   ar
    19     8     9   ar
    20     9    10   ar
    21    10     7   ar
    22     7     3   ar
