@<TRIPOS>MOLECULE
No_4009-gen_results/8p0m/2024-11-26-14-13-15/
 21 22 0 0 0
SMALL
GASTEIGER

@<TRIPOS>ATOM
      1 C         -28.0162   -0.8135   28.8779 C.ar    1  UNL1        0.0746
      2 C         -27.0636   -0.1189   28.6079 C.ar    1  UNL1        0.1522
      3 C         -25.7923   -0.4302   29.0761 C.ar    1  UNL1        0.0917
      4 C         -25.5756   -1.5654   29.9363 C.ar    1  UNL1        0.0176
      5 C         -26.7354   -2.3004   30.2173 C.ar    1  UNL1        0.0380
      6 C         -27.9184   -1.9537   29.7629 C.ar    1  UNL1        0.1418
      7 O         -29.0001   -2.7012   30.1151 O.3     1  UNL1       -0.4725
      8 CL        -24.3499    0.4889   28.7497 Cl      1  UNL1       -0.0791
      9 C         -28.8837   -3.9432   30.5986 C.3     1  UNL1        0.2392
     10 C         -30.1111   -4.6911   30.6199 C.3     1  UNL1        0.1960
     11 CL        -31.2186   -4.2597   31.3467 Cl      1  UNL1       -0.0917
     12 N         -29.7873   -6.1114   30.9507 N.3     1  UNL1       -0.1935
     13 O         -27.3001    0.9909   27.8537 O.3     1  UNL1       -0.4705
     14 C         -27.6896    0.9624   26.6070 C.3     1  UNL1        0.2525
     15 C         -30.6061   -6.7979   31.8512 C.3     1  UNL1        0.1372
     16 C         -30.8489   -8.1261   31.4670 C.ar    1  UNL1        0.0957
     17 N         -30.8329   -8.4470   30.2350 N.ar    1  UNL1       -0.2435
     18 C         -30.9921   -9.7644   29.7767 C.ar    1  UNL1        0.1191
     19 C         -31.0715  -10.7411   30.7743 C.ar    1  UNL1        0.1195
     20 C         -30.8852   -9.2310   32.3923 C.ar    1  UNL1        0.1150
     21 N         -31.0357  -10.4584   32.0541 N.ar    1  UNL1       -0.2394
@<TRIPOS>BOND
     1     6     7    1
     2     3     8    1
     3     7     9    1
     4     9    10    1
     5    10    11    1
     6    10    12    1
     7     2    13    1
     8    13    14    1
     9    12    15    1
    10    15    16    1
    11     1     2   ar
    12     2     3   ar
    13     3     4   ar
    14     4     5   ar
    15     5     6   ar
    16     6     1   ar
    17    16    17   ar
    18    17    18   ar
    19    18    19   ar
    20    19    21   ar
    21    21    20   ar
    22    20    16   ar
