@<TRIPOS>MOLECULE
No_401-gen_results/8p0m/2024-11-26-14-13-15/
 35 38 0 0 0
SMALL
GASTEIGER

@<TRIPOS>ATOM
      1 C         -28.0162   -0.8135   28.8779 C.2     1  UNL1        0.0530
      2 C         -27.0636   -0.1189   28.6079 C.2     1  UNL1       -0.0259
      3 C         -25.7647   -0.3897   29.0360 C.3     1  UNL1        0.0242
      4 C         -24.5516    0.4058   28.7646 C.3     1  UNL1        0.0157
      5 C         -24.6957    1.4480   27.7988 C.3     1  UNL1        0.1044
      6 C         -25.9755    1.7250   27.3077 C.3     1  UNL1        0.0197
      7 C         -27.0718    1.0134   27.6535 C.3     1  UNL1        0.0423
      8 N         -28.6077   -0.5909   30.1098 N.pl3   1  UNL1       -0.3083
      9 C         -23.4939    2.1690   27.4794 C.2     1  UNL1        0.3643
     10 O         -23.5512    3.1512   26.7577 O.co2   1  UNL1       -0.2457
     11 O         -22.3282    1.9213   28.0713 O.co2   1  UNL1       -0.2457
     12 C         -28.1434    0.1813   30.9047 C.3     1  UNL1        0.0771
     13 C         -27.4282    1.0658   30.8222 C.3     1  UNL1        0.0451
     14 C         -27.0838    1.9876   31.5697 C.2     1  UNL1       -0.0315
     15 C         -26.3106    3.2029   31.2514 C.2     1  UNL1       -0.0312
     16 C         -25.8367    3.1714   29.9128 C.3     1  UNL1        0.1104
     17 N         -25.1907    4.3373   29.6066 N.3     1  UNL1       -0.2136
     18 C         -28.3641    1.3965   27.0455 C.ar    1  UNL1       -0.0185
     19 C         -28.4800    2.4264   26.3411 C.ar    1  UNL1       -0.0040
     20 C         -29.7262    2.8037   25.8075 C.ar    1  UNL1       -0.0002
     21 C         -30.7901    2.0120   25.8377 C.ar    1  UNL1        0.0045
     22 C         -30.6479    0.7936   26.5320 C.ar    1  UNL1        0.0547
     23 C         -29.4796    0.5032   27.1359 C.ar    1  UNL1        0.0006
     24 C         -31.9132    0.1341   26.7039 C.2     1  UNL1        0.2648
     25 N         -32.4098   -0.5271   25.9182 N.am    1  UNL1       -0.1998
     26 C         -29.8095   -1.5876   30.3892 C.3     1  UNL1        0.0907
     27 C         -33.3058   -1.4092   25.9734 C.3     1  UNL1        0.1388
     28 O         -32.0572   -0.2488   28.0179 O.2     1  UNL1       -0.2684
     29 C         -30.6940   -1.0957   31.3380 C.3     1  UNL1        0.0215
     30 C         -30.1487   -0.4165   32.4197 C.3     1  UNL1        0.0035
     31 C         -29.1170    0.3478   32.2364 C.3     1  UNL1        0.0201
     32 C         -25.8757    5.5834   29.4336 C.3     1  UNL1        0.0891
     33 C         -26.1125    6.0879   30.7563 C.3     1  UNL1        0.0192
     34 C         -26.9437    5.4398   31.7308 C.3     1  UNL1        0.0059
     35 C         -26.4811    4.2196   32.1401 C.3     1  UNL1        0.0231
@<TRIPOS>BOND
     1     1     2    2
     2     2     3    1
     3     3     4    1
     4     4     5    1
     5     5     6    1
     6     2     7    1
     7     6     7    1
     8     1     8    1
     9     5     9    1
    10     9    10   ar
    11     9    11   ar
    12     8    12    1
    13    13    14    1
    14    14    15    2
    15    15    16    1
    16    16    17    1
    17     7    18    1
    18    22    24    1
    19    24    25   am
    20     8    26    1
    21    25    27    1
    22    24    28    2
    23    29    30    1
    24    12    31    1
    25    17    32    1
    26    32    33    1
    27    33    34    1
    28    15    35    1
    29    34    35    1
    30    13    12    1
    31    31    30    1
    32    29    26    1
    33    18    19   ar
    34    19    20   ar
    35    20    21   ar
    36    21    22   ar
    37    22    23   ar
    38    23    18   ar
