@<TRIPOS>MOLECULE
No_4010-gen_results/8p0m/2024-11-26-14-13-15/
 10 10 0 0 0
SMALL
GASTEIGER

@<TRIPOS>ATOM
      1 O         -28.1229   -1.3353   28.4874 O.2     1  UNL1       -0.2684
      2 C         -28.5208   -0.4363   29.0779 C.2     1  UNL1        0.2648
      3 C         -27.6655    0.1129   30.0346 C.ar    1  UNL1        0.0550
      4 N         -29.8108   -0.1163   29.1503 N.am    1  UNL1       -0.1998
      5 C         -27.8986    0.9581   30.9114 C.ar    1  UNL1        0.0046
      6 C         -30.7280   -0.6145   28.3618 C.3     1  UNL1        0.1388
      7 C         -26.1745   -0.3124   29.9178 C.ar    1  UNL1        0.0046
      8 C         -25.2490    0.1248   30.7761 C.ar    1  UNL1        0.0001
      9 C         -26.9032    1.5314   31.8624 C.ar    1  UNL1        0.0001
     10 C         -25.6095    1.1219   31.7563 C.ar    1  UNL1        0.0000
@<TRIPOS>BOND
     1     1     2    2
     2     2     3    1
     3     2     4   am
     4     4     6    1
     5     3     5   ar
     6     5     9   ar
     7     9    10   ar
     8    10     8   ar
     9     8     7   ar
    10     7     3   ar
