@<TRIPOS>MOLECULE
No_4011-gen_results/8p0m/2024-11-26-14-13-15/
 21 23 0 0 0
SMALL
GASTEIGER

@<TRIPOS>ATOM
      1 C         -28.0162   -0.8135   28.8779 C.ar    1  UNL1        0.0002
      2 C         -27.0636   -0.1190   28.6079 C.ar    1  UNL1        0.0000
      3 C         -26.9716    0.7139   27.5060 C.ar    1  UNL1        0.0002
      4 C         -28.1053    0.7744   26.6421 C.ar    1  UNL1        0.0066
      5 C         -29.2008    0.1044   27.0527 C.ar    1  UNL1        0.0798
      6 C         -29.2096   -0.6029   28.1853 C.ar    1  UNL1        0.0066
      7 C         -30.3749    0.2232   26.1670 C.2     1  UNL1        0.3878
      8 O         -31.2461   -0.4191   26.3596 O.co2   1  UNL1       -0.2406
      9 O         -30.1447    0.7056   24.9278 O.co2   1  UNL1       -0.2406
     10 C         -25.6995   -0.2158   29.4380 C.ar    1  UNL1        0.0000
     11 C         -25.1498    1.0199   29.9525 C.ar    1  UNL1        0.0000
     12 C         -23.7924    0.9761   30.1881 C.ar    1  UNL1        0.0000
     13 C         -23.0126   -0.1925   30.1461 C.ar    1  UNL1        0.0000
     14 C         -23.6068   -1.3262   29.6430 C.ar    1  UNL1        0.0000
     15 C         -24.9329   -1.3605   29.1958 C.ar    1  UNL1        0.0000
     16 C         -25.8729    2.2258   30.1291 C.ar    1  UNL1        0.0000
     17 C         -26.9569    2.2840   30.2627 C.ar    1  UNL1        0.0000
     18 C         -27.6895    3.5621   30.5585 C.ar    1  UNL1        0.0000
     19 C         -26.9857    4.7074   30.5080 C.ar    1  UNL1        0.0000
     20 C         -25.6465    4.6595   30.2206 C.ar    1  UNL1        0.0000
     21 C         -25.0413    3.4659   30.0727 C.ar    1  UNL1        0.0000
@<TRIPOS>BOND
     1     5     7    1
     2     7     8   ar
     3     7     9   ar
     4     2    10    1
     5    11    16    1
     6     1     2   ar
     7     2     3   ar
     8     3     4   ar
     9     4     5   ar
    10     5     6   ar
    11     6     1   ar
    12    10    11   ar
    13    11    12   ar
    14    12    13   ar
    15    13    14   ar
    16    14    15   ar
    17    15    10   ar
    18    16    17   ar
    19    17    18   ar
    20    18    19   ar
    21    19    20   ar
    22    20    21   ar
    23    21    16   ar
