@<TRIPOS>MOLECULE
No_4012-gen_results/8p0m/2024-11-26-14-13-15/
 29 31 0 0 0
SMALL
GASTEIGER

@<TRIPOS>ATOM
      1 CL        -28.1493   -0.8198   28.9079 Cl      1  UNL1       -0.0822
      2 C         -27.8339    0.4961   29.0598 C.ar    1  UNL1        0.0576
      3 C         -27.6022    1.0128   30.2974 C.ar    1  UNL1        0.0115
      4 C         -27.1699    2.3964   30.5338 C.ar    1  UNL1        0.0054
      5 C         -26.9133    3.1827   29.3680 C.ar    1  UNL1        0.0551
      6 C         -27.0551    2.6221   28.1384 C.ar    1  UNL1        0.0054
      7 C         -27.4622    1.3345   27.9669 C.ar    1  UNL1        0.0107
      8 C         -27.5746    0.8563   26.5913 C.ar    1  UNL1        0.0008
      9 C         -26.5963    1.1537   25.6434 C.ar    1  UNL1        0.0000
     10 C         -26.2045    0.1909   24.7732 C.ar    1  UNL1        0.0000
     11 C         -27.1380   -0.7888   24.3883 C.ar    1  UNL1        0.0000
     12 C         -28.3782   -0.8141   25.0002 C.ar    1  UNL1        0.0000
     13 C         -28.6037   -0.0294   26.1238 C.ar    1  UNL1        0.0000
     14 C         -26.4211    4.5755   29.5259 C.2     1  UNL1        0.2653
     15 O         -25.8541    5.1279   28.6483 O.2     1  UNL1       -0.2683
     16 N         -26.9450    5.3439   30.5454 N.am    1  UNL1       -0.1944
     17 C         -26.5398    6.7201   30.7194 C.3     1  UNL1        0.1395
     18 C         -25.4434    6.8700   31.3931 C.ar    1  UNL1        0.0016
     19 C         -24.9978    5.9474   32.3065 C.ar    1  UNL1       -0.0021
     20 C         -23.6784    6.0471   32.9954 C.ar    1  UNL1        0.0044
     21 C         -22.9164    7.1944   32.8042 C.ar    1  UNL1        0.0566
     22 C         -23.3731    8.1690   31.8669 C.ar    1  UNL1        0.0044
     23 C         -24.5411    8.0010   31.2221 C.ar    1  UNL1       -0.0021
     24 C         -21.6667    7.3026   33.5351 C.2     1  UNL1        0.2842
     25 N         -21.2863    6.4145   34.2491 N.am    1  UNL1       -0.0837
     26 O         -21.0189    8.4016   33.4179 O.2     1  UNL1       -0.2667
     27 C         -27.4102    7.6445   30.2139 C.2     1  UNL1       -0.0050
     28 C         -27.7791    7.6918   28.9644 C.2     1  UNL1       -0.0283
     29 C         -28.6426    8.7180   28.4718 C.3     1  UNL1        0.0304
@<TRIPOS>BOND
     1     1     2    1
     2     7     8    1
     3     5    14    1
     4    14    15    2
     5    14    16   am
     6    16    17    1
     7    17    18    1
     8    21    24    1
     9    24    25   am
    10    24    26    2
    11    17    27    1
    12    27    28    2
    13    28    29    1
    14    18    19   ar
    15    19    20   ar
    16    20    21   ar
    17    21    22   ar
    18    22    23   ar
    19    23    18   ar
    20     2     3   ar
    21     3     4   ar
    22     4     5   ar
    23     5     6   ar
    24     6     7   ar
    25     7     2   ar
    26     8     9   ar
    27     9    10   ar
    28    10    11   ar
    29    11    12   ar
    30    12    13   ar
    31    13     8   ar
