@<TRIPOS>MOLECULE
No_4013-gen_results/8p0m/2024-11-26-14-13-15/
 20 22 0 0 0
SMALL
GASTEIGER

@<TRIPOS>ATOM
      1 C         -28.0162   -0.8135   28.8779 C.ar    1  UNL1        0.0319
      2 C         -27.0636   -0.1189   28.6079 C.ar    1  UNL1        0.1402
      3 C         -26.9287    1.1713   29.0083 C.ar    1  UNL1        0.0294
      4 C         -27.9560    1.7411   29.7840 C.ar    1  UNL1        0.0319
      5 C         -29.0569   -0.3271   29.7466 C.ar    1  UNL1        0.0319
      6 C         -28.9828    0.9722   30.1516 C.ar    1  UNL1        0.1403
      7 F         -26.0345   -0.5985   27.8629 F       1  UNL1       -0.2042
      8 F         -29.9695    1.2642   31.0297 F       1  UNL1       -0.2042
      9 C         -25.7631    2.0285   28.5665 C.ar    1  UNL1       -0.0015
     10 C         -25.9348    3.1671   27.8369 C.ar    1  UNL1       -0.0002
     11 C         -24.7909    3.9432   27.4167 C.ar    1  UNL1        0.0001
     12 C         -23.5435    3.2709   27.3238 C.ar    1  UNL1        0.0042
     13 C         -23.4188    1.9975   27.8889 C.ar    1  UNL1        0.0497
     14 C         -24.4799    1.3669   28.5664 C.ar    1  UNL1       -0.0160
     15 C         -22.0599    1.4508   27.8688 C.2     1  UNL1        0.2488
     16 N         -21.8531    0.2974   28.5796 N.am    1  UNL1       -0.2740
     17 O         -21.1071    1.9587   27.3489 O.2     1  UNL1       -0.2699
     18 C         -22.7950   -0.4327   29.3421 C.3     1  UNL1        0.0984
     19 C         -23.8594    0.0173   29.6116 C.3     1  UNL1        0.0480
     20 C         -20.5152   -0.3530   28.5346 C.3     1  UNL1        0.1152
@<TRIPOS>BOND
     1     2     7    1
     2     6     8    1
     3     3     9    1
     4    13    15    1
     5    15    16   am
     6    15    17    2
     7    16    18    1
     8    14    19    1
     9    16    20    1
    10    19    18    1
    11     1     2   ar
    12     2     3   ar
    13     3     4   ar
    14     4     6   ar
    15     6     5   ar
    16     5     1   ar
    17     9    10   ar
    18    10    11   ar
    19    11    12   ar
    20    12    13   ar
    21    13    14   ar
    22    14     9   ar
