@<TRIPOS>MOLECULE
No_4014-gen_results/8p0m/2024-11-26-14-13-15/
 29 32 0 0 0
SMALL
GASTEIGER

@<TRIPOS>ATOM
      1 C         -28.0162   -0.8135   28.8779 C.ar    1  UNL1        0.0734
      2 C         -27.0636   -0.1189   28.6079 C.ar    1  UNL1        0.0039
      3 C         -26.9716    0.7139   27.5060 C.ar    1  UNL1       -0.0009
      4 C         -28.1053    0.7744   26.6421 C.ar    1  UNL1        0.0025
      5 C         -29.2041    0.1179   27.0477 C.ar    1  UNL1        0.0290
      6 C         -29.2127   -0.6088   28.1281 C.ar    1  UNL1        0.0089
      7 P         -30.6071    0.2677   25.9722 P.3     1  UNL1        0.1395
      8 O         -30.1520   -0.0721   24.5967 O.2     1  UNL1       -0.4557
      9 O         -31.5676   -0.8423   26.4673 O.3     1  UNL1       -0.3542
     10 O         -31.1512    1.6422   26.1208 O.3     1  UNL1       -0.3542
     11 C         -25.6511    1.4129   27.1514 C.ar    1  UNL1        0.0133
     12 C         -25.3576    2.1635   26.4838 C.ar    1  UNL1        0.0012
     13 C         -23.9942    2.7839   26.2811 C.ar    1  UNL1        0.0002
     14 C         -22.9352    2.2569   26.9995 C.ar    1  UNL1        0.0058
     15 C         -23.2551    1.1337   27.8263 C.ar    1  UNL1        0.0684
     16 C         -24.5691    0.6929   27.9948 C.ar    1  UNL1        0.0537
     17 C         -22.1351    0.5534   28.6131 C.2     1  UNL1        0.2675
     18 N         -22.4031   -0.6847   29.1705 N.am    1  UNL1       -0.1792
     19 O         -20.9931    0.9456   28.5123 O.2     1  UNL1       -0.2683
     20 C         -28.0753   -1.6301   30.1308 C.2     1  UNL1        0.3415
     21 O         -27.1570   -2.4189   30.3331 O.2     1  UNL1       -0.2449
     22 O         -29.2379   -1.9219   30.6466 O.3     1  UNL1       -0.4329
     23 C         -29.4415   -2.7793   31.4963 C.3     1  UNL1        0.3215
     24 C         -29.7424   -4.1118   30.9796 C.2     1  UNL1        0.4086
     25 O         -29.6094   -4.2875   29.8944 O.co2   1  UNL1       -0.2415
     26 O         -30.0552   -5.0841   31.8043 O.co2   1  UNL1       -0.2415
     27 C         -23.6065   -1.2506   29.4751 C.3     1  UNL1        0.2099
     28 N         -24.6844   -0.6116   28.7679 N.pl3   1  UNL1       -0.2851
     29 C         -26.0161   -0.9708   28.9797 C.3     1  UNL1        0.1193
@<TRIPOS>BOND
     1     5     7    1
     2     7     8    2
     3     7     9    1
     4     7    10    1
     5     3    11    1
     6    15    17    1
     7    17    18   am
     8    17    19    2
     9     1    20    1
    10    20    21    2
    11    20    22    1
    12    22    23    1
    13    23    24    1
    14    24    25   ar
    15    24    26   ar
    16    16    28    1
    17    27    28    1
    18     2    29    1
    19    28    29    1
    20    18    27    1
    21    11    12   ar
    22    12    13   ar
    23    13    14   ar
    24    14    15   ar
    25    15    16   ar
    26    16    11   ar
    27     1     2   ar
    28     2     3   ar
    29     3     4   ar
    30     4     5   ar
    31     5     6   ar
    32     6     1   ar
