@<TRIPOS>MOLECULE
No_4015-gen_results/8p0m/2024-11-26-14-13-15/
 18 18 0 0 0
SMALL
GASTEIGER

@<TRIPOS>ATOM
      1 C         -28.0162   -0.8135   28.8779 C.ar    1  UNL1        0.0370
      2 C         -28.4690   -0.7850   29.8287 C.ar    1  UNL1        0.0783
      3 C         -26.5042   -0.7777   28.8766 C.ar    1  UNL1        0.1508
      4 C         -25.8103   -0.8531   30.1028 C.ar    1  UNL1        0.0850
      5 C         -27.9864   -0.8420   31.0657 C.ar    1  UNL1        0.0075
      6 C         -26.6147   -0.8427   31.2304 C.ar    1  UNL1        0.0139
      7 CL        -24.1671   -0.7803   30.1705 Cl      1  UNL1       -0.0799
      8 C         -30.0940   -0.8408   29.7899 C.2     1  UNL1        0.3459
      9 O         -30.6654   -0.1848   28.9764 O.3     1  UNL1       -0.4179
     10 O         -30.7579   -1.5660   30.6420 O.2     1  UNL1       -0.2445
     11 F         -25.7206   -0.7524   27.7663 F       1  UNL1       -0.2033
     12 C         -30.5465    0.8417   28.5478 C.2     1  UNL1        0.1831
     13 C         -30.7733    1.9545   29.2613 C.2     1  UNL1        0.0408
     14 C         -31.5961    1.9342   30.3113 C.2     1  UNL1        0.0032
     15 C         -32.4764    0.9956   30.5783 C.2     1  UNL1       -0.0002
     16 C         -33.4004    1.1107   31.6957 C.2     1  UNL1       -0.0046
     17 C         -33.2637    2.2761   32.4862 C.2     1  UNL1       -0.0258
     18 C         -34.1416    2.4448   33.6353 C.3     1  UNL1        0.0307
@<TRIPOS>BOND
     1     4     7    1
     2     2     8    1
     3     8     9    1
     4     8    10    2
     5     3    11    1
     6     9    12    1
     7    12    13    2
     8    13    14    1
     9    14    15    2
    10    15    16    1
    11    16    17    2
    12    17    18    1
    13     1     2   ar
    14     2     5   ar
    15     5     6   ar
    16     6     4   ar
    17     4     3   ar
    18     3     1   ar
