@<TRIPOS>MOLECULE
No_4016-gen_results/8p0m/2024-11-26-14-13-15/
 15 15 0 0 0
SMALL
GASTEIGER

@<TRIPOS>ATOM
      1 C         -28.0162   -0.8135   28.8779 C.ar    1  UNL1        0.0145
      2 C         -28.4690   -0.7850   29.8287 C.ar    1  UNL1        0.0384
      3 C         -26.5455   -0.8762   28.8500 C.ar    1  UNL1        0.0579
      4 C         -25.8041   -1.0324   30.0571 C.ar    1  UNL1        0.0145
      5 C         -26.5373   -1.0386   31.2171 C.ar    1  UNL1        0.0384
      6 C         -27.8929   -0.9601   31.1743 C.ar    1  UNL1        0.1455
      7 CL        -25.6130   -0.8033   27.4237 Cl      1  UNL1       -0.0822
      8 O         -28.6208   -0.9542   32.3498 O.3     1  UNL1       -0.4504
      9 C         -29.2959   -1.9844   32.7046 C.2     1  UNL1        0.1795
     10 C         -29.6328   -2.0568   34.0887 C.2     1  UNL1        0.0407
     11 C         -30.5744   -1.8436   34.5030 C.2     1  UNL1        0.0032
     12 C         -31.4937   -0.9691   33.9374 C.2     1  UNL1       -0.0002
     13 C         -31.1991    0.1652   33.5129 C.2     1  UNL1       -0.0046
     14 C         -32.1298    1.0897   32.8159 C.2     1  UNL1       -0.0258
     15 C         -33.4168    0.5505   32.6846 C.3     1  UNL1        0.0307
@<TRIPOS>BOND
     1     3     7    1
     2     6     8    1
     3     8     9    1
     4     9    10    2
     5    10    11    1
     6    11    12    2
     7    12    13    1
     8    13    14    2
     9    14    15    1
    10     1     2   ar
    11     2     6   ar
    12     6     5   ar
    13     5     4   ar
    14     4     3   ar
    15     3     1   ar
