@<TRIPOS>MOLECULE
No_4017-gen_results/8p0m/2024-11-26-14-13-15/
 19 21 0 0 0
SMALL
GASTEIGER

@<TRIPOS>ATOM
      1 C         -28.0162   -0.8135   28.8779 C.ar    1  UNL1        0.0066
      2 C         -27.0636   -0.1190   28.6079 C.ar    1  UNL1        0.0002
      3 C         -25.7923   -0.4302   29.0761 C.ar    1  UNL1        0.0001
      4 C         -24.5456    0.3494   28.8225 C.ar    1  UNL1        0.0029
      5 C         -23.2409    0.0217   29.3323 C.ar    1  UNL1        0.0002
      6 C         -27.8820   -1.8995   29.8633 C.ar    1  UNL1        0.0798
      7 C         -26.6526   -2.3142   30.3138 C.ar    1  UNL1        0.0066
      8 C         -25.5153   -1.5607   29.9787 C.ar    1  UNL1        0.0002
      9 C         -22.1645    0.7936   28.9524 C.ar    1  UNL1        0.0031
     10 C         -22.1241    1.7484   27.9889 C.ar    1  UNL1        0.0369
     11 C         -24.5235    1.3782   27.7946 C.ar    1  UNL1        0.0340
     12 C         -23.3387    2.0417   27.4305 C.ar    1  UNL1        0.1386
     13 C         -29.0500   -2.7282   30.2957 C.2     1  UNL1        0.3878
     14 O         -30.0821   -2.4184   30.1050 O.co2   1  UNL1       -0.2406
     15 O         -28.7588   -3.8130   30.9800 O.co2   1  UNL1       -0.2406
     16 O         -23.4500    2.9929   26.4676 O.3     1  UNL1       -0.4714
     17 C         -24.7623    3.3680   26.1213 C.3     1  UNL1        0.2525
     18 C         -27.1695    1.0232   27.6572 C.ar    1  UNL1        0.0001
     19 C         -25.8822    1.7210   27.2692 C.ar    1  UNL1        0.0030
@<TRIPOS>BOND
     1     6    13    1
     2    13    14   ar
     3    13    15   ar
     4    12    16    1
     5    16    17    1
     6     3     4   ar
     7    11    19   ar
     8    19    18   ar
     9    18     2   ar
    10     1     2   ar
    11     2     3   ar
    12     3     8   ar
    13     8     7   ar
    14     7     6   ar
    15     6     1   ar
    16     4     5   ar
    17     5     9   ar
    18     9    10   ar
    19    10    12   ar
    20    12    11   ar
    21    11     4   ar
