@<TRIPOS>MOLECULE
No_4019-gen_results/8p0m/2024-11-26-14-13-15/
 15 16 0 0 0
SMALL
GASTEIGER

@<TRIPOS>ATOM
      1 C         -28.0162   -0.8135   28.8779 C.ar    1  UNL1        0.0301
      2 C         -28.4690   -0.7850   29.8287 C.ar    1  UNL1        0.1463
      3 C         -26.5042   -0.7777   28.8766 C.ar    1  UNL1        0.0022
      4 C         -25.6540   -0.6597   27.7191 C.ar    1  UNL1       -0.0001
      5 C         -27.9180   -0.9374   31.1824 C.ar    1  UNL1        0.0620
      6 C         -26.5424   -0.9399   31.2606 C.ar    1  UNL1        0.0089
      7 C         -25.6675   -0.8745   30.0954 C.ar    1  UNL1        0.0004
      8 C         -24.3105   -0.2910   27.8225 C.ar    1  UNL1       -0.0002
      9 C         -23.6556   -0.4188   29.0627 C.ar    1  UNL1        0.0281
     10 C         -24.3422   -0.6347   30.1951 C.ar    1  UNL1       -0.0002
     11 C         -22.1738   -0.1707   29.0722 C.3     1  UNL1        0.2736
     12 N         -21.4071   -1.0151   29.5417 N.3     1  UNL1       -0.0898
     13 F         -21.7844    0.8343   28.3655 F       1  UNL1       -0.2112
     14 F         -29.9028   -0.8917   29.8750 F       1  UNL1       -0.2037
     15 BR        -28.9502   -1.1067   32.7710 Br      1  UNL1       -0.0467
@<TRIPOS>BOND
     1     9    11    1
     2    11    12    1
     3    11    13    1
     4     2    14    1
     5     5    15    1
     6     1     2   ar
     7     2     5   ar
     8     5     6   ar
     9     6     7   ar
    10     3     1   ar
    11     3     4   ar
    12     4     8   ar
    13     8     9   ar
    14     9    10   ar
    15    10     7   ar
    16     7     3   ar
