@<TRIPOS>MOLECULE
No_402-gen_results/8p0m/2024-11-26-14-13-15/
 10 10 0 0 0
SMALL
GASTEIGER

@<TRIPOS>ATOM
      1 C         -28.0162   -0.8135   28.8779 C.ar    1  UNL1       -0.0003
      2 C         -28.4690   -0.7850   29.8287 C.ar    1  UNL1       -0.0000
      3 C         -26.5455   -0.8762   28.8500 C.ar    1  UNL1       -0.0039
      4 C         -25.8041   -1.0324   30.0571 C.ar    1  UNL1       -0.0178
      5 C         -26.5373   -1.0386   31.2171 C.ar    1  UNL1       -0.0039
      6 C         -27.8843   -0.9532   31.1862 C.ar    1  UNL1       -0.0003
      7 C         -24.3655   -1.1134   30.0483 C.3     1  UNL1        0.0538
      8 C         -23.6925    0.1188   29.9185 C.2     1  UNL1       -0.0020
      9 C         -23.9863    1.2743   30.4522 C.2     1  UNL1        0.1015
     10 N         -23.3011    2.3564   29.9918 N.pl3   1  UNL1       -0.1270
@<TRIPOS>BOND
     1     4     7    1
     2     7     8    1
     3     8     9    2
     4     9    10    1
     5     1     2   ar
     6     2     6   ar
     7     6     5   ar
     8     5     4   ar
     9     4     3   ar
    10     3     1   ar
