@<TRIPOS>MOLECULE
No_4020-gen_results/8p0m/2024-11-26-14-13-15/
 35 38 0 0 0
SMALL
GASTEIGER

@<TRIPOS>ATOM
      1 C         -28.0162   -0.8135   28.8779 C.ar    1  UNL1        0.0045
      2 C         -28.4690   -0.7850   29.8287 C.ar    1  UNL1        0.0536
      3 C         -26.5455   -0.8762   28.8500 C.ar    1  UNL1        0.0001
      4 C         -25.8041   -1.0324   30.0571 C.ar    1  UNL1        0.0000
      5 C         -26.5373   -1.0386   31.2171 C.ar    1  UNL1        0.0001
      6 C         -27.8843   -0.9532   31.1862 C.ar    1  UNL1        0.0045
      7 C         -24.3655   -1.1134   30.0483 C.ar    1  UNL1        0.0000
      8 C         -23.7447   -1.3690   30.8125 C.ar    1  UNL1        0.0000
      9 C         -22.2072   -1.2504   30.8577 C.ar    1  UNL1        0.0000
     10 C         -21.6856   -0.8191   29.6527 C.ar    1  UNL1        0.0000
     11 C         -23.5890   -0.4882   28.8741 C.ar    1  UNL1        0.0000
     12 C         -22.3746   -0.3682   28.7529 C.ar    1  UNL1        0.0000
     13 C         -30.0604   -0.6727   29.9132 C.2     1  UNL1        0.2490
     14 O         -30.5093   -0.1986   28.9797 O.2     1  UNL1       -0.2699
     15 N         -30.7723   -1.4787   30.8062 N.am    1  UNL1       -0.2753
     16 C         -32.1957   -1.4611   30.7592 C.3     1  UNL1        0.0980
     17 C         -32.7348   -2.4511   31.2080 C.3     1  UNL1        0.0421
     18 C         -32.0663   -3.4427   32.0118 C.3     1  UNL1        0.0169
     19 C         -30.6530   -3.4653   32.0408 C.3     1  UNL1        0.0969
     20 C         -30.0537   -2.4301   31.6888 C.3     1  UNL1        0.1028
     21 C         -30.0045   -4.5964   32.7338 C.2     1  UNL1        0.2271
     22 N         -30.0771   -5.7641   32.4349 N.am    1  UNL1       -0.2736
     23 C         -30.1387   -6.7644   33.2538 C.3     1  UNL1        0.1152
     24 C         -30.0796   -6.1144   31.0314 C.3     1  UNL1        0.1202
     25 O         -29.3164   -4.1629   33.8197 O.2     1  UNL1       -0.2748
     26 C         -31.2324   -5.9967   30.2726 C.ar    1  UNL1       -0.0015
     27 C         -31.9947   -7.0102   30.3875 C.ar    1  UNL1       -0.0026
     28 C         -33.2146   -7.0440   29.5210 C.ar    1  UNL1        0.0006
     29 C         -33.4096   -5.9995   28.6182 C.ar    1  UNL1        0.0114
     30 C         -32.4936   -4.9411   28.5627 C.ar    1  UNL1        0.0574
     31 C         -31.3550   -4.9456   29.3405 C.ar    1  UNL1        0.0088
     32 CL        -32.7727   -3.6644   27.4319 Cl      1  UNL1       -0.0823
     33 C         -34.2497   -2.6052   31.1540 C.2     1  UNL1       -0.0293
     34 C         -34.9687   -3.3957   31.8579 C.2     1  UNL1       -0.0303
     35 C         -36.3773   -3.5304   31.6853 C.3     1  UNL1        0.0303
@<TRIPOS>BOND
     1     4     7    1
     2     2    13    1
     3    13    14    2
     4    13    15   am
     5    15    16    1
     6    17    18    1
     7    15    20    1
     8    19    20    1
     9    19    21    1
    10    21    22   am
    11    22    23    1
    12    22    24    1
    13    21    25    2
    14    24    26    1
    15    30    32    1
    16    17    33    1
    17    33    34    2
    18    34    35    1
    19    16    17    1
    20    18    19    1
    21     7     8   ar
    22     8     9   ar
    23     9    10   ar
    24    10    12   ar
    25    12    11   ar
    26    11     7   ar
    27     1     2   ar
    28     2     6   ar
    29     6     5   ar
    30     5     4   ar
    31     4     3   ar
    32     3     1   ar
    33    26    27   ar
    34    27    28   ar
    35    28    29   ar
    36    29    30   ar
    37    30    31   ar
    38    31    26   ar
