@<TRIPOS>MOLECULE
No_4021-gen_results/8p0m/2024-11-26-14-13-15/
 19 20 0 0 0
SMALL
GASTEIGER

@<TRIPOS>ATOM
      1 C         -28.0162   -0.8135   28.8779 C.ar    1  UNL1       -0.0003
      2 C         -28.4690   -0.7850   29.8287 C.ar    1  UNL1       -0.0000
      3 C         -26.5042   -0.7777   28.8766 C.ar    1  UNL1       -0.0039
      4 C         -25.9150   -0.6580   29.9230 C.ar    1  UNL1       -0.0178
      5 C         -27.9691   -0.7243   31.2047 C.ar    1  UNL1       -0.0003
      6 C         -26.5847   -0.6393   31.2062 C.ar    1  UNL1       -0.0039
      7 C         -24.4026   -0.5847   30.0419 C.3     1  UNL1        0.0526
      8 C         -23.6753   -0.1487   28.9955 C.ar    1  UNL1       -0.0181
      9 C         -22.2364   -0.0360   29.1546 C.ar    1  UNL1       -0.0040
     10 C         -21.5128    0.5230   28.0806 C.ar    1  UNL1       -0.0006
     11 C         -22.2121    1.3068   27.1237 C.ar    1  UNL1       -0.0040
     12 C         -23.5946    1.4156   27.1381 C.ar    1  UNL1       -0.0181
     13 C         -24.3367    0.7913   28.1168 C.ar    1  UNL1       -0.0079
     14 C         -24.1982    2.2804   26.1327 C.3     1  UNL1        0.0523
     15 C         -25.2475    3.0809   26.5057 C.2     1  UNL1       -0.0214
     16 C         -25.0529    4.3260   26.9913 C.2     1  UNL1       -0.0046
     17 C         -26.1197    5.1847   27.4247 C.2     1  UNL1       -0.0049
     18 C         -25.9409    6.4541   27.9765 C.2     1  UNL1       -0.0258
     19 C         -26.8640    7.1523   28.7293 C.3     1  UNL1        0.0307
@<TRIPOS>BOND
     1     4     7    1
     2    12    14    1
     3    14    15    1
     4    15    16    2
     5    16    17    1
     6    17    18    2
     7    18    19    1
     8     7     8    1
     9     8     9   ar
    10     9    10   ar
    11    10    11   ar
    12    11    12   ar
    13    12    13   ar
    14    13     8   ar
    15     1     2   ar
    16     2     5   ar
    17     5     6   ar
    18     6     4   ar
    19     4     3   ar
    20     3     1   ar
