@<TRIPOS>MOLECULE
No_4022-gen_results/8p0m/2024-11-26-14-13-15/
 25 27 0 0 0
SMALL
GASTEIGER

@<TRIPOS>ATOM
      1 O         -28.1229   -1.3353   28.4874 O.2     1  UNL1       -0.2742
      2 C         -27.4806   -0.4044   28.7094 C.2     1  UNL1        0.2334
      3 C         -26.3804   -0.0867   27.9394 C.3     1  UNL1        0.1211
      4 N         -27.6664    0.4468   29.8988 N.am    1  UNL1       -0.2787
      5 C         -25.1773   -0.4388   28.3946 C.ar    1  UNL1       -0.0098
      6 C         -26.5259    0.6036   26.6867 C.ar    1  UNL1       -0.0098
      7 C         -24.1813    0.0892   28.4567 C.ar    1  UNL1       -0.0035
      8 C         -22.8540   -0.2470   29.0824 C.ar    1  UNL1       -0.0003
      9 C         -22.9560   -1.5911   29.5447 C.ar    1  UNL1       -0.0000
     10 C         -25.1882   -1.8012   29.1119 C.ar    1  UNL1       -0.0035
     11 C         -24.0397   -2.3382   29.5658 C.ar    1  UNL1       -0.0003
     12 C         -28.7682    0.1596   30.7905 C.3     1  UNL1        0.0934
     13 C         -28.5766    0.5081   31.8854 C.3     1  UNL1        0.0218
     14 C         -27.5694    1.4831   32.3352 C.3     1  UNL1        0.0120
     15 C         -26.5243    1.7164   31.3698 C.3     1  UNL1        0.1149
     16 C         -26.5790    1.1296   30.1805 C.3     1  UNL1        0.1019
     17 C         -26.2048    0.0569   25.5644 C.ar    1  UNL1       -0.0035
     18 C         -27.0904    1.9089   26.6878 C.ar    1  UNL1       -0.0035
     19 C         -27.3010    2.5640   25.4890 C.ar    1  UNL1       -0.0003
     20 C         -26.4575    0.6112   24.3009 C.ar    1  UNL1       -0.0003
     21 C         -26.9795    1.9109   24.2867 C.ar    1  UNL1       -0.0000
     22 C         -25.4204    2.6019   31.8335 C.3     1  UNL1        0.3991
     23 F         -25.3403    3.6193   31.3066 F       1  UNL1       -0.1700
     24 F         -24.2161    1.8729   31.6242 F       1  UNL1       -0.1700
     25 F         -25.4435    2.7619   33.2079 F       1  UNL1       -0.1700
@<TRIPOS>BOND
     1     1     2    2
     2     2     3    1
     3     2     4   am
     4     3     5    1
     5     3     6    1
     6     4    12    1
     7    13    14    1
     8     4    16    1
     9    15    16    1
    10    15    22    1
    11    22    23    1
    12    22    24    1
    13    22    25    1
    14    12    13    1
    15    14    15    1
    16     5     7   ar
    17     7     8   ar
    18     8     9   ar
    19     9    11   ar
    20    11    10   ar
    21    10     5   ar
    22     6    17   ar
    23    17    20   ar
    24    20    21   ar
    25    21    19   ar
    26    19    18   ar
    27    18     6   ar
