@<TRIPOS>MOLECULE
No_4025-gen_results/8p0m/2024-11-26-14-13-15/
 22 24 0 0 0
SMALL
GASTEIGER

@<TRIPOS>ATOM
      1 C         -28.0162   -0.8135   28.8779 C.3     1  UNL1        0.1177
      2 C         -27.0636   -0.1189   28.6079 C.ar    1  UNL1       -0.0024
      3 C         -27.0010    0.6913   27.4910 C.ar    1  UNL1       -0.0024
      4 C         -25.8548    1.4825   27.0830 C.ar    1  UNL1        0.0063
      5 C         -24.6901    1.4526   27.8807 C.ar    1  UNL1        0.0798
      6 C         -24.7379    0.6010   29.0416 C.ar    1  UNL1        0.0063
      7 C         -25.8234   -0.1688   29.3887 C.ar    1  UNL1       -0.0024
      8 N         -28.7568   -0.5479   30.0191 N.pl3   1  UNL1       -0.3039
      9 C         -29.7597   -1.3260   30.5171 C.2     1  UNL1        0.0570
     10 C         -30.3964   -0.9170   31.6880 C.2     1  UNL1       -0.0087
     11 C         -28.5369    0.6053   30.8302 C.3     1  UNL1        0.0818
     12 C         -27.6447    1.5502   30.4369 C.3     1  UNL1        0.0464
     13 C         -29.5321    0.4944   31.8912 C.3     1  UNL1        0.0474
     14 C         -23.4641    2.1603   27.5426 C.2     1  UNL1        0.3878
     15 O         -23.5102    3.0802   26.7392 O.co2   1  UNL1       -0.2406
     16 O         -22.3298    1.8873   28.1243 O.co2   1  UNL1       -0.2406
     17 C         -28.2873    2.8522   30.0310 C.ar    1  UNL1       -0.0205
     18 C         -28.0809    3.7492   30.4487 C.ar    1  UNL1       -0.0042
     19 C         -28.7705    5.0268   29.9866 C.ar    1  UNL1       -0.0003
     20 C         -29.2206    2.6842   28.9473 C.ar    1  UNL1       -0.0042
     21 C         -29.8885    3.7282   28.3922 C.ar    1  UNL1       -0.0003
     22 C         -29.6352    4.9698   28.9913 C.ar    1  UNL1       -0.0000
@<TRIPOS>BOND
     1     1     2    1
     2     1     8    1
     3     8     9    1
     4     9    10    2
     5     8    11    1
     6    11    12    1
     7    10    13    1
     8    11    13    1
     9     5    14    1
    10    14    15   ar
    11    14    16   ar
    12    12    17    1
    13     2     3   ar
    14     3     4   ar
    15     4     5   ar
    16     5     6   ar
    17     6     7   ar
    18     7     2   ar
    19    17    18   ar
    20    18    19   ar
    21    19    22   ar
    22    22    21   ar
    23    21    20   ar
    24    20    17   ar
