@<TRIPOS>MOLECULE
No_4027-gen_results/8p0m/2024-11-26-14-13-15/
 19 19 0 0 0
SMALL
GASTEIGER

@<TRIPOS>ATOM
      1 N         -28.0544   -1.0498   28.7246 N.pl3   1  UNL1       -0.2352
      2 C         -26.9659   -0.4722   28.7709 C.ar    1  UNL1        0.0654
      3 C         -26.5486    0.3876   27.8310 C.ar    1  UNL1        0.0163
      4 C         -25.2662    1.0684   27.8062 C.ar    1  UNL1        0.0079
      5 C         -24.3565    0.7761   28.8458 C.ar    1  UNL1        0.0799
      6 C         -24.7750   -0.1742   29.8298 C.ar    1  UNL1        0.0079
      7 C         -25.9839   -0.8112   29.8049 C.ar    1  UNL1        0.0163
      8 C         -29.0059   -0.6504   29.6882 C.3     1  UNL1        0.1453
      9 CA        -30.2559   -1.4458   29.6619 C.3     1  UNL1        0.2164
     10 N         -30.0555   -2.5456   30.1244 N.pl3   1  UNL1       -0.2252
     11 C         -30.9828   -1.4790   28.3530 C.2     1  UNL1        0.3859
     12 C         -23.0586    1.4093   28.8884 C.2     1  UNL1        0.3878
     13 O         -22.3287    1.2817   29.7928 O.co2   1  UNL1       -0.2406
     14 O         -22.6489    2.0733   27.8135 O.co2   1  UNL1       -0.2406
     15 O         -30.8618   -0.5416   27.5886 O.co2   1  UNL1       -0.2437
     16 OXT       -31.7606   -2.4116   28.0885 O.co2   1  UNL1       -0.2437
     17 C         -30.9530   -3.4430   30.5165 C.2     1  UNL1        0.0761
     18 C         -30.4234   -4.7574   30.9815 C.2     1  UNL1       -0.0084
     19 C         -29.0294   -4.7129   31.0155 C.3     1  UNL1        0.0321
@<TRIPOS>BOND
     1     1     2    1
     2     1     8    1
     3     8     9    1
     4     9    10    1
     5     9    11    1
     6     5    12    1
     7    12    13   ar
     8    12    14   ar
     9    11    15   ar
    10    11    16   ar
    11    10    17    1
    12    17    18    2
    13    18    19    1
    14     2     3   ar
    15     3     4   ar
    16     4     5   ar
    17     5     6   ar
    18     6     7   ar
    19     7     2   ar
