@<TRIPOS>MOLECULE
No_4029-gen_results/8p0m/2024-11-26-14-13-15/
 33 37 0 0 0
SMALL
GASTEIGER

@<TRIPOS>ATOM
      1 C         -28.0162   -0.8135   28.8779 C.ar    1  UNL1        0.0504
      2 C         -28.4690   -0.7850   29.8287 C.2     1  UNL1        0.2488
      3 C         -28.1816    0.4277   28.1134 C.ar    1  UNL1        0.0015
      4 C         -27.4498    0.6435   26.8500 C.ar    1  UNL1       -0.0054
      5 C         -26.1815    0.0357   26.7145 C.ar    1  UNL1       -0.0030
      6 C         -25.7800   -0.9326   27.6938 C.ar    1  UNL1       -0.0033
      7 C         -26.5568   -1.2134   28.7413 C.ar    1  UNL1       -0.0024
      8 N         -28.3021   -1.9782   30.6613 N.am    1  UNL1       -0.2729
      9 O         -29.5330   -0.1613   30.2779 O.2     1  UNL1       -0.2699
     10 C         -27.3274   -2.9047   30.4033 C.3     1  UNL1        0.1132
     11 C         -26.1918   -2.4606   29.5004 C.3     1  UNL1        0.1334
     12 C         -25.0586   -3.2620   29.3081 C.1     1  UNL1        0.0783
     13 N         -24.0581   -3.4570   29.1123 N.1     1  UNL1       -0.1955
     14 C         -29.1833   -2.3615   31.8492 C.3     1  UNL1        0.1152
     15 C         -27.7698    1.6669   25.9145 C.3     1  UNL1        0.0831
     16 N         -27.2085    2.7868   26.1238 N.3     1  UNL1       -0.2684
     17 C         -27.8497    4.0112   26.3730 C.3     1  UNL1        0.0726
     18 C         -25.7460    2.9151   26.0214 C.3     1  UNL1        0.0726
     19 C         -25.0736    3.9026   26.8008 C.3     1  UNL1        0.0174
     20 C         -25.6848    5.1666   27.0346 C.3     1  UNL1        0.0029
     21 C         -27.1165    5.1402   27.0002 C.3     1  UNL1        0.0174
     22 C         -29.2676    1.8542   25.8410 C.ar    1  UNL1       -0.0094
     23 C         -29.9927    0.9610   25.0302 C.ar    1  UNL1       -0.0244
     24 C         -30.0178    2.6258   26.7484 C.ar    1  UNL1       -0.0028
     25 C         -31.3861    2.6219   26.7722 C.ar    1  UNL1        0.0063
     26 C         -31.3470    0.8760   25.0419 C.ar    1  UNL1        0.0021
     27 C         -32.0353    1.7311   25.8785 C.ar    1  UNL1        0.0794
     28 C         -33.5198    1.6185   25.8958 C.2     1  UNL1        0.3877
     29 O         -34.2791    2.2558   26.5771 O.co2   1  UNL1       -0.2406
     30 O         -34.0398    0.7200   25.0796 O.co2   1  UNL1       -0.2406
     31 C         -29.2162    0.0273   24.1824 C.3     1  UNL1        0.0262
     32 C         -27.3058    1.3065   24.4834 C.3     1  UNL1        0.0234
     33 C         -27.9436    0.2999   23.8380 C.3     1  UNL1        0.0067
@<TRIPOS>BOND
     1     1     2    1
     2     2     8   am
     3     2     9    2
     4     8    10    1
     5     7    11    1
     6    10    11    1
     7    11    12    1
     8    12    13    3
     9     8    14    1
    10     4    15    1
    11    15    16    1
    12    16    17    1
    13    16    18    1
    14    19    20    1
    15    15    22    1
    16    27    28    1
    17    28    29   ar
    18    28    30   ar
    19    23    31    1
    20    15    32    1
    21    31    33    1
    22    32    33    1
    23    17    21    1
    24    21    20    1
    25    19    18    1
    26     1     3   ar
    27     3     4   ar
    28     4     5   ar
    29     5     6   ar
    30     6     7   ar
    31     7     1   ar
    32    22    23   ar
    33    23    26   ar
    34    26    27   ar
    35    27    25   ar
    36    25    24   ar
    37    24    22   ar
