@<TRIPOS>MOLECULE
No_403-gen_results/8p0m/2024-11-26-14-13-15/
 35 37 0 0 0
SMALL
GASTEIGER

@<TRIPOS>ATOM
      1 C         -28.0162   -0.8135   28.8779 C.ar    1  UNL1        0.0040
      2 C         -28.4690   -0.7850   29.8287 C.ar    1  UNL1       -0.0029
      3 C         -27.1356    0.2359   28.5352 C.ar    1  UNL1        0.0345
      4 C         -26.8745    1.2825   29.3982 C.ar    1  UNL1        0.0133
      5 C         -27.5070    1.2380   30.6295 C.ar    1  UNL1        0.0800
      6 C         -29.4093   -1.9436   30.2887 C.3     1  UNL1        0.1068
      7 C         -28.3221    0.1318   30.9672 C.ar    1  UNL1        0.0040
      8 N         -29.1121   -3.1910   30.4283 N.am    1  UNL1       -0.2526
      9 C         -30.1857   -1.6341   31.6041 C.3     1  UNL1        0.0510
     10 BR        -26.2014    0.2799   26.8583 Br      1  UNL1       -0.0490
     11 C         -29.7894   -4.3382   30.6287 C.ar    1  UNL1        0.0544
     12 C         -27.6212   -3.5917   30.2200 C.2     1  UNL1        0.2528
     13 C         -29.7518   -5.0174   31.6932 C.ar    1  UNL1        0.0149
     14 C         -30.7048   -4.6953   29.6078 C.ar    1  UNL1        0.0149
     15 C         -30.4712   -6.1796   31.8993 C.ar    1  UNL1        0.0013
     16 C         -31.4144   -5.8954   29.6581 C.ar    1  UNL1        0.0013
     17 C         -31.2985   -6.6513   30.8363 C.ar    1  UNL1        0.0001
     18 C         -31.3208   -0.8086   31.4040 C.ar    1  UNL1       -0.0200
     19 C         -32.0887   -0.4841   32.5330 C.ar    1  UNL1       -0.0009
     20 C         -33.1601    0.3790   32.4067 C.ar    1  UNL1        0.0417
     21 C         -31.6513   -0.2601   30.1990 C.ar    1  UNL1       -0.0009
     22 C         -32.7350    0.6295   30.0291 C.ar    1  UNL1        0.0417
     23 C         -33.4948    0.9379   31.1543 C.ar    1  UNL1        0.1957
     24 O         -34.5230    1.8216   30.9966 O.3     1  UNL1       -0.2866
     25 C         -26.6522   -2.5452   30.1869 C.2     1  UNL1        0.0541
     26 C         -25.2129   -3.1224   30.0039 C.2     1  UNL1       -0.0168
     27 C         -24.5910   -2.7149   28.7703 C.3     1  UNL1        0.0521
     28 O         -27.3397   -4.7466   30.0786 O.2     1  UNL1       -0.2696
     29 C         -27.2369    2.3290   31.6453 C.2     1  UNL1        0.3878
     30 O         -26.9779    2.2655   32.6605 O.co2   1  UNL1       -0.2406
     31 O         -27.4628    3.5624   31.0199 O.co2   1  UNL1       -0.2406
     32 C         -23.7656   -1.4086   28.9651 C.2     1  UNL1       -0.0214
     33 C         -23.5654   -0.4243   28.4132 C.2     1  UNL1       -0.0042
     34 C         -22.5846    0.5971   28.7699 C.2     1  UNL1       -0.0003
     35 C         -21.7870    0.1692   29.8022 C.2     1  UNL1       -0.0000
@<TRIPOS>BOND
     1     2     6    1
     2     6     8    1
     3     6     9    1
     4     3    10    1
     5     8    11    1
     6     8    12   am
     7    23    24    1
     8    12    25    1
     9    25    26    2
    10    26    27    1
    11    12    28    2
    12     5    29    1
    13    29    30   ar
    14    29    31   ar
    15    27    32    1
    16    32    33    2
    17    33    34    1
    18    34    35    2
    19     9    18    1
    20     1     2   ar
    21     2     7   ar
    22     7     5   ar
    23     5     4   ar
    24     4     3   ar
    25     3     1   ar
    26    18    19   ar
    27    19    20   ar
    28    20    23   ar
    29    23    22   ar
    30    22    21   ar
    31    21    18   ar
    32    11    13   ar
    33    13    15   ar
    34    15    17   ar
    35    17    16   ar
    36    16    14   ar
    37    14    11   ar
