@<TRIPOS>MOLECULE
No_4030-gen_results/8p0m/2024-11-26-14-13-15/
 15 16 0 0 0
SMALL
GASTEIGER

@<TRIPOS>ATOM
      1 C         -28.0162   -0.8135   28.8779 C.ar    1  UNL1        0.0145
      2 C         -28.4690   -0.7850   29.8287 C.ar    1  UNL1        0.0479
      3 C         -26.5455   -0.8762   28.8500 C.ar    1  UNL1        0.0013
      4 C         -25.8041   -1.0324   30.0571 C.ar    1  UNL1        0.0001
      5 C         -27.9437   -0.9869   31.2075 C.ar    1  UNL1        0.0145
      6 C         -26.5825   -1.0386   31.2231 C.ar    1  UNL1        0.0013
      7 N         -29.9648   -0.7353   29.8902 N.pl3   1  UNL1       -0.3069
      8 C         -30.5344   -0.0309   29.0060 C.3     1  UNL1        0.1020
      9 C         -31.8526   -0.4023   28.7250 C.3     1  UNL1        0.1231
     10 C         -30.7345   -1.5680   30.7138 C.3     1  UNL1        0.0908
     11 C         -32.0465   -1.8311   30.4793 C.3     1  UNL1        0.0220
     12 C         -32.4810    0.3764   27.6139 C.2     1  UNL1        0.3660
     13 C         -32.5781   -1.2303   29.4811 C.3     1  UNL1        0.0147
     14 O         -32.2370    0.1766   26.4640 O.co2   1  UNL1       -0.2456
     15 O         -33.3353    1.2882   27.9269 O.co2   1  UNL1       -0.2456
@<TRIPOS>BOND
     1     2     7    1
     2     7     8    1
     3     7    10    1
     4     9    12    1
     5     9    13    1
     6    11    13    1
     7    12    14   ar
     8    12    15   ar
     9     8     9    1
    10    11    10    1
    11     1     2   ar
    12     2     5   ar
    13     5     6   ar
    14     6     4   ar
    15     4     3   ar
    16     3     1   ar
