@<TRIPOS>MOLECULE
No_4031-gen_results/8p0m/2024-11-26-14-13-15/
 16 17 0 0 0
SMALL
GASTEIGER

@<TRIPOS>ATOM
      1 C         -28.0162   -0.8135   28.8779 C.ar    1  UNL1       -0.0049
      2 C         -27.0636   -0.1190   28.6079 C.ar    1  UNL1       -0.0029
      3 C         -26.9716    0.7139   27.5060 C.ar    1  UNL1       -0.0003
      4 C         -28.1053    0.7744   26.6421 C.ar    1  UNL1       -0.0000
      5 C         -29.2008    0.1044   27.0527 C.ar    1  UNL1       -0.0003
      6 C         -28.0219   -1.5899   30.0879 C.3     1  UNL1        0.1154
      7 C         -29.1640   -0.6394   28.1484 C.ar    1  UNL1       -0.0029
      8 N         -27.0234   -2.3569   30.3744 N.3     1  UNL1       -0.1281
      9 C         -29.3283   -2.4721   30.1942 C.3     1  UNL1        0.1107
     10 C         -28.0710   -0.5757   31.3924 C.3     1  UNL1        0.0446
     11 N         -29.4971   -2.9665   31.4334 N.3     1  UNL1       -0.2162
     12 C         -29.5900   -2.4486   32.2936 C.3     1  UNL1        0.0892
     13 C         -27.1809    0.4065   31.4863 C.2     1  UNL1       -0.0292
     14 C         -29.0635   -1.0258   32.3762 C.3     1  UNL1        0.0249
     15 C         -25.9063    0.2017   31.9869 C.2     1  UNL1       -0.0303
     16 C         -24.9765    1.2070   32.1437 C.3     1  UNL1        0.0303
@<TRIPOS>BOND
     1     1     6    1
     2     6     8    1
     3     6     9    1
     4     6    10    1
     5     9    11    1
     6    10    13    1
     7    10    14    1
     8    12    14    1
     9    13    15    2
    10    15    16    1
    11    11    12    1
    12     1     2   ar
    13     2     3   ar
    14     3     4   ar
    15     4     5   ar
    16     5     7   ar
    17     7     1   ar
