@<TRIPOS>MOLECULE
No_4032-gen_results/8p0m/2024-11-26-14-13-15/
 7 7 0 0 0
SMALL
GASTEIGER

@<TRIPOS>ATOM
      1 F         -28.0727   -1.2542   28.5316 F       1  UNL1       -0.2042
      2 C         -27.0607   -0.6291   28.8721 C.ar    1  UNL1        0.1401
      3 C         -27.1759    0.6153   29.3693 C.ar    1  UNL1        0.0296
      4 C         -25.7305   -1.2692   28.7241 C.ar    1  UNL1        0.0296
      5 C         -24.5526   -0.5078   29.0132 C.ar    1  UNL1        0.0023
      6 C         -25.9465    1.3753   29.6814 C.ar    1  UNL1        0.0023
      7 C         -24.6746    0.8198   29.5066 C.ar    1  UNL1        0.0001
@<TRIPOS>BOND
     1     1     2    1
     2     2     3   ar
     3     3     6   ar
     4     6     7   ar
     5     7     5   ar
     6     5     4   ar
     7     4     2   ar
