@<TRIPOS>MOLECULE
No_4033-gen_results/8p0m/2024-11-26-14-13-15/
 10 10 0 0 0
SMALL
GASTEIGER

@<TRIPOS>ATOM
      1 C         -28.0162   -0.8135   28.8779 C.ar    1  UNL1        0.0362
      2 C         -28.4690   -0.7850   29.8287 C.ar    1  UNL1        0.0820
      3 C         -26.5042   -0.7777   28.8766 C.ar    1  UNL1        0.1404
      4 C         -25.8103   -0.8531   30.1028 C.ar    1  UNL1        0.0296
      5 C         -30.0136   -0.8410   29.8508 C.2     1  UNL1        0.3878
      6 C         -26.5670   -0.8850   31.2517 C.ar    1  UNL1        0.0025
      7 C         -27.9411   -0.9069   31.1850 C.ar    1  UNL1        0.0067
      8 O         -30.6493   -0.0573   30.6757 O.co2   1  UNL1       -0.2406
      9 O         -30.5985   -1.8622   29.3538 O.co2   1  UNL1       -0.2406
     10 F         -25.7479   -0.7607   27.7866 F       1  UNL1       -0.2042
@<TRIPOS>BOND
     1     2     5    1
     2     5     8   ar
     3     5     9   ar
     4     3    10    1
     5     1     2   ar
     6     2     7   ar
     7     7     6   ar
     8     6     4   ar
     9     4     3   ar
    10     3     1   ar
