@<TRIPOS>MOLECULE
No_4034-gen_results/8p0m/2024-11-26-14-13-15/
 29 32 0 0 0
SMALL
GASTEIGER

@<TRIPOS>ATOM
      1 CL        -28.1493   -0.8198   28.9079 Cl      1  UNL1       -0.0791
      2 C         -27.8339    0.4961   29.0598 C.ar    1  UNL1        0.0923
      3 C         -27.6022    1.0128   30.2974 C.ar    1  UNL1        0.0211
      4 C         -27.1699    2.3964   30.5338 C.ar    1  UNL1        0.0808
      5 C         -26.9133    3.1827   29.3680 C.ar    1  UNL1        0.0096
      6 C         -27.0551    2.6221   28.1384 C.ar    1  UNL1        0.0356
      7 C         -27.4622    1.3345   27.9669 C.ar    1  UNL1        0.1552
      8 C         -26.4513    4.5680   29.5808 C.ar    1  UNL1        0.0080
      9 C         -25.8753    5.1847   28.5885 C.ar    1  UNL1        0.0880
     10 C         -25.9529    4.5844   27.2173 C.ar    1  UNL1        0.0078
     11 C         -26.4145    3.3612   27.0643 C.ar    1  UNL1        0.0033
     12 C         -25.3520    6.6106   28.6167 C.2     1  UNL1        0.3708
     13 N         -24.9487    7.2939   27.5166 N.2     1  UNL1       -0.0505
     14 N         -24.9181    7.1348   29.7882 N.2     1  UNL1       -0.0309
     15 C         -24.4017    8.3836   29.4613 C.2     1  UNL1        0.2673
     16 C         -24.3816    8.4394   28.0720 C.3     1  UNL1        0.3395
     17 O         -27.5280    0.8113   26.7747 O.3     1  UNL1       -0.4569
     18 C         -26.4210    0.2369   26.1746 C.2     1  UNL1        0.1232
     19 C         -25.3269   -0.0895   26.8990 C.2     1  UNL1        0.0330
     20 C         -26.5625   -0.1053   24.7966 C.3     1  UNL1        0.0725
     21 C         -24.2407    0.1586   27.3991 C.ar    1  UNL1        0.0027
     22 C         -23.3756    1.3553   27.3598 C.ar    1  UNL1        0.0001
     23 C         -22.2231    1.5420   28.0796 C.ar    1  UNL1        0.0000
     24 C         -21.7688    0.5966   28.9433 C.ar    1  UNL1        0.0000
     25 C         -23.5713   -0.6708   28.4541 C.ar    1  UNL1        0.0001
     26 C         -22.4716   -0.5191   29.1922 C.ar    1  UNL1        0.0000
     27 C         -27.0718    2.9496   31.8943 C.2     1  UNL1        0.3878
     28 O         -28.0068    3.3299   32.5465 O.co2   1  UNL1       -0.2406
     29 O         -25.8387    2.7219   32.4500 O.co2   1  UNL1       -0.2406
@<TRIPOS>BOND
     1     1     2    1
     2     9    12    1
     3    12    13    2
     4    12    14    1
     5    14    15    2
     6    13    16    1
     7    15    16    1
     8     7    17    1
     9    17    18    1
    10    18    19    2
    11    18    20    1
    12    19    21    1
    13     4    27    1
    14    27    28   ar
    15    27    29   ar
    16     6    11   ar
    17    11    10   ar
    18    10     9   ar
    19     9     8   ar
    20     8     5   ar
    21     2     3   ar
    22     3     4   ar
    23     4     5   ar
    24     5     6   ar
    25     6     7   ar
    26     7     2   ar
    27    21    22   ar
    28    22    23   ar
    29    23    24   ar
    30    24    26   ar
    31    26    25   ar
    32    25    21   ar
