@<TRIPOS>MOLECULE
No_4035-gen_results/8p0m/2024-11-26-14-13-15/
 29 32 0 0 0
SMALL
GASTEIGER

@<TRIPOS>ATOM
      1 C         -28.0162   -0.8135   28.8779 C.ar    1  UNL1        0.0325
      2 C         -28.4690   -0.7850   29.8287 C.ar    1  UNL1        0.1402
      3 C         -27.0871    0.2903   28.6377 C.ar    1  UNL1        0.0380
      4 C         -26.2516    0.4114   27.4223 C.2     1  UNL1        0.1951
      5 C         -28.3913    0.1041   30.9805 C.ar    1  UNL1        0.0293
      6 C         -27.5332    1.1666   30.7866 C.ar    1  UNL1       -0.0011
      7 C         -26.8281    1.2557   29.6454 C.ar    1  UNL1       -0.0065
      8 C         -25.6445    1.6653   27.2216 C.ar    1  UNL1        0.0357
      9 C         -25.3909    2.5603   28.2290 C.ar    1  UNL1       -0.0067
     10 C         -26.0984    2.4436   29.4094 C.3     1  UNL1        0.1217
     11 C         -25.8602    3.5115   30.4219 C.2     1  UNL1        0.2400
     12 N         -26.1611    4.7837   30.1558 N.am    1  UNL1       -0.2162
     13 C         -25.8600    5.7605   30.9239 C.2     1  UNL1        0.2895
     14 BR        -25.9400    7.4806   30.3587 Br      1  UNL1        0.0150
     15 O         -25.4333    5.6381   32.1490 O.2     1  UNL1       -0.2619
     16 O         -25.5855    3.1221   31.6027 O.2     1  UNL1       -0.2737
     17 C         -24.8427    1.7378   25.9611 C.ar    1  UNL1        0.0029
     18 C         -23.7320    2.6395   25.9972 C.ar    1  UNL1        0.0001
     19 C         -23.7136    3.6299   27.0396 C.ar    1  UNL1       -0.0003
     20 C         -24.4615    3.5978   28.0847 C.ar    1  UNL1       -0.0034
     21 O         -26.3824   -0.4539   26.5456 O.2     1  UNL1       -0.2866
     22 F         -29.3343   -1.9137   30.1275 F       1  UNL1       -0.2042
     23 C         -26.8659    5.0852   28.8735 C.3     1  UNL1        0.1282
     24 C         -28.1229    5.7347   29.0595 C.ar    1  UNL1       -0.0019
     25 C         -29.0206    5.0925   28.7845 C.ar    1  UNL1       -0.0026
     26 C         -30.4057    5.6050   28.9608 C.ar    1  UNL1       -0.0003
     27 C         -30.5271    6.9411   29.3985 C.ar    1  UNL1       -0.0000
     28 C         -29.4428    7.6724   29.6552 C.ar    1  UNL1       -0.0003
     29 C         -28.1839    7.0968   29.5129 C.ar    1  UNL1       -0.0026
@<TRIPOS>BOND
     1     3     4    1
     2     4     8    1
     3     7    10    1
     4     9    10    1
     5    10    11    1
     6    11    12   am
     7    12    13   am
     8    13    14    1
     9    13    15    2
    10    11    16    2
    11     4    21    2
    12     2    22    1
    13    12    23    1
    14    23    24    1
    15     8    17   ar
    16    17    18   ar
    17    18    19   ar
    18    19    20   ar
    19    20     9   ar
    20     9     8   ar
    21    24    25   ar
    22    25    26   ar
    23    26    27   ar
    24    27    28   ar
    25    28    29   ar
    26    29    24   ar
    27     1     2   ar
    28     2     5   ar
    29     5     6   ar
    30     6     7   ar
    31     7     3   ar
    32     3     1   ar
