@<TRIPOS>MOLECULE
No_4036-gen_results/8p0m/2024-11-26-14-13-15/
 17 17 0 0 0
SMALL
GASTEIGER

@<TRIPOS>ATOM
      1 C         -28.0162   -0.8135   28.8779 C.ar    1  UNL1       -0.0039
      2 C         -28.4690   -0.7850   29.8287 C.ar    1  UNL1       -0.0003
      3 C         -28.1960    0.3478   28.0550 C.ar    1  UNL1       -0.0178
      4 C         -29.0191    1.3501   28.3782 C.ar    1  UNL1       -0.0039
      5 C         -29.6249    1.2683   29.6012 C.ar    1  UNL1       -0.0003
      6 C         -30.5243    2.3146   30.0648 C.2     1  UNL1       -0.0000
      7 C         -29.3399    0.1476   30.4094 C.ar    1  UNL1       -0.0000
      8 C         -30.1322    2.9927   31.1194 C.2     1  UNL1       -0.0000
      9 C         -28.8620    2.8080   31.7894 C.2     1  UNL1       -0.0000
     10 C         -28.5052    3.6475   32.8859 C.2     1  UNL1        0.0000
     11 C         -27.4499    0.3255   26.6738 C.3     1  UNL1        0.0523
     12 C         -26.4432    1.3488   26.4634 C.2     1  UNL1       -0.0214
     13 C         -25.3439    1.4243   27.3729 C.2     1  UNL1       -0.0042
     14 C         -24.3674    2.4066   27.1398 C.2     1  UNL1       -0.0003
     15 C         -23.1965    2.4724   27.9350 C.2     1  UNL1       -0.0000
     16 C         -22.8726    1.3095   28.7594 C.2     1  UNL1       -0.0000
     17 C         -23.7900    0.2929   28.8438 C.2     1  UNL1       -0.0000
@<TRIPOS>BOND
     1     5     6    1
     2     6     8    2
     3     8     9    1
     4     9    10    2
     5     3    11    1
     6    11    12    1
     7    12    13    2
     8    13    14    1
     9    14    15    2
    10    15    16    1
    11    16    17    2
    12     1     2   ar
    13     2     7   ar
    14     7     5   ar
    15     5     4   ar
    16     4     3   ar
    17     3     1   ar
