@<TRIPOS>MOLECULE
No_4037-gen_results/8p0m/2024-11-26-14-13-15/
 24 26 0 0 0
SMALL
GASTEIGER

@<TRIPOS>ATOM
      1 C         -28.0162   -0.8135   28.8779 C.2     1  UNL1       -0.0033
      2 C         -28.4690   -0.7850   29.8287 C.2     1  UNL1       -0.0023
      3 C         -26.5042   -0.7777   28.8766 C.2     1  UNL1       -0.0062
      4 C         -25.8103   -0.8531   30.1028 C.3     1  UNL1        0.1181
      5 C         -27.9906   -0.8916   31.2257 C.2     1  UNL1        0.0076
      6 C         -26.6042   -0.8676   31.2652 C.3     1  UNL1        0.1915
      7 C         -24.3894   -0.8049   30.1638 C.3     1  UNL1        0.0293
      8 C         -23.8172    0.4762   29.9118 C.3     1  UNL1        0.1049
      9 C         -22.5010    0.5449   29.4097 C.3     1  UNL1        0.0113
     10 C         -21.7696   -0.6524   29.2129 C.3     1  UNL1        0.0006
     11 C         -23.6812   -1.3591   31.3252 C.3     1  UNL1        0.0022
     12 C         -23.9090   -1.7904   28.9731 C.3     1  UNL1        0.0021
     13 C         -22.9852   -1.6671   28.5501 C.3     1  UNL1        0.0001
     14 CL        -25.6953   -1.8751   30.0790 Cl      1  UNL1       -0.1088
     15 C         -25.8632   -0.4117   27.6308 C.ar    1  UNL1       -0.0028
     16 C         -24.4095    1.7296   30.4064 C.2     1  UNL1        0.3644
     17 O         -24.7900    2.5978   29.5300 O.co2   1  UNL1       -0.2457
     18 O         -24.6871    1.9023   31.6785 O.co2   1  UNL1       -0.2457
     19 O         -26.1746   -0.8662   32.6042 O.3     1  UNL1       -0.2167
     20 C         -26.4397    0.6334   26.8617 C.ar    1  UNL1       -0.0003
     21 C         -25.8700    1.0298   25.6589 C.ar    1  UNL1       -0.0000
     22 C         -24.6118    0.4097   25.3518 C.ar    1  UNL1       -0.0000
     23 C         -24.6983   -0.7804   26.9955 C.ar    1  UNL1       -0.0003
     24 C         -24.1163   -0.3170   25.9079 C.ar    1  UNL1       -0.0000
@<TRIPOS>BOND
     1     1     2    1
     2     1     3    2
     3     3     4    1
     4     2     5    2
     5     4     6    1
     6     5     6    1
     7     4     7    1
     8     7     8    1
     9     9    10    1
    10     7    11    1
    11     7    12    1
    12    10    13    1
    13    12    13    1
    14     4    14    1
    15     3    15    1
    16     8    16    1
    17    16    17   ar
    18    16    18   ar
    19     6    19    1
    20     8     9    1
    21    15    20   ar
    22    20    21   ar
    23    21    22   ar
    24    22    24   ar
    25    24    23   ar
    26    23    15   ar
