@<TRIPOS>MOLECULE
No_4038-gen_results/8p0m/2024-11-26-14-13-15/
 11 11 0 0 0
SMALL
GASTEIGER

@<TRIPOS>ATOM
      1 C         -28.0162   -0.8135   28.8779 C.ar    1  UNL1        0.0114
      2 C         -28.4690   -0.7850   29.8287 C.ar    1  UNL1        0.0577
      3 C         -26.5455   -0.8762   28.8500 C.ar    1  UNL1        0.0005
      4 C         -25.8041   -1.0324   30.0571 C.ar    1  UNL1       -0.0042
      5 C         -27.9437   -0.9869   31.2075 C.ar    1  UNL1        0.0114
      6 C         -26.5825   -1.0386   31.2231 C.ar    1  UNL1        0.0005
      7 C         -24.3810   -1.1082   30.0855 C.2     1  UNL1       -0.0261
      8 C         -23.6421   -1.1177   29.0486 C.2     1  UNL1       -0.0300
      9 C         -22.1825   -0.9779   29.1035 C.3     1  UNL1        0.0304
     10 C         -23.9807   -2.1285   31.1201 C.3     1  UNL1        0.0307
     11 CL        -30.3291   -0.6941   29.9735 Cl      1  UNL1       -0.0822
@<TRIPOS>BOND
     1     4     7    1
     2     7     8    2
     3     8     9    1
     4     7    10    1
     5     2    11    1
     6     1     2   ar
     7     2     5   ar
     8     5     6   ar
     9     6     4   ar
    10     4     3   ar
    11     3     1   ar
