@<TRIPOS>MOLECULE
No_4039-gen_results/8p0m/2024-11-26-14-13-15/
 24 26 0 0 0
SMALL
GASTEIGER

@<TRIPOS>ATOM
      1 C         -28.0162   -0.8135   28.8779 C.3     1  UNL1        0.0647
      2 C         -28.4690   -0.7850   29.8287 C.3     1  UNL1        0.0104
      3 C         -26.5455   -0.8762   28.8500 C.2     1  UNL1        0.1527
      4 C         -25.8041   -1.0324   30.0571 C.3     1  UNL1        0.0883
      5 C         -26.5373   -1.0386   31.2171 C.3     1  UNL1        0.1588
      6 C         -27.8843   -0.9532   31.1862 C.3     1  UNL1        0.0338
      7 C         -24.3655   -1.1134   30.0483 C.3     1  UNL1        0.0146
      8 C         -23.6925    0.1188   29.9185 C.3     1  UNL1        0.0287
      9 C         -22.3936    0.1820   29.3480 C.ar    1  UNL1       -0.0030
     10 C         -21.7683    1.3866   29.0594 C.ar    1  UNL1       -0.0011
     11 C         -24.2178    1.3685   30.4361 C.3     1  UNL1        0.0304
     12 C         -25.4658    1.3892   31.1183 C.ar    1  UNL1       -0.0258
     13 C         -20.7932    1.3042   28.0101 C.ar    1  UNL1        0.0204
     14 C         -25.8230    2.8605   31.5161 C.ar    1  UNL1       -0.0046
     15 C         -26.6299    3.0217   32.5324 C.ar    1  UNL1       -0.0003
     16 C         -27.1733    1.9024   33.2255 C.ar    1  UNL1       -0.0003
     17 C         -26.5699    0.7232   33.1356 C.ar    1  UNL1       -0.0046
     18 C         -25.6701    0.5263   32.1606 C.ar    1  UNL1       -0.0258
     19 O         -26.0615   -1.8847   32.1662 O.3     1  UNL1       -0.2227
     20 C         -24.3852    0.0482   32.6470 C.3     1  UNL1        0.0307
     21 O         -25.8343   -0.8449   27.6939 O.2     1  UNL1       -0.2960
     22 C         -21.6610   -0.9678   29.0991 C.ar    1  UNL1        0.0946
     23 N         -20.4817   -0.9515   28.4243 N.ar    1  UNL1       -0.2426
     24 C         -20.0613    0.2348   27.9392 C.ar    1  UNL1        0.0989
@<TRIPOS>BOND
     1     1     3    1
     2     3     4    1
     3     4     5    1
     4     2     6    1
     5     4     7    1
     6     7     8    1
     7     8    11    1
     8    11    12    1
     9     5    19    1
    10    18    20    1
    11     3    21    2
    12     8     9    1
    13     1     2    1
    14     6     5    1
    15     9    10   ar
    16    10    13   ar
    17    13    24   ar
    18    24    23   ar
    19    23    22   ar
    20    22     9   ar
    21    12    14   ar
    22    14    15   ar
    23    15    16   ar
    24    16    17   ar
    25    17    18   ar
    26    18    12   ar
