@<TRIPOS>MOLECULE
No_404-gen_results/8p0m/2024-11-26-14-13-15/
 35 38 0 0 0
SMALL
GASTEIGER

@<TRIPOS>ATOM
      1 O         -28.1229   -1.3353   28.4874 O.2     1  UNL1       -0.2692
      2 C         -27.4806   -0.4044   28.7094 C.2     1  UNL1        0.2565
      3 C         -26.3804   -0.0867   27.9394 C.ar    1  UNL1        0.0543
      4 N         -27.6664    0.4468   29.8988 N.am    1  UNL1       -0.2339
      5 C         -25.1773   -0.4388   28.3946 C.ar    1  UNL1        0.0054
      6 C         -23.9281   -0.2469   27.6677 C.ar    1  UNL1        0.0002
      7 C         -24.0115    0.7683   26.6848 C.ar    1  UNL1        0.0000
      8 C         -25.2436    1.2341   26.2435 C.ar    1  UNL1        0.0001
      9 C         -26.3955    0.8712   26.8685 C.ar    1  UNL1        0.0045
     10 C         -28.7606    0.1154   30.7715 C.ar    1  UNL1        0.0584
     11 C         -26.8564    1.5271   30.2014 C.ar    1  UNL1        0.0586
     12 C         -26.3607    1.6712   31.1605 C.ar    1  UNL1        0.0152
     13 C         -25.4189    2.8248   31.4036 C.ar    1  UNL1        0.0015
     14 C         -25.1253    3.6354   30.3047 C.ar    1  UNL1        0.0067
     15 C         -25.7254    3.3604   29.0813 C.ar    1  UNL1        0.0810
     16 C         -26.5942    2.3240   29.0053 C.ar    1  UNL1        0.0218
     17 C         -25.3765    4.3439   28.0226 C.2     1  UNL1        0.3878
     18 O         -26.2152    4.7704   27.3942 O.co2   1  UNL1       -0.2406
     19 O         -24.1400    4.8046   27.9611 O.co2   1  UNL1       -0.2406
     20 C         -28.5621   -1.0265   31.4305 C.ar    1  UNL1        0.0152
     21 C         -29.5399   -1.8497   31.6751 C.ar    1  UNL1        0.0012
     22 C         -30.8230   -1.3340   31.4999 C.ar    1  UNL1        0.0001
     23 C         -31.9282   -2.1243   31.7163 C.ar    1  UNL1        0.0000
     24 C         -31.7445   -3.4296   32.0111 C.ar    1  UNL1        0.0000
     25 C         -30.5004   -4.0591   32.1808 C.ar    1  UNL1        0.0000
     26 C         -29.3748   -3.2587   32.0216 C.ar    1  UNL1        0.0000
     27 C         -30.0515    0.3313   30.1022 C.ar    1  UNL1        0.0152
     28 C         -30.8787   -0.1618   30.5608 C.ar    1  UNL1        0.0013
     29 C         -24.9510   -1.4640   29.4978 C.2     1  UNL1        0.0142
     30 C         -24.9637   -2.5457   29.4114 C.2     1  UNL1        0.0721
     31 C         -25.4558   -3.7538   29.2426 C.3     1  UNL1        0.0825
     32 C         -26.8608   -3.9053   29.5634 C.2     1  UNL1        0.1011
     33 N         -27.4652   -4.8980   30.1430 N.2     1  UNL1       -0.1510
     34 C         -24.9164   -4.9615   28.7637 C.3     1  UNL1        0.0126
     35 N         -23.4818   -2.9228   28.9419 N.pl3   1  UNL1       -0.1324
@<TRIPOS>BOND
     1     1     2    2
     2     2     3    1
     3     2     4   am
     4     4    10    1
     5     4    11    1
     6    15    17    1
     7    17    18   ar
     8    17    19   ar
     9     5    29    1
    10    29    30    2
    11    30    31    1
    12    31    32    1
    13    32    33    2
    14    31    34    1
    15    30    35    1
    16    11    12   ar
    17    12    13   ar
    18    13    14   ar
    19    14    15   ar
    20    15    16   ar
    21    16    11   ar
    22     3     5   ar
    23     5     6   ar
    24     6     7   ar
    25     7     8   ar
    26     8     9   ar
    27     9     3   ar
    28    10    20   ar
    29    20    21   ar
    30    22    28   ar
    31    28    27   ar
    32    27    10   ar
    33    21    22   ar
    34    22    23   ar
    35    23    24   ar
    36    24    25   ar
    37    25    26   ar
    38    26    21   ar
