@<TRIPOS>MOLECULE
No_4040-gen_results/8p0m/2024-11-26-14-13-15/
 24 26 0 0 0
SMALL
GASTEIGER

@<TRIPOS>ATOM
      1 C         -28.0162   -0.8135   28.8779 C.ar    1  UNL1        0.0744
      2 C         -27.0636   -0.1189   28.6079 C.ar    1  UNL1        0.1483
      3 C         -26.9287    1.1713   29.0083 C.ar    1  UNL1        0.0377
      4 C         -27.9560    1.7411   29.7840 C.ar    1  UNL1        0.0062
      5 C         -29.0569   -0.3271   29.7466 C.ar    1  UNL1        0.1421
      6 C         -28.9828    0.9722   30.1516 C.ar    1  UNL1        0.0371
      7 O         -25.9339   -0.3797   27.8301 O.3     1  UNL1       -0.4532
      8 C         -24.7266   -0.5324   28.5167 C.ar    1  UNL1        0.1516
      9 C         -23.7709    0.4953   28.3339 C.ar    1  UNL1        0.0377
     10 C         -22.4858    0.2884   28.9377 C.ar    1  UNL1        0.0031
     11 C         -24.4288   -1.6882   29.1578 C.ar    1  UNL1        0.1142
     12 C         -25.3918   -2.7580   29.3451 C.2     1  UNL1        0.3907
     13 C         -22.2361   -0.9309   29.5786 C.ar    1  UNL1        0.0004
     14 C         -23.1636   -1.8878   29.7258 C.ar    1  UNL1        0.0097
     15 O         -26.3354   -2.6963   30.1902 O.co2   1  UNL1       -0.2404
     16 O         -25.4196   -3.8329   28.4704 O.co2   1  UNL1       -0.2404
     17 O         -30.0916   -1.1435   30.0929 O.3     1  UNL1       -0.4705
     18 C         -29.8418   -2.1441   30.8912 C.3     1  UNL1        0.2320
     19 C         -30.3569   -3.4131   30.4244 C.ar    1  UNL1        0.0212
     20 C         -29.6072   -4.5651   30.8837 C.ar    1  UNL1       -0.0007
     21 C         -30.0503   -5.3603   31.4058 C.ar    1  UNL1       -0.0002
     22 C         -31.4077   -5.8713   31.0247 C.ar    1  UNL1       -0.0000
     23 C         -32.1683   -4.8801   30.3431 C.ar    1  UNL1       -0.0002
     24 C         -31.5841   -3.6289   30.1337 C.ar    1  UNL1       -0.0007
@<TRIPOS>BOND
     1     2     7    1
     2     7     8    1
     3    11    12    1
     4    12    15   ar
     5    12    16   ar
     6     5    17    1
     7    17    18    1
     8    18    19    1
     9     8     9   ar
    10     9    10   ar
    11    10    13   ar
    12    13    14   ar
    13    14    11   ar
    14    11     8   ar
    15     1     2   ar
    16     2     3   ar
    17     3     4   ar
    18     4     6   ar
    19     6     5   ar
    20     5     1   ar
    21    19    20   ar
    22    20    21   ar
    23    21    22   ar
    24    22    23   ar
    25    23    24   ar
    26    24    19   ar
