@<TRIPOS>MOLECULE
No_4041-gen_results/8p0m/2024-11-26-14-13-15/
 26 28 0 0 0
SMALL
GASTEIGER

@<TRIPOS>ATOM
      1 C         -28.0162   -0.8135   28.8779 C.ar    1  UNL1        0.0671
      2 C         -28.4690   -0.7850   29.8287 C.ar    1  UNL1        0.1432
      3 C         -26.5042   -0.7777   28.8766 C.ar    1  UNL1        0.1475
      4 C         -25.8103   -0.8531   30.1028 C.ar    1  UNL1        0.0375
      5 C         -27.9906   -0.8916   31.2257 C.ar    1  UNL1        0.0298
      6 C         -26.6042   -0.8676   31.2652 C.ar    1  UNL1        0.0054
      7 F         -29.9203   -0.8331   29.8239 F       1  UNL1       -0.2041
      8 C         -24.3796   -0.8022   30.1424 C.ar    1  UNL1        0.0379
      9 C         -23.8075    0.5641   30.1478 C.ar    1  UNL1        0.0060
     10 C         -22.5259    0.7178   29.5746 C.ar    1  UNL1        0.0377
     11 C         -21.7994   -0.4296   29.1566 C.ar    1  UNL1        0.1712
     12 N         -22.3965   -1.6253   29.1236 N.ar    1  UNL1       -0.2095
     13 C         -23.6665   -1.7924   29.4990 C.ar    1  UNL1        0.1712
     14 N         -24.2475   -2.9402   29.5051 N.pl3   1  UNL1       -0.1072
     15 N         -20.5868   -0.1562   28.6545 N.pl3   1  UNL1       -0.1072
     16 O         -25.7815   -0.7273   27.7338 O.3     1  UNL1       -0.4534
     17 C         -26.0999    0.1342   26.7570 C.ar    1  UNL1        0.1450
     18 C         -26.2685    1.2134   26.8811 C.ar    1  UNL1        0.0336
     19 C         -25.8860   -0.5101   25.4427 C.ar    1  UNL1        0.0375
     20 C         -26.5835    2.1240   25.7920 C.ar    1  UNL1       -0.0148
     21 C         -26.1090    0.2267   24.3092 C.ar    1  UNL1        0.0028
     22 C         -26.9251    3.4954   25.9369 C.3     1  UNL1        0.0521
     23 C         -26.4160    1.5168   24.5037 C.ar    1  UNL1       -0.0037
     24 C         -26.1202    4.2849   26.8143 C.2     1  UNL1       -0.0260
     25 C         -26.6036    5.4544   27.3839 C.2     1  UNL1       -0.0300
     26 C         -25.7428    6.3211   28.1420 C.3     1  UNL1        0.0304
@<TRIPOS>BOND
     1     2     7    1
     2     4     8    1
     3    13    14    1
     4    11    15    1
     5     3    16    1
     6    16    17    1
     7    20    22    1
     8    22    24    1
     9    24    25    2
    10    25    26    1
    11    17    18   ar
    12    18    20   ar
    13    20    23   ar
    14    23    21   ar
    15    21    19   ar
    16    19    17   ar
    17     8     9   ar
    18     9    10   ar
    19    10    11   ar
    20    11    12   ar
    21    12    13   ar
    22    13     8   ar
    23     1     2   ar
    24     2     5   ar
    25     5     6   ar
    26     6     4   ar
    27     4     3   ar
    28     3     1   ar
