@<TRIPOS>MOLECULE
No_4042-gen_results/8p0m/2024-11-26-14-13-15/
 26 27 0 0 0
SMALL
GASTEIGER

@<TRIPOS>ATOM
      1 C         -28.0162   -0.8135   28.8779 C.ar    1  UNL1        0.0099
      2 C         -28.4690   -0.7850   29.8287 C.ar    1  UNL1        0.0004
      3 C         -27.0871    0.2903   28.6377 C.ar    1  UNL1        0.1176
      4 C         -26.8317    1.2487   29.5869 C.ar    1  UNL1        0.1474
      5 C         -28.3914    0.0801   31.0065 C.ar    1  UNL1        0.0022
      6 C         -27.4940    1.1521   30.7841 C.ar    1  UNL1        0.0277
      7 C         -26.3109    0.3918   27.3640 C.2     1  UNL1        0.4126
      8 N         -25.1298    0.0734   27.3738 N.2     1  UNL1       -0.0583
      9 N         -26.9694    0.4111   26.1587 N.pl3   1  UNL1        0.2159
     10 C         -24.1039    0.2628   26.6872 C.3     1  UNL1        0.2637
     11 C         -23.9398    1.5923   26.3885 C.3     1  UNL1        0.0666
     12 C         -23.2435    2.5361   27.2967 C.3     1  UNL1        0.1079
     13 C         -22.6157    1.8589   28.3190 C.3     1  UNL1        0.3979
     14 F         -21.4237    1.5060   28.0801 F       1  UNL1       -0.1700
     15 F         -22.4786    2.7370   29.4620 F       1  UNL1       -0.1700
     16 F         -23.2980    0.8663   28.8733 F       1  UNL1       -0.1700
     17 C         -27.3025    2.2015   31.8185 C.2     1  UNL1        0.0023
     18 C         -27.5458    3.4245   31.5995 C.2     1  UNL1        0.0033
     19 C         -28.0968    3.9128   30.4934 C.ar    1  UNL1        0.0390
     20 C         -28.2310    5.3371   30.2414 C.ar    1  UNL1        0.0032
     21 C         -28.6814    5.8352   29.0315 C.ar    1  UNL1        0.0002
     22 C         -29.0282    4.8795   28.0332 C.ar    1  UNL1        0.0033
     23 C         -28.9150    3.5579   28.1714 C.ar    1  UNL1        0.0420
     24 C         -28.4080    3.1551   29.3699 C.ar    1  UNL1        0.1956
     25 F         -27.5330    2.4243   29.2794 F       1  UNL1       -0.2039
     26 O         -29.5571    2.3051   29.9154 O.3     1  UNL1       -0.2866
@<TRIPOS>BOND
     1     3     7    1
     2     7     8    2
     3     7     9    1
     4     8    10    1
     5    10    11    1
     6    11    12    1
     7    12    13    1
     8    13    14    1
     9    13    15    1
    10    13    16    1
    11     6    17    1
    12    17    18    2
    13    18    19    1
    14     4    25    1
    15    24    26    1
    16     1     2   ar
    17     2     5   ar
    18     5     6   ar
    19     6     4   ar
    20     4     3   ar
    21     3     1   ar
    22    19    20   ar
    23    20    21   ar
    24    21    22   ar
    25    22    23   ar
    26    23    24   ar
    27    24    19   ar
