@<TRIPOS>MOLECULE
No_4043-gen_results/8p0m/2024-11-26-14-13-15/
 29 31 0 0 0
SMALL
GASTEIGER

@<TRIPOS>ATOM
      1 C         -28.0162   -0.8135   28.8779 C.ar    1  UNL1        0.0002
      2 C         -27.0636   -0.1189   28.6079 C.ar    1  UNL1        0.0000
      3 C         -26.9287    1.1713   29.0083 C.ar    1  UNL1        0.0004
      4 C         -25.7702    2.0341   28.6884 C.ar    1  UNL1        0.0066
      5 C         -24.7141    1.4431   27.9188 C.ar    1  UNL1        0.0798
      6 C         -24.8590    0.0783   27.5836 C.ar    1  UNL1        0.0066
      7 C         -25.9647   -0.6606   27.9164 C.ar    1  UNL1        0.0002
      8 C         -29.2406   -0.2045   29.0738 C.ar    1  UNL1        0.0065
      9 C         -29.2782    1.1474   29.4856 C.ar    1  UNL1        0.0760
     10 C         -28.1299    1.9048   29.3190 C.ar    1  UNL1        0.0065
     11 C         -23.4452    2.0905   27.6766 C.2     1  UNL1        0.3878
     12 O         -22.5104    1.9017   27.3064 O.co2   1  UNL1       -0.2406
     13 O         -23.6587    3.5141   27.9268 O.co2   1  UNL1       -0.2406
     14 C         -30.5190    1.7624   30.0040 C.2     1  UNL1        0.3454
     15 O         -31.4657    1.8568   29.4759 O.2     1  UNL1       -0.2445
     16 O         -30.2410    2.5677   31.0852 O.3     1  UNL1       -0.4250
     17 C         -31.0469    2.8351   31.9645 C.2     1  UNL1        0.1335
     18 C         -30.6599    3.6780   32.7178 C.2     1  UNL1        0.0335
     19 C         -31.4624    1.5385   32.6409 C.3     1  UNL1        0.1233
     20 P         -32.2391    1.8078   34.1289 P.3     1  UNL1        0.1248
     21 O         -33.2660    2.1122   34.1261 O.2     1  UNL1       -0.4597
     22 O         -31.5087    2.5648   34.9499 O.3     1  UNL1       -0.3568
     23 O         -32.0357    0.2647   34.7494 O.3     1  UNL1       -0.3568
     24 C         -30.3138    4.9984   32.0458 C.ar    1  UNL1        0.0027
     25 C         -30.8623    5.6383   31.2800 C.ar    1  UNL1        0.0001
     26 C         -30.4408    6.8480   30.6419 C.ar    1  UNL1        0.0000
     27 C         -29.2313    7.3658   31.0611 C.ar    1  UNL1        0.0000
     28 C         -28.4888    6.7255   32.0400 C.ar    1  UNL1        0.0000
     29 C         -28.9840    5.5924   32.6143 C.ar    1  UNL1        0.0001
@<TRIPOS>BOND
     1     5    11    1
     2    11    12   ar
     3    11    13   ar
     4     9    14    1
     5    14    15    2
     6    14    16    1
     7    16    17    1
     8    17    18    2
     9    17    19    1
    10    19    20    1
    11    20    21    2
    12    20    22    1
    13    20    23    1
    14    18    24    1
    15     3     4   ar
    16     4     5   ar
    17     5     6   ar
    18     6     7   ar
    19     7     2   ar
    20    24    25   ar
    21    25    26   ar
    22    26    27   ar
    23    27    28   ar
    24    28    29   ar
    25    29    24   ar
    26     1     2   ar
    27     2     3   ar
    28     3    10   ar
    29    10     9   ar
    30     9     8   ar
    31     8     1   ar
