@<TRIPOS>MOLECULE
No_4044-gen_results/8p0m/2024-11-26-14-13-15/
 29 31 0 0 0
SMALL
GASTEIGER

@<TRIPOS>ATOM
      1 C         -28.0162   -0.8135   28.8779 C.ar    1  UNL1        0.0026
      2 C         -28.4690   -0.7850   29.8287 C.ar    1  UNL1        0.0795
      3 C         -26.5455   -0.8762   28.8500 C.ar    1  UNL1       -0.0176
      4 C         -25.6825   -0.7773   27.6829 C.3     1  UNL1        0.0521
      5 C         -27.9181   -1.0034   31.1877 C.ar    1  UNL1        0.0066
      6 C         -26.5308   -1.0794   31.2463 C.ar    1  UNL1       -0.0001
      7 C         -25.7867   -1.0660   30.1501 C.ar    1  UNL1       -0.0039
      8 C         -25.2280    0.5795   27.3390 C.ar    1  UNL1       -0.0226
      9 C         -23.9756    0.8712   27.7671 C.ar    1  UNL1       -0.0176
     10 C         -23.3895    2.1068   27.3553 C.ar    1  UNL1       -0.0043
     11 C         -25.9562    1.4639   26.5828 C.ar    1  UNL1        0.0102
     12 C         -25.4500    2.6491   26.1671 C.ar    1  UNL1       -0.0016
     13 C         -24.0912    3.0041   26.5797 C.ar    1  UNL1       -0.0006
     14 C         -30.0521   -0.7008   29.8924 C.2     1  UNL1        0.3877
     15 O         -30.5819    0.2949   30.4707 O.co2   1  UNL1       -0.2406
     16 O         -30.6942   -1.5191   29.2421 O.co2   1  UNL1       -0.2406
     17 C         -23.1005   -0.0014   28.6069 C.3     1  UNL1        0.1293
     18 C         -22.5525    0.4728   29.8572 C.3     1  UNL1        0.4017
     19 F         -23.3031    0.4065   30.7404 F       1  UNL1       -0.1697
     20 F         -21.4642   -0.3031   30.0504 F       1  UNL1       -0.1697
     21 F         -22.0311    1.6850   29.6897 F       1  UNL1       -0.1697
     22 C         -27.2932    1.1422   26.0919 C.3     1  UNL1        0.2053
     23 C         -28.2571    2.1238   26.0274 C.ar    1  UNL1        0.0141
     24 C         -28.1920    3.0955   26.8537 C.ar    1  UNL1       -0.0013
     25 C         -29.2829    4.1239   26.8597 C.ar    1  UNL1       -0.0002
     26 C         -30.2057    3.9977   25.8094 C.ar    1  UNL1       -0.0000
     27 C         -30.1877    3.0163   24.9006 C.ar    1  UNL1       -0.0002
     28 C         -29.1894    2.0579   24.9907 C.ar    1  UNL1       -0.0013
     29 F         -27.1854    0.4646   24.8951 F       1  UNL1       -0.2275
@<TRIPOS>BOND
     1     3     4    1
     2     4     8    1
     3     2    14    1
     4    14    15   ar
     5    14    16   ar
     6     9    17    1
     7    17    18    1
     8    18    19    1
     9    18    20    1
    10    18    21    1
    11    11    22    1
    12    22    29    1
    13    22    23    1
    14    23    24   ar
    15    24    25   ar
    16    25    26   ar
    17    26    27   ar
    18    27    28   ar
    19    28    23   ar
    20     8     9   ar
    21     9    10   ar
    22    10    13   ar
    23    13    12   ar
    24    12    11   ar
    25    11     8   ar
    26     1     2   ar
    27     2     5   ar
    28     5     6   ar
    29     6     7   ar
    30     7     3   ar
    31     3     1   ar
