@<TRIPOS>MOLECULE
No_4045-gen_results/8p0m/2024-11-26-14-13-15/
 16 17 0 0 0
SMALL
GASTEIGER

@<TRIPOS>ATOM
      1 C         -28.0162   -0.8135   28.8779 C.ar    1  UNL1        0.0038
      2 C         -27.0636   -0.1189   28.6079 C.ar    1  UNL1        0.0191
      3 C         -27.0010    0.6913   27.4910 C.ar    1  UNL1        0.0025
      4 C         -28.1373    0.7363   26.6350 C.ar    1  UNL1        0.0295
      5 C         -29.2360    0.0765   27.0690 C.ar    1  UNL1        0.1401
      6 C         -29.2177   -0.6429   28.1747 C.ar    1  UNL1        0.0297
      7 F         -30.3222    0.1455   26.3092 F       1  UNL1       -0.2042
      8 C         -25.7269   -0.1942   29.4070 C.ar    1  UNL1        0.1003
      9 N         -24.6244   -0.1089   28.8939 N.ar    1  UNL1       -0.2277
     10 C         -24.3654    0.3288   27.7425 C.ar    1  UNL1        0.1474
     11 C         -25.5308    0.7912   26.9392 C.ar    1  UNL1        0.0116
     12 N         -23.1672    0.7695   27.3048 N.pl3   1  UNL1       -0.1988
     13 C         -22.0788    0.6917   28.1680 C.2     1  UNL1        0.0502
     14 C         -20.8309    1.3228   27.7981 C.2     1  UNL1        0.0132
     15 C         -22.1430    0.3710   29.4021 C.3     1  UNL1        0.0493
     16 C         -25.3514    1.4130   25.6536 C.3     1  UNL1        0.0340
@<TRIPOS>BOND
     1     5     7    1
     2    10    12    1
     3    12    13    1
     4    13    14    2
     5    13    15    1
     6    11    16    1
     7     1     2   ar
     8     3     4   ar
     9     4     5   ar
    10     5     6   ar
    11     6     1   ar
    12     2     3   ar
    13     3    11   ar
    14    11    10   ar
    15    10     9   ar
    16     9     8   ar
    17     8     2   ar
