@<TRIPOS>MOLECULE
No_4046-gen_results/8p0m/2024-11-26-14-13-15/
 15 16 0 0 0
SMALL
GASTEIGER

@<TRIPOS>ATOM
      1 C         -28.0162   -0.8135   28.8779 C.ar    1  UNL1        0.0066
      2 C         -28.4690   -0.7850   29.8287 C.ar    1  UNL1        0.0798
      3 C         -27.0871    0.2903   28.6377 C.ar    1  UNL1        0.0002
      4 C         -26.7676    1.0274   29.4716 C.ar    1  UNL1        0.0000
      5 C         -28.2764    0.0268   31.0145 C.ar    1  UNL1        0.0066
      6 C         -27.3287    1.0538   30.7535 C.ar    1  UNL1        0.0002
      7 C         -25.7516    2.1742   29.2500 C.ar    1  UNL1        0.0000
      8 C         -25.3424    2.8864   29.9134 C.ar    1  UNL1        0.0000
      9 C         -25.2136    2.1538   27.8073 C.ar    1  UNL1        0.0000
     10 C         -24.1949    3.1155   27.4760 C.ar    1  UNL1        0.0000
     11 C         -24.3423    4.0236   29.7083 C.ar    1  UNL1        0.0000
     12 C         -23.8139    4.0276   28.4302 C.ar    1  UNL1        0.0000
     13 C         -29.5224   -1.9855   30.2418 C.2     1  UNL1        0.3878
     14 O         -29.3117   -3.1036   30.1473 O.co2   1  UNL1       -0.2406
     15 O         -30.6996   -1.6631   30.7524 O.co2   1  UNL1       -0.2406
@<TRIPOS>BOND
     1     4     7    1
     2     2    13    1
     3    13    14   ar
     4    13    15   ar
     5     7     8   ar
     6     8    11   ar
     7    11    12   ar
     8    12    10   ar
     9    10     9   ar
    10     9     7   ar
    11     1     2   ar
    12     2     5   ar
    13     5     6   ar
    14     6     4   ar
    15     4     3   ar
    16     3     1   ar
