@<TRIPOS>MOLECULE
No_4047-gen_results/8p0m/2024-11-26-14-13-15/
 16 17 0 0 0
SMALL
GASTEIGER

@<TRIPOS>ATOM
      1 C         -28.0162   -0.8135   28.8779 C.ar    1  UNL1        0.0045
      2 C         -28.4690   -0.7850   29.8287 C.ar    1  UNL1        0.0001
      3 C         -27.1356    0.2359   28.5352 C.ar    1  UNL1        0.0539
      4 C         -26.8745    1.2825   29.3982 C.ar    1  UNL1        0.0045
      5 C         -27.5070    1.2380   30.6295 C.ar    1  UNL1        0.0001
      6 C         -28.3293    0.1745   30.9350 C.ar    1  UNL1        0.0000
      7 C         -26.4409    0.0880   27.2474 C.2     1  UNL1        0.2528
      8 N         -26.9058    0.5318   26.0811 N.am    1  UNL1       -0.2534
      9 O         -25.1852   -0.3239   27.2168 O.2     1  UNL1       -0.2696
     10 C         -26.2387    0.3444   24.8117 C.3     1  UNL1        0.1203
     11 C         -28.2318    1.0661   25.9594 C.ar    1  UNL1        0.0542
     12 C         -29.3170    0.3444   25.8976 C.ar    1  UNL1        0.0149
     13 C         -30.5668    0.8873   25.9821 C.ar    1  UNL1        0.0013
     14 C         -30.6677    2.2818   25.9014 C.ar    1  UNL1        0.0001
     15 C         -28.2459    2.5583   26.0087 C.ar    1  UNL1        0.0149
     16 C         -29.5206    3.1598   25.9618 C.ar    1  UNL1        0.0013
@<TRIPOS>BOND
     1     3     7    1
     2     7     8   am
     3     7     9    2
     4     8    10    1
     5     8    11    1
     6     1     2   ar
     7     2     6   ar
     8     6     5   ar
     9     5     4   ar
    10     4     3   ar
    11     3     1   ar
    12    11    12   ar
    13    12    13   ar
    14    13    14   ar
    15    14    16   ar
    16    16    15   ar
    17    15    11   ar
