@<TRIPOS>MOLECULE
No_4049-gen_results/8p0m/2024-11-26-14-13-15/
 15 17 0 0 0
SMALL
GASTEIGER

@<TRIPOS>ATOM
      1 C         -28.0162   -0.8135   28.8779 C.ar    1  UNL1       -0.0038
      2 C         -28.4690   -0.7850   29.8287 C.ar    1  UNL1       -0.0003
      3 C         -27.1356    0.2359   28.5352 C.ar    1  UNL1       -0.0147
      4 C         -26.8745    1.2825   29.3982 C.ar    1  UNL1        0.0353
      5 C         -28.3613    0.1987   30.9244 C.ar    1  UNL1        0.0001
      6 C         -27.5277    1.2234   30.6356 C.ar    1  UNL1        0.0029
      7 C         -26.3987    0.2949   27.2279 C.3     1  UNL1        0.0528
      8 C         -25.8882    1.5487   26.8334 C.ar    1  UNL1       -0.0147
      9 C         -25.0305    1.5971   25.7327 C.ar    1  UNL1       -0.0038
     10 C         -24.2070    2.7467   25.5869 C.ar    1  UNL1       -0.0003
     11 C         -24.4732    3.8820   26.4616 C.ar    1  UNL1        0.0001
     12 C         -25.3348    3.7814   27.5145 C.ar    1  UNL1        0.0029
     13 C         -25.9782    2.5917   27.7706 C.ar    1  UNL1        0.0353
     14 C         -26.5664    2.4538   29.0327 C.2     1  UNL1        0.1950
     15 O         -26.2444    3.3676   29.9596 O.2     1  UNL1       -0.2866
@<TRIPOS>BOND
     1     3     7    1
     2     4    14    1
     3    13    14    1
     4    14    15    2
     5     7     8    1
     6     8     9   ar
     7     9    10   ar
     8    10    11   ar
     9    11    12   ar
    10    12    13   ar
    11    13     8   ar
    12     1     2   ar
    13     2     5   ar
    14     5     6   ar
    15     6     4   ar
    16     4     3   ar
    17     3     1   ar
