@<TRIPOS>MOLECULE
No_405-gen_results/8p0m/2024-11-26-14-13-15/
 19 19 0 0 0
SMALL
GASTEIGER

@<TRIPOS>ATOM
      1 C         -28.0162   -0.8135   28.8779 C.2     1  UNL1        0.2491
      2 C         -27.0636   -0.1189   28.6079 C.ar    1  UNL1        0.0536
      3 C         -26.9287    1.1713   29.0083 C.ar    1  UNL1        0.0047
      4 C         -25.7702    2.0341   28.6884 C.ar    1  UNL1        0.0050
      5 C         -24.7141    1.4431   27.9188 C.ar    1  UNL1        0.0593
      6 C         -24.8590    0.0783   27.5836 C.ar    1  UNL1        0.0050
      7 C         -25.9647   -0.6606   27.9164 C.ar    1  UNL1        0.0047
      8 N         -27.9820   -1.6112   30.1028 N.am    1  UNL1       -0.2743
      9 C         -23.5351    2.1704   27.5550 C.2     1  UNL1        0.2968
     10 N         -22.4638    1.6493   27.0986 N.2     1  UNL1       -0.1025
     11 O         -23.4384    3.3966   27.9238 O.2     1  UNL1       -0.2636
     12 O         -29.2109   -0.5827   28.5099 O.2     1  UNL1       -0.2699
     13 C         -29.0415   -2.4929   30.5740 C.3     1  UNL1        0.0956
     14 C         -26.6889   -1.8881   30.7753 C.3     1  UNL1        0.1152
     15 C         -29.4121   -2.1594   31.8728 C.3     1  UNL1        0.0448
     16 C         -30.0806   -0.9026   32.0398 C.3     1  UNL1        0.1140
     17 N         -30.0146   -0.4126   33.1013 N.pl3   1  UNL1       -0.2363
     18 C         -29.2999    0.0875   33.7758 C.2     1  UNL1        0.0801
     19 C         -29.5590    0.9486   34.9160 C.2     1  UNL1        0.0188
@<TRIPOS>BOND
     1     1     2    1
     2     1     8   am
     3     5     9    1
     4     9    10    2
     5     9    11    1
     6     1    12    2
     7     8    13    1
     8     8    14    1
     9    13    15    1
    10    15    16    1
    11    16    17    1
    12    17    18    1
    13    18    19    2
    14     2     3   ar
    15     3     4   ar
    16     4     5   ar
    17     5     6   ar
    18     6     7   ar
    19     7     2   ar
