@<TRIPOS>MOLECULE
No_4050-gen_results/8p0m/2024-11-26-14-13-15/
 22 23 0 0 0
SMALL
GASTEIGER

@<TRIPOS>ATOM
      1 C         -28.0162   -0.8135   28.8779 C.3     1  UNL1        0.1440
      2 C         -27.0636   -0.1189   28.6079 C.ar    1  UNL1        0.0144
      3 C         -27.0010    0.6913   27.4910 C.ar    1  UNL1        0.0636
      4 C         -25.8548    1.4825   27.0830 C.ar    1  UNL1        0.0224
      5 C         -24.6901    1.4526   27.8807 C.ar    1  UNL1        0.0810
      6 C         -24.7379    0.6010   29.0416 C.ar    1  UNL1        0.0064
      7 C         -25.8234   -0.1688   29.3887 C.ar    1  UNL1       -0.0011
      8 N         -28.7300   -0.5298   30.0429 N.am    1  UNL1       -0.1868
      9 C         -29.6775   -1.3126   30.5974 C.2     1  UNL1        0.3262
     10 CL        -30.1771   -2.6517   29.8890 Cl      1  UNL1       -0.0208
     11 O         -30.2639   -0.9443   31.6810 O.2     1  UNL1       -0.2551
     12 C         -23.5274    2.2135   27.5453 C.2     1  UNL1        0.3878
     13 O         -23.4327    2.7969   26.4327 O.co2   1  UNL1       -0.2406
     14 O         -22.3735    1.9999   28.1748 O.co2   1  UNL1       -0.2406
     15 N         -28.1681    0.7321   26.8551 N.pl3   1  UNL1       -0.2331
     16 C         -28.7139    1.8779   26.3213 C.3     1  UNL1        0.1385
     17 C         -29.6337    2.2744   26.2106 C.ar    1  UNL1       -0.0007
     18 C         -30.7900    1.5996   26.7640 C.ar    1  UNL1       -0.0026
     19 C         -32.0373    2.0282   26.9151 C.ar    1  UNL1       -0.0003
     20 C         -32.3206    3.1575   26.2576 C.ar    1  UNL1       -0.0000
     21 C         -31.4298    3.9683   25.5975 C.ar    1  UNL1       -0.0003
     22 C         -30.0285    3.6102   25.6271 C.ar    1  UNL1       -0.0026
@<TRIPOS>BOND
     1     1     2    1
     2     1     8    1
     3     8     9   am
     4     9    10    1
     5     9    11    2
     6     5    12    1
     7    12    13   ar
     8    12    14   ar
     9     3    15    1
    10    15    16    1
    11    16    17    1
    12    17    18   ar
    13    18    19   ar
    14    19    20   ar
    15    20    21   ar
    16    21    22   ar
    17    22    17   ar
    18     2     3   ar
    19     3     4   ar
    20     4     5   ar
    21     5     6   ar
    22     6     7   ar
    23     7     2   ar
