@<TRIPOS>MOLECULE
No_4051-gen_results/8p0m/2024-11-26-14-13-15/
 11 11 0 0 0
SMALL
GASTEIGER

@<TRIPOS>ATOM
      1 O         -28.1229   -1.3353   28.4874 O.co2   1  UNL1       -0.2424
      2 C         -28.5208   -0.4363   29.0779 C.2     1  UNL1        0.3989
      3 O         -27.9150    0.0780   30.0386 O.co2   1  UNL1       -0.2424
      4 C         -29.8074    0.1885   28.6630 C.3     1  UNL1        0.2763
      5 C         -29.7096    1.3760   28.1635 C.ar    1  UNL1        0.0188
      6 C         -30.6214    1.8870   27.5825 C.ar    1  UNL1       -0.0013
      7 O         -30.6728    0.0768   29.8115 O.3     1  UNL1       -0.2060
      8 C         -31.0243    2.2447   26.7324 C.ar    1  UNL1       -0.0002
      9 C         -30.2304    2.0191   25.4451 C.ar    1  UNL1       -0.0000
     10 C         -28.8670    1.7864   25.6858 C.ar    1  UNL1       -0.0002
     11 C         -28.5438    1.4006   26.9881 C.ar    1  UNL1       -0.0013
@<TRIPOS>BOND
     1     1     2   ar
     2     2     3   ar
     3     2     4    1
     4     4     5    1
     5     4     7    1
     6     5     6   ar
     7     6     8   ar
     8     8     9   ar
     9     9    10   ar
    10    10    11   ar
    11    11     5   ar
