@<TRIPOS>MOLECULE
No_4052-gen_results/8p0m/2024-11-26-14-13-15/
 12 13 0 0 0
SMALL
GASTEIGER

@<TRIPOS>ATOM
      1 C         -28.0162   -0.8135   28.8779 C.ar    1  UNL1        0.0000
      2 C         -27.0636   -0.1189   28.6079 C.ar    1  UNL1        0.0000
      3 C         -25.7923   -0.4302   29.0761 C.ar    1  UNL1        0.0000
      4 C         -24.5456    0.3494   28.8225 C.ar    1  UNL1        0.0016
      5 C         -24.6586    1.4196   27.8878 C.ar    1  UNL1        0.0210
      6 C         -25.9471    1.6811   27.3792 C.ar    1  UNL1        0.0016
      7 C         -27.0439    0.9739   27.6871 C.ar    1  UNL1        0.0000
      8 C         -28.0485   -1.5981   30.1629 C.ar    1  UNL1        0.0000
      9 C         -26.7598   -2.0713   30.6119 C.ar    1  UNL1        0.0000
     10 C         -25.6104   -1.4023   30.1708 C.ar    1  UNL1        0.0000
     11 C         -23.4418    2.1630   27.5308 C.2     1  UNL1        0.1221
     12 N         -22.2517    1.7305   27.9652 N.2     1  UNL1       -0.1464
@<TRIPOS>BOND
     1     5    11    1
     2    11    12    2
     3     3     4   ar
     4     4     5   ar
     5     5     6   ar
     6     6     7   ar
     7     7     2   ar
     8     1     2   ar
     9     2     3   ar
    10     3    10   ar
    11    10     9   ar
    12     9     8   ar
    13     8     1   ar
