@<TRIPOS>MOLECULE
No_4053-gen_results/8p0m/2024-11-26-14-13-15/
 12 12 0 0 0
SMALL
GASTEIGER

@<TRIPOS>ATOM
      1 C         -28.0162   -0.8135   28.8779 C.ar    1  UNL1        0.0692
      2 C         -27.0636   -0.1190   28.6079 C.ar    1  UNL1        0.0787
      3 C         -26.9716    0.7139   27.5060 C.ar    1  UNL1        0.0692
      4 C         -28.1053    0.7744   26.6421 C.ar    1  UNL1        0.0189
      5 C         -29.2008    0.1044   27.0527 C.ar    1  UNL1        0.0815
      6 C         -29.2096   -0.6029   28.1853 C.ar    1  UNL1        0.0189
      7 C         -30.2851    0.2916   26.0027 C.2     1  UNL1        0.3878
      8 O         -30.9770    1.0934   26.0318 O.co2   1  UNL1       -0.2406
      9 O         -30.6294   -0.9419   25.5036 O.co2   1  UNL1       -0.2406
     10 CL        -25.5267   -0.2210   29.5929 Cl      1  UNL1       -0.0805
     11 CL        -28.0911   -1.8304   30.3386 Cl      1  UNL1       -0.0813
     12 CL        -25.3517    1.3887   27.1825 Cl      1  UNL1       -0.0813
@<TRIPOS>BOND
     1     5     7    1
     2     7     8   ar
     3     7     9   ar
     4     2    10    1
     5     1    11    1
     6     3    12    1
     7     1     2   ar
     8     2     3   ar
     9     3     4   ar
    10     4     5   ar
    11     5     6   ar
    12     6     1   ar
