@<TRIPOS>MOLECULE
No_4055-gen_results/8p0m/2024-11-26-14-13-15/
 33 35 0 0 0
SMALL
GASTEIGER

@<TRIPOS>ATOM
      1 C         -28.0162   -0.8135   28.8779 C.2     1  UNL1       -0.0034
      2 C         -27.0636   -0.1190   28.6079 C.ar    1  UNL1        0.0103
      3 C         -27.0010    0.6913   27.4910 C.ar    1  UNL1        0.0574
      4 C         -25.8548    1.4825   27.0830 C.ar    1  UNL1        0.0084
      5 C         -24.6901    1.4526   27.8807 C.ar    1  UNL1       -0.0051
      6 C         -24.7379    0.6010   29.0416 C.ar    1  UNL1       -0.0030
      7 C         -25.8234   -0.1688   29.3887 C.ar    1  UNL1        0.0005
      8 C         -28.7350   -0.4637   30.1419 C.2     1  UNL1       -0.0214
      9 C         -29.7910   -1.3607   30.6434 C.3     1  UNL1        0.0524
     10 C         -30.0295   -2.4276   29.9358 C.ar    1  UNL1       -0.0148
     11 C         -31.1519   -3.1894   30.4786 C.ar    1  UNL1        0.0336
     12 C         -31.4905   -4.4180   29.8140 C.ar    1  UNL1        0.1450
     13 C         -30.5741   -4.9869   28.9769 C.ar    1  UNL1        0.0375
     14 C         -29.2722   -4.5469   28.9878 C.ar    1  UNL1        0.0028
     15 C         -28.9635   -3.3002   29.5228 C.ar    1  UNL1       -0.0037
     16 C         -23.5003    2.1762   27.5672 C.3     1  UNL1        0.1211
     17 CL        -22.3528    1.6864   26.9222 Cl      1  UNL1       -0.1085
     18 O         -32.7045   -5.0386   29.9776 O.3     1  UNL1       -0.4535
     19 CL        -28.3316    0.7865   26.4546 Cl      1  UNL1       -0.0823
     20 C         -33.5476   -4.8672   30.8747 C.ar    1  UNL1        0.1454
     21 C         -33.4948   -4.9459   31.9828 C.ar    1  UNL1        0.0375
     22 C         -34.4901   -4.7042   33.0265 C.ar    1  UNL1        0.0033
     23 C         -35.7550   -4.3928   32.4932 C.ar    1  UNL1        0.0048
     24 C         -34.8328   -4.3338   30.3317 C.ar    1  UNL1        0.0421
     25 C         -35.8730   -4.1597   31.1560 C.ar    1  UNL1        0.0584
     26 C         -37.1722   -3.7397   30.5994 C.2     1  UNL1        0.2691
     27 O         -37.8022   -4.1551   29.8191 O.2     1  UNL1       -0.2680
     28 N         -37.5739   -2.4696   31.2266 N.am    1  UNL1       -0.1741
     29 C         -38.7907   -1.8612   30.8186 C.2     1  UNL1        0.0889
     30 C         -39.5662   -2.0336   30.1283 C.2     1  UNL1        0.0176
     31 C         -39.5456   -3.2393   29.3510 C.2     1  UNL1       -0.0032
     32 C         -38.7490   -4.1620   29.1431 C.2     1  UNL1       -0.0257
     33 C         -38.8698   -5.2845   28.2689 C.3     1  UNL1        0.0307
@<TRIPOS>BOND
     1     1     2    1
     2     1     8    2
     3     8     9    1
     4     5    16    1
     5    16    17    1
     6    12    18    1
     7     3    19    1
     8    18    20    1
     9    25    26    1
    10    26    27    2
    11    26    28   am
    12    28    29    1
    13    29    30    2
    14    30    31    1
    15    31    32    2
    16    32    33    1
    17     9    10    1
    18     2     3   ar
    19     3     4   ar
    20     4     5   ar
    21     5     6   ar
    22     6     7   ar
    23     7     2   ar
    24    20    21   ar
    25    21    22   ar
    26    22    23   ar
    27    23    25   ar
    28    25    24   ar
    29    24    20   ar
    30    10    11   ar
    31    11    12   ar
    32    12    13   ar
    33    13    14   ar
    34    14    15   ar
    35    15    10   ar
