@<TRIPOS>MOLECULE
No_4056-gen_results/8p0m/2024-11-26-14-13-15/
 19 19 0 0 0
SMALL
GASTEIGER

@<TRIPOS>ATOM
      1 C         -28.0162   -0.8135   28.8779 C.2     1  UNL1        0.3877
      2 C         -27.0636   -0.1189   28.6079 C.ar    1  UNL1        0.0796
      3 C         -26.9287    1.1713   29.0083 C.ar    1  UNL1        0.0059
      4 C         -25.7702    2.0341   28.6884 C.ar    1  UNL1        0.0211
      5 C         -24.7141    1.4431   27.9188 C.ar    1  UNL1       -0.0042
      6 C         -24.8590    0.0783   27.5836 C.ar    1  UNL1       -0.0003
      7 C         -25.9647   -0.6606   27.9164 C.ar    1  UNL1        0.0065
      8 O         -27.9926   -1.6899   29.9797 O.co2   1  UNL1       -0.2406
      9 O         -29.2141   -0.3637   28.6591 O.co2   1  UNL1       -0.2406
     10 C         -23.5322    2.1513   27.5604 C.2     1  UNL1       -0.0155
     11 C         -22.3389    2.0677   28.2302 C.2     1  UNL1        0.0819
     12 C         -23.5962    2.8058   26.2602 C.3     1  UNL1        0.0312
     13 C         -22.2484    1.1924   29.3262 C.2     1  UNL1        0.3876
     14 C         -25.6400    3.4203   29.0744 C.3     1  UNL1        0.2321
     15 O         -26.8165    4.0248   29.3043 O.2     1  UNL1       -0.4676
     16 C         -27.0863    5.1673   29.2479 C.2     1  UNL1        0.1728
     17 O         -23.0202    1.3272   30.2831 O.co2   1  UNL1       -0.2406
     18 O         -21.5287    0.1119   29.2689 O.co2   1  UNL1       -0.2406
     19 C         -28.3056    5.7061   29.4686 C.2     1  UNL1        0.0433
@<TRIPOS>BOND
     1     1     2    1
     2     1     8   ar
     3     1     9   ar
     4     5    10    1
     5    10    11    2
     6    10    12    1
     7    11    13    1
     8     4    14    1
     9    14    15    1
    10    15    16    1
    11    13    17   ar
    12    13    18   ar
    13    16    19    2
    14     2     3   ar
    15     3     4   ar
    16     4     5   ar
    17     5     6   ar
    18     6     7   ar
    19     7     2   ar
