@<TRIPOS>MOLECULE
No_4057-gen_results/8p0m/2024-11-26-14-13-15/
 21 23 0 0 0
SMALL
GASTEIGER

@<TRIPOS>ATOM
      1 C         -28.0162   -0.8135   28.8779 C.ar    1  UNL1        0.0030
      2 C         -27.0636   -0.1190   28.6079 C.ar    1  UNL1        0.0353
      3 C         -26.9716    0.7139   27.5060 C.ar    1  UNL1       -0.0152
      4 C         -28.1053    0.7744   26.6421 C.ar    1  UNL1        0.0007
      5 C         -29.2041    0.1179   27.0477 C.ar    1  UNL1        0.0533
      6 C         -29.2127   -0.6088   28.1281 C.ar    1  UNL1        0.0046
      7 C         -25.7106    1.4518   27.1380 C.3     1  UNL1        0.0448
      8 C         -24.6052    0.9253   27.6902 C.ar    1  UNL1       -0.0153
      9 C         -23.3087    1.6018   27.4923 C.ar    1  UNL1       -0.0039
     10 C         -22.1769    1.1971   28.2745 C.ar    1  UNL1       -0.0003
     11 C         -22.2182    0.0930   29.0619 C.ar    1  UNL1        0.0001
     12 C         -23.4005   -0.6727   29.1615 C.ar    1  UNL1        0.0029
     13 C         -24.5560   -0.2221   28.5396 C.ar    1  UNL1        0.0353
     14 C         -25.7306   -0.6018   29.1335 C.2     1  UNL1        0.1950
     15 O         -25.7678   -1.5463   30.0092 O.2     1  UNL1       -0.2866
     16 C         -30.5573    0.2639   26.4623 C.2     1  UNL1        0.2491
     17 N         -30.6579    0.4779   25.2565 N.am    1  UNL1       -0.2726
     18 O         -31.6081    0.1960   27.1081 O.2     1  UNL1       -0.2699
     19 C         -25.7634    2.4912   26.1582 C.3     1  UNL1        0.0094
     20 C         -29.5260    0.6506   24.3002 C.3     1  UNL1        0.1152
     21 C         -31.9329    0.5866   24.5140 C.3     1  UNL1        0.1152
@<TRIPOS>BOND
     1     3     7    1
     2     2    14    1
     3    13    14    1
     4    14    15    2
     5     5    16    1
     6    16    17   am
     7    16    18    2
     8     7    19    1
     9    17    20    1
    10    17    21    1
    11     7     8    1
    12     1     2   ar
    13     2     3   ar
    14     3     4   ar
    15     4     5   ar
    16     5     6   ar
    17     6     1   ar
    18     8     9   ar
    19     9    10   ar
    20    10    11   ar
    21    11    12   ar
    22    12    13   ar
    23    13     8   ar
