@<TRIPOS>MOLECULE
No_4058-gen_results/8p0m/2024-11-26-14-13-15/
 17 18 0 0 0
SMALL
GASTEIGER

@<TRIPOS>ATOM
      1 C         -28.0162   -0.8135   28.8779 C.3     1  UNL1        0.1385
      2 C         -27.0636   -0.1189   28.6079 C.ar    1  UNL1       -0.0007
      3 C         -26.9716    0.7139   27.5060 C.ar    1  UNL1       -0.0023
      4 C         -25.8205    1.4909   27.1160 C.ar    1  UNL1        0.0063
      5 C         -24.6562    1.4242   27.9180 C.ar    1  UNL1        0.0798
      6 C         -24.6847    0.5901   29.0659 C.ar    1  UNL1        0.0063
      7 C         -25.8099   -0.1265   29.3338 C.ar    1  UNL1       -0.0023
      8 N         -29.1935   -0.1896   29.0164 N.pl3   1  UNL1       -0.2328
      9 C         -23.4634    2.1759   27.6079 C.2     1  UNL1        0.3878
     10 O         -22.5548    1.7016   27.1338 O.co2   1  UNL1       -0.2406
     11 O         -23.4216    3.4032   28.0937 O.co2   1  UNL1       -0.2406
     12 C         -30.2859   -0.7560   29.5994 C.ar    1  UNL1        0.0657
     13 C         -31.5074   -0.4983   29.0960 C.ar    1  UNL1        0.0161
     14 C         -30.1630   -0.5678   31.0952 C.ar    1  UNL1        0.0161
     15 C         -30.6844    0.1554   31.6013 C.ar    1  UNL1        0.0013
     16 C         -32.0950    0.5485   31.2521 C.ar    1  UNL1        0.0001
     17 C         -32.4425    0.2613   29.9167 C.ar    1  UNL1        0.0013
@<TRIPOS>BOND
     1     1     8    1
     2     5     9    1
     3     9    10   ar
     4     9    11   ar
     5     8    12    1
     6     1     2    1
     7     2     3   ar
     8     3     4   ar
     9     4     5   ar
    10     5     6   ar
    11     6     7   ar
    12     7     2   ar
    13    12    13   ar
    14    13    17   ar
    15    17    16   ar
    16    16    15   ar
    17    15    14   ar
    18    14    12   ar
