@<TRIPOS>MOLECULE
No_4059-gen_results/8p0m/2024-11-26-14-13-15/
 17 19 0 0 0
SMALL
GASTEIGER

@<TRIPOS>ATOM
      1 O         -28.1229   -1.3353   28.4874 O.2     1  UNL1       -0.2730
      2 C         -27.0637   -0.8242   28.8687 C.2     1  UNL1        0.2450
      3 C         -26.4017   -0.0623   28.6224 C.3     1  UNL1        0.1010
      4 N         -26.5721   -1.5844   30.1172 N.am    1  UNL1       -0.2052
      5 C         -26.6982    0.9644   27.6453 C.ar    1  UNL1       -0.0172
      6 C         -27.5862    1.2950   27.2709 C.ar    1  UNL1       -0.0041
      7 C         -27.8083    2.2940   26.1148 C.ar    1  UNL1       -0.0003
      8 C         -26.6186    2.8245   25.6006 C.ar    1  UNL1       -0.0003
      9 C         -25.3849    2.4175   26.0392 C.ar    1  UNL1       -0.0040
     10 C         -25.2984    1.5515   27.0697 C.ar    1  UNL1       -0.0153
     11 C         -25.3669   -1.4476   30.6407 C.3     1  UNL1        0.1152
     12 C         -24.5546   -0.4929   30.1975 C.3     1  UNL1        0.0251
     13 C         -24.9313    0.2843   29.2509 C.3     1  UNL1        0.0293
     14 C         -24.1106    1.1797   27.7918 C.3     1  UNL1        0.1261
     15 C         -22.8281    1.4547   27.9845 C.2     1  UNL1        0.3684
     16 O         -22.3918    2.3932   27.2832 O.co2   1  UNL1       -0.2453
     17 O         -22.0657    0.9249   28.9164 O.co2   1  UNL1       -0.2453
@<TRIPOS>BOND
     1     1     2    2
     2     2     3    1
     3     2     4   am
     4     3     5    1
     5    11    12    1
     6     3    13    1
     7    10    14    1
     8    13    14    1
     9    14    15    1
    10    15    16   ar
    11    15    17   ar
    12    13    12    1
    13    11     4    1
    14     5     6   ar
    15     6     7   ar
    16     7     8   ar
    17     8     9   ar
    18     9    10   ar
    19    10     5   ar
