@<TRIPOS>MOLECULE
No_4060-gen_results/8p0m/2024-11-26-14-13-15/
 10 10 0 0 0
SMALL
GASTEIGER

@<TRIPOS>ATOM
      1 C         -28.0162   -0.8135   28.8779 C.ar    1  UNL1       -0.0003
      2 C         -27.0636   -0.1189   28.6079 C.ar    1  UNL1       -0.0040
      3 C         -26.8756    1.1325   28.9134 C.ar    1  UNL1       -0.0184
      4 C         -25.6883    1.9515   28.5672 C.3     1  UNL1        0.0443
      5 C         -25.5093    3.3042   28.8859 C.3     1  UNL1        0.0094
      6 C         -29.0972   -0.2347   29.6994 C.ar    1  UNL1       -0.0000
      7 C         -29.0303    1.0730   30.0324 C.ar    1  UNL1       -0.0003
      8 C         -27.8549    1.8594   29.6797 C.ar    1  UNL1       -0.0040
      9 C         -24.6654    1.3370   27.7414 C.2     1  UNL1       -0.0221
     10 C         -24.1507    0.2583   27.8326 C.2     1  UNL1       -0.0046
@<TRIPOS>BOND
     1     3     4    1
     2     4     5    1
     3     4     9    1
     4     9    10    2
     5     1     2   ar
     6     2     3   ar
     7     3     8   ar
     8     8     7   ar
     9     7     6   ar
    10     6     1   ar
