@<TRIPOS>MOLECULE
No_4061-gen_results/8p0m/2024-11-26-14-13-15/
 20 21 0 0 0
SMALL
GASTEIGER

@<TRIPOS>ATOM
      1 C         -28.0162   -0.8135   28.8779 C.ar    1  UNL1        0.0375
      2 C         -27.0636   -0.1190   28.6079 C.ar    1  UNL1        0.0031
      3 C         -25.7923   -0.4302   29.0761 C.ar    1  UNL1        0.0002
      4 C         -25.5756   -1.5654   29.9363 C.ar    1  UNL1        0.0031
      5 C         -26.7354   -2.3004   30.2173 C.ar    1  UNL1        0.0375
      6 C         -27.9184   -1.9537   29.7629 C.ar    1  UNL1        0.1455
      7 O         -29.0001   -2.7012   30.1151 O.3     1  UNL1       -0.4481
      8 C         -24.5290    0.3490   28.7998 C.ar    1  UNL1        0.0000
      9 C         -23.3442    0.0060   29.1658 C.ar    1  UNL1        0.0000
     10 C         -22.1783    0.7811   28.7783 C.ar    1  UNL1        0.0000
     11 C         -22.3217    1.7499   27.7727 C.ar    1  UNL1        0.0000
     12 C         -24.6102    1.3558   27.7479 C.ar    1  UNL1        0.0000
     13 C         -23.5148    2.0341   27.3068 C.ar    1  UNL1        0.0000
     14 C         -30.1256   -2.1340   30.5841 C.2     1  UNL1        0.2130
     15 C         -31.1953   -2.7166   30.1353 C.2     1  UNL1        0.2485
     16 C         -31.1822   -3.9862   29.6791 C.3     1  UNL1        0.4474
     17 F         -29.9837   -4.3464   29.5057 F       1  UNL1       -0.1637
     18 F         -31.7783   -4.8769   30.5009 F       1  UNL1       -0.1637
     19 F         -31.8248   -3.9849   28.5279 F       1  UNL1       -0.1637
     20 F         -32.1281   -2.6405   31.2141 F       1  UNL1       -0.1968
@<TRIPOS>BOND
     1     6     7    1
     2     3     8    1
     3     7    14    1
     4    14    15    2
     5    15    16    1
     6    16    17    1
     7    16    18    1
     8    16    19    1
     9    15    20    1
    10     1     2   ar
    11     2     3   ar
    12     3     4   ar
    13     4     5   ar
    14     5     6   ar
    15     6     1   ar
    16     8     9   ar
    17     9    10   ar
    18    10    11   ar
    19    11    13   ar
    20    13    12   ar
    21    12     8   ar
