@<TRIPOS>MOLECULE
No_4062-gen_results/8p0m/2024-11-26-14-13-15/
 24 26 0 0 0
SMALL
GASTEIGER

@<TRIPOS>ATOM
      1 C         -28.0162   -0.8135   28.8779 C.ar    1  UNL1        0.0046
      2 C         -27.0636   -0.1189   28.6079 C.ar    1  UNL1        0.0001
      3 C         -25.7647   -0.3897   29.0360 C.ar    1  UNL1        0.0000
      4 C         -25.5296   -1.5302   29.9014 C.ar    1  UNL1        0.0001
      5 C         -26.6577   -2.2915   30.2035 C.ar    1  UNL1        0.0046
      6 C         -27.8548   -1.9555   29.7630 C.ar    1  UNL1        0.0554
      7 C         -24.5349    0.4128   28.7431 C.ar    1  UNL1        0.0000
      8 C         -24.4835    1.2431   27.7398 C.ar    1  UNL1        0.0000
      9 C         -23.2788    1.9376   27.4159 C.ar    1  UNL1        0.0000
     10 C         -22.0791    1.6509   28.0212 C.ar    1  UNL1        0.0000
     11 C         -23.2748    0.1108   29.4386 C.ar    1  UNL1        0.0000
     12 C         -22.0811    0.7712   29.0650 C.ar    1  UNL1        0.0000
     13 C         -29.0182   -2.7946   30.1855 C.2     1  UNL1        0.2690
     14 N         -28.8634   -4.0953   30.4584 N.am    1  UNL1       -0.1754
     15 C         -29.8675   -5.0034   30.2260 C.ar    1  UNL1        0.0739
     16 C         -30.3271   -5.7132   31.3754 C.ar    1  UNL1        0.0166
     17 C         -31.2578   -6.7939   31.2062 C.ar    1  UNL1        0.0015
     18 O         -30.1129   -2.3014   30.4201 O.2     1  UNL1       -0.2680
     19 C         -31.7047   -7.0887   29.9073 C.ar    1  UNL1        0.0067
     20 C         -31.2217   -6.3508   28.7931 C.ar    1  UNL1        0.0811
     21 C         -30.2611   -5.3542   28.9780 C.ar    1  UNL1        0.0232
     22 C         -31.6792   -6.6893   27.4513 C.2     1  UNL1        0.3878
     23 O         -31.2218   -7.6180   26.8154 O.co2   1  UNL1       -0.2406
     24 O         -32.3652   -5.7615   26.7972 O.co2   1  UNL1       -0.2406
@<TRIPOS>BOND
     1     3     7    1
     2     6    13    1
     3    13    14   am
     4    14    15    1
     5    13    18    2
     6    20    22    1
     7    22    23   ar
     8    22    24   ar
     9     7     8   ar
    10     8     9   ar
    11     9    10   ar
    12    10    12   ar
    13    12    11   ar
    14    11     7   ar
    15     1     2   ar
    16     2     3   ar
    17     3     4   ar
    18     4     5   ar
    19     5     6   ar
    20     6     1   ar
    21    15    16   ar
    22    16    17   ar
    23    17    19   ar
    24    19    20   ar
    25    20    21   ar
    26    21    15   ar
