@<TRIPOS>MOLECULE
No_4063-gen_results/8p0m/2024-11-26-14-13-15/
 17 19 0 0 0
SMALL
GASTEIGER

@<TRIPOS>ATOM
      1 C         -28.0162   -0.8135   28.8779 C.ar    1  UNL1       -0.0228
      2 C         -28.4690   -0.7850   29.8287 C.ar    1  UNL1       -0.0043
      3 C         -28.1960    0.3478   28.0550 C.ar    1  UNL1       -0.0082
      4 C         -27.4421    0.5100   26.7946 C.ar    1  UNL1       -0.0264
      5 C         -26.1689   -0.0794   26.6787 C.3     1  UNL1        0.0264
      6 C         -25.7312   -0.9607   27.6875 C.3     1  UNL1        0.0090
      7 C         -26.5043   -1.2222   28.7582 C.3     1  UNL1        0.0226
      8 C         -29.5802   -0.2435   30.2170 C.ar    1  UNL1       -0.0003
      9 C         -30.0568    0.7240   29.3104 C.ar    1  UNL1       -0.0000
     10 C         -29.3596    1.0530   28.1223 C.ar    1  UNL1       -0.0006
     11 C         -29.8113    2.0045   27.1772 C.ar    1  UNL1       -0.0004
     12 C         -27.7294    1.4311   25.7446 C.ar    1  UNL1       -0.0258
     13 C         -27.1615    1.6927   24.7206 C.3     1  UNL1        0.0307
     14 C         -29.0724    2.1801   26.1062 C.ar    1  UNL1       -0.0046
     15 C         -26.0759   -2.2622   29.7233 C.3     1  UNL1        0.0040
     16 C         -24.7176   -2.3425   29.8632 C.3     1  UNL1        0.0003
     17 C         -26.7747   -3.5958   29.5148 C.3     1  UNL1        0.0003
@<TRIPOS>BOND
     1     4     5    1
     2     5     6    1
     3     1     7    1
     4     6     7    1
     5    12    13    1
     6     7    15    1
     7    15    16    1
     8    15    17    1
     9     3     4   ar
    10     4    12   ar
    11    12    14   ar
    12    14    11   ar
    13    11    10   ar
    14     1     2   ar
    15     2     8   ar
    16     8     9   ar
    17     9    10   ar
    18    10     3   ar
    19     3     1   ar
