@<TRIPOS>MOLECULE
No_4064-gen_results/8p0m/2024-11-26-14-13-15/
 23 25 0 0 0
SMALL
GASTEIGER

@<TRIPOS>ATOM
      1 O         -28.1229   -1.3353   28.4874 O.3     1  UNL1       -0.2655
      2 C         -27.0637   -0.8242   28.8687 C.ar    1  UNL1        0.2755
      3 C         -27.0246    0.1877   29.7358 C.ar    1  UNL1        0.0403
      4 C         -25.8391    0.8513   29.9958 C.ar    1  UNL1        0.0090
      5 N         -25.7786   -0.9958   28.1896 N.ar    1  UNL1       -0.2064
      6 C         -24.6123   -0.4253   28.4392 C.ar    1  UNL1        0.1087
      7 C         -24.5862    0.5561   29.3701 C.ar    1  UNL1        0.0988
      8 C         -23.3312    1.2233   29.6356 C.2     1  UNL1        0.3893
      9 O         -22.2473    0.7836   29.2192 O.co2   1  UNL1       -0.2405
     10 O         -23.3233    2.2194   30.4960 O.co2   1  UNL1       -0.2405
     11 C         -28.2243    0.5230   30.4966 C.3     1  UNL1        0.0575
     12 C         -28.4334    1.7721   30.8698 C.ar    1  UNL1       -0.0176
     13 C         -29.0517    2.5294   30.6418 C.ar    1  UNL1       -0.0036
     14 C         -29.1923    3.9445   31.1912 C.ar    1  UNL1       -0.0003
     15 C         -28.2903    4.2783   32.1854 C.ar    1  UNL1       -0.0000
     16 C         -27.3683    3.2899   32.6333 C.ar    1  UNL1       -0.0003
     17 C         -27.3415    2.0251   31.9994 C.ar    1  UNL1       -0.0039
     18 C         -30.1189    2.4120   29.5507 C.ar    1  UNL1       -0.0003
     19 C         -31.2791    1.8285   29.8042 C.ar    1  UNL1       -0.0000
     20 C         -29.4871    1.9705   28.2422 C.ar    1  UNL1       -0.0000
     21 C         -30.3390    1.6050   27.2340 C.ar    1  UNL1       -0.0000
     22 C         -32.2007    1.5150   28.7857 C.ar    1  UNL1       -0.0000
     23 C         -31.6582    1.3197   27.5130 C.ar    1  UNL1       -0.0000
@<TRIPOS>BOND
     1     1     2    1
     2     7     8    1
     3     8     9   ar
     4     8    10   ar
     5     3    11    1
     6    11    12    1
     7    13    18    1
     8    12    13   ar
     9    13    14   ar
    10    14    15   ar
    11    15    16   ar
    12    16    17   ar
    13    17    12   ar
    14    18    19   ar
    15    19    22   ar
    16    22    23   ar
    17    23    21   ar
    18    21    20   ar
    19    20    18   ar
    20     2     3   ar
    21     3     4   ar
    22     4     7   ar
    23     7     6   ar
    24     6     5   ar
    25     5     2   ar
