@<TRIPOS>MOLECULE
No_4065-gen_results/8p0m/2024-11-26-14-13-15/
 35 38 0 0 0
SMALL
GASTEIGER

@<TRIPOS>ATOM
      1 C         -28.0162   -0.8135   28.8779 C.ar    1  UNL1        0.0067
      2 C         -28.4690   -0.7850   29.8287 C.ar    1  UNL1        0.0798
      3 C         -27.1356    0.2359   28.5352 C.ar    1  UNL1        0.0046
      4 C         -26.8745    1.2825   29.3982 C.ar    1  UNL1        0.0001
      5 C         -28.3613    0.1987   30.9244 C.ar    1  UNL1        0.0066
      6 C         -27.5277    1.2234   30.6356 C.ar    1  UNL1        0.0002
      7 C         -26.3987    0.2949   27.2279 C.2     1  UNL1        0.0536
      8 C         -25.0392    0.2356   27.3538 C.2     1  UNL1        0.0045
      9 C         -24.4371    0.0057   28.5832 C.ar    1  UNL1        0.0001
     10 C         -22.9453    0.2644   28.6076 C.ar    1  UNL1        0.0000
     11 C         -22.1225   -0.3189   29.5575 C.ar    1  UNL1        0.0000
     12 C         -22.7751   -0.9744   30.6212 C.ar    1  UNL1        0.0000
     13 C         -24.6992   -0.8579   29.6834 C.ar    1  UNL1        0.0000
     14 C         -23.9190   -1.3319   30.6284 C.ar    1  UNL1        0.0000
     15 C         -27.1143    0.4688   26.0672 C.2     1  UNL1        0.2490
     16 N         -28.2684    0.7206   25.9138 N.am    1  UNL1       -0.2755
     17 C         -29.0395    1.1667   26.8951 C.3     1  UNL1        0.1048
     18 C         -30.5596    1.3775   26.4603 C.3     1  UNL1        0.1192
     19 C         -28.9585    0.4016   24.6904 C.3     1  UNL1        0.0937
     20 O         -26.3217    0.2987   25.0144 O.2     1  UNL1       -0.2699
     21 C         -30.2722    0.5540   24.3899 C.3     1  UNL1        0.0221
     22 C         -31.4333    1.9154   27.5371 C.2     1  UNL1        0.3226
     23 C         -30.9910    1.0529   25.2739 C.3     1  UNL1        0.0146
     24 O         -32.4418    1.6651   27.7588 O.2     1  UNL1       -0.2496
     25 O         -30.8261    2.9994   28.1818 O.3     1  UNL1       -0.4241
     26 C         -29.5212   -1.8995   30.3019 C.2     1  UNL1        0.3878
     27 O         -29.3145   -2.9277   30.6822 O.co2   1  UNL1       -0.2406
     28 O         -30.8485   -1.6492   29.8891 O.co2   1  UNL1       -0.2406
     29 C         -31.0909    3.2091   29.5353 C.ar    1  UNL1        0.1481
     30 C         -31.6355    2.5596   30.2559 C.ar    1  UNL1        0.0376
     31 C         -31.8025    2.8187   31.6852 C.ar    1  UNL1        0.0028
     32 C         -31.2449    4.0104   32.1407 C.ar    1  UNL1       -0.0041
     33 C         -30.3286    4.4587   29.9598 C.ar    1  UNL1        0.0333
     34 C         -30.5112    4.8193   31.3022 C.ar    1  UNL1       -0.0188
     35 C         -29.8895    6.0834   31.8049 C.3     1  UNL1        0.0311
@<TRIPOS>BOND
     1     3     7    1
     2     7     8    2
     3     8     9    1
     4     7    15    1
     5    15    16   am
     6    16    17    1
     7    16    19    1
     8    15    20    2
     9    19    21    1
    10    18    22    1
    11    18    23    1
    12    22    24    2
    13    22    25    1
    14     2    26    1
    15    26    27   ar
    16    26    28   ar
    17    25    29    1
    18    34    35    1
    19    17    18    1
    20    23    21    1
    21    29    30   ar
    22    30    31   ar
    23    31    32   ar
    24    32    34   ar
    25    34    33   ar
    26    33    29   ar
    27     1     2   ar
    28     2     5   ar
    29     5     6   ar
    30     6     4   ar
    31     4     3   ar
    32     3     1   ar
    33     9    10   ar
    34    10    11   ar
    35    11    12   ar
    36    12    14   ar
    37    14    13   ar
    38    13     9   ar
