@<TRIPOS>MOLECULE
No_4066-gen_results/8p0m/2024-11-26-14-13-15/
 16 17 0 0 0
SMALL
GASTEIGER

@<TRIPOS>ATOM
      1 C         -28.0162   -0.8135   28.8779 C.ar    1  UNL1       -0.0000
      2 C         -27.0636   -0.1189   28.6079 C.ar    1  UNL1       -0.0003
      3 C         -26.9287    1.1713   29.0083 C.ar    1  UNL1       -0.0000
      4 C         -27.9560    1.7411   29.7840 C.ar    1  UNL1       -0.0000
      5 C         -29.0569   -0.3271   29.7466 C.ar    1  UNL1       -0.0000
      6 C         -28.9828    0.9722   30.1516 C.ar    1  UNL1       -0.0000
      7 C         -25.8907   -0.6263   27.7857 C.2     1  UNL1       -0.0042
      8 C         -25.4633    0.1123   26.6815 C.2     1  UNL1       -0.0213
      9 C         -26.2851    1.1179   26.2362 C.3     1  UNL1        0.0555
     10 C         -27.4558    1.2665   26.2589 C.ar    1  UNL1        0.0211
     11 C         -28.0252    2.3085   25.3760 C.ar    1  UNL1       -0.0008
     12 C         -29.4067    2.5066   25.3313 C.ar    1  UNL1       -0.0001
     13 C         -30.2290    1.6254   26.0319 C.ar    1  UNL1        0.0033
     14 C         -29.7359    0.6031   26.7605 C.ar    1  UNL1        0.0417
     15 C         -28.4223    0.3712   26.8667 C.ar    1  UNL1        0.1920
     16 O         -28.0789   -0.7876   26.5243 O.3     1  UNL1       -0.2869
@<TRIPOS>BOND
     1     2     7    1
     2     7     8    2
     3     8     9    1
     4    15    16    1
     5     9    10    1
     6     1     2   ar
     7     2     3   ar
     8     3     4   ar
     9     4     6   ar
    10     6     5   ar
    11     5     1   ar
    12    10    11   ar
    13    11    12   ar
    14    12    13   ar
    15    13    14   ar
    16    14    15   ar
    17    15    10   ar
