@<TRIPOS>MOLECULE
No_4067-gen_results/8p0m/2024-11-26-14-13-15/
 24 27 0 0 0
SMALL
GASTEIGER

@<TRIPOS>ATOM
      1 C         -28.0162   -0.8135   28.8779 C.3     1  UNL1        0.0373
      2 C         -27.0636   -0.1190   28.6079 C.ar    1  UNL1       -0.0255
      3 C         -26.8756    1.1325   28.9134 C.ar    1  UNL1       -0.0251
      4 C         -25.6883    1.9515   28.5672 C.ar    1  UNL1       -0.0125
      5 C         -24.6394    1.2834   27.8753 C.ar    1  UNL1        0.0718
      6 C         -24.8068   -0.0513   27.6040 C.ar    1  UNL1        0.0058
      7 C         -25.9019   -0.7670   27.9511 C.ar    1  UNL1       -0.0044
      8 C         -28.0678   -1.4475   30.2707 C.3     1  UNL1        0.1077
      9 C         -27.0358   -1.6665   30.8241 C.3     1  UNL1        0.0122
     10 C         -29.3980   -1.8840   30.7531 C.2     1  UNL1        0.3646
     11 C         -23.4324    1.9896   27.4857 C.2     1  UNL1        0.3409
     12 O         -22.5375    1.7559   27.0932 O.2     1  UNL1       -0.2449
     13 O         -23.6748    3.4132   27.6420 O.3     1  UNL1       -0.4447
     14 O         -29.5835   -2.9249   31.2333 O.co2   1  UNL1       -0.2457
     15 O         -30.4448   -1.1857   30.3625 O.co2   1  UNL1       -0.2457
     16 C         -27.9174    1.9299   29.6448 C.3     1  UNL1        0.0517
     17 C         -27.8521    3.1592   29.6011 C.ar    1  UNL1       -0.0213
     18 C         -28.7838    3.9179   30.3529 C.ar    1  UNL1       -0.0042
     19 C         -28.7382    5.3486   30.4227 C.ar    1  UNL1       -0.0003
     20 C         -27.7525    5.9841   29.6638 C.ar    1  UNL1       -0.0003
     21 C         -26.7945    5.3004   28.9308 C.ar    1  UNL1       -0.0041
     22 C         -26.8645    3.9042   28.9498 C.ar    1  UNL1       -0.0184
     23 C         -25.7772    3.1536   28.3885 C.3     1  UNL1        0.0880
     24 C         -24.6581    3.9751   27.9664 C.3     1  UNL1        0.2173
@<TRIPOS>BOND
     1     1     8    1
     2     8     9    1
     3     8    10    1
     4     5    11    1
     5    11    12    2
     6    11    13    1
     7    10    14   ar
     8    10    15   ar
     9     3    16    1
    10    16    17    1
    11     4    23    1
    12    22    23    1
    13    13    24    1
    14    23    24    1
    15     1     2    1
    16    17    18   ar
    17    18    19   ar
    18    19    20   ar
    19    20    21   ar
    20    21    22   ar
    21    22    17   ar
    22     2     3   ar
    23     3     4   ar
    24     4     5   ar
    25     5     6   ar
    26     6     7   ar
    27     7     2   ar
