@<TRIPOS>MOLECULE
No_4068-gen_results/8p0m/2024-11-26-14-13-15/
 11 12 0 0 0
SMALL
GASTEIGER

@<TRIPOS>ATOM
      1 C         -28.0162   -0.8135   28.8779 C.ar    1  UNL1        0.0015
      2 C         -28.4690   -0.7850   29.8287 C.ar    1  UNL1        0.0000
      3 C         -27.1356    0.2359   28.5352 C.ar    1  UNL1        0.0183
      4 C         -26.3351    0.2900   27.2835 C.2     1  UNL1        0.0897
      5 C         -28.3692    0.1957   30.9236 C.ar    1  UNL1        0.0000
      6 C         -27.5158    1.2655   30.6540 C.ar    1  UNL1        0.0000
      7 C         -26.8411    1.2942   29.4761 C.ar    1  UNL1        0.0015
      8 N         -25.3575    0.4805   26.9830 N.2     1  UNL1       -0.2349
      9 C         -27.2901    0.2548   26.0023 C.2     1  UNL1        0.0621
     10 C         -25.0749    0.5544   25.6422 C.2     1  UNL1        0.1404
     11 C         -26.3337    0.3832   25.0246 C.1     1  UNL1       -0.0786
@<TRIPOS>BOND
     1     3     4    1
     2     4     8    2
     3     4     9    1
     4     8    10    1
     5     9    11    2
     6    10    11    2
     7     1     2   ar
     8     2     5   ar
     9     5     6   ar
    10     6     7   ar
    11     7     3   ar
    12     3     1   ar
