@<TRIPOS>MOLECULE
No_4069-gen_results/8p0m/2024-11-26-14-13-15/
 18 19 0 0 0
SMALL
GASTEIGER

@<TRIPOS>ATOM
      1 C         -28.0162   -0.8135   28.8779 C.ar    1  UNL1       -0.0000
      2 C         -27.0636   -0.1189   28.6079 C.ar    1  UNL1       -0.0000
      3 C         -26.9287    1.1713   29.0083 C.ar    1  UNL1       -0.0001
      4 C         -25.7702    2.0341   28.6884 C.ar    1  UNL1        0.0025
      5 C         -24.7141    1.4431   27.9188 C.ar    1  UNL1        0.0795
      6 C         -24.8590    0.0783   27.5836 C.ar    1  UNL1        0.0066
      7 C         -25.9647   -0.6606   27.9164 C.ar    1  UNL1        0.0002
      8 C         -28.6510   -0.6086   30.2543 C.ar    1  UNL1       -0.0000
      9 C         -28.9359    0.6863   30.5312 C.ar    1  UNL1       -0.0000
     10 C         -27.8080    1.6040   30.1303 C.ar    1  UNL1       -0.0000
     11 C         -23.5671    2.1807   27.4594 C.2     1  UNL1        0.3877
     12 O         -22.8898    2.7068   28.1103 O.co2   1  UNL1       -0.2406
     13 O         -23.4859    2.2657   26.1056 O.co2   1  UNL1       -0.2406
     14 C         -25.6414    3.4197   29.0895 C.2     1  UNL1       -0.0200
     15 C         -25.2709    3.7348   30.4006 C.2     1  UNL1        0.0183
     16 C         -26.1776    4.3820   28.2477 C.3     1  UNL1        0.0311
     17 C         -24.9711    2.7866   31.4341 C.2     1  UNL1        0.1218
     18 N         -24.8489    3.3181   32.6469 N.2     1  UNL1       -0.1464
@<TRIPOS>BOND
     1     5    11    1
     2    11    12   ar
     3    11    13   ar
     4     4    14    1
     5    14    15    2
     6    14    16    1
     7    15    17    1
     8    17    18    2
     9     3     4   ar
    10     4     5   ar
    11     5     6   ar
    12     6     7   ar
    13     7     2   ar
    14     1     2   ar
    15     2     3   ar
    16     3    10   ar
    17    10     9   ar
    18     9     8   ar
    19     8     1   ar
