@<TRIPOS>MOLECULE
No_407-gen_results/8p0m/2024-11-26-14-13-15/
 11 11 0 0 0
SMALL
GASTEIGER

@<TRIPOS>ATOM
      1 C         -28.0162   -0.8135   28.8779 C.ar    1  UNL1        0.0422
      2 C         -27.0636   -0.1189   28.6079 C.ar    1  UNL1        0.0081
      3 C         -25.7647   -0.3897   29.0360 C.ar    1  UNL1        0.0577
      4 C         -25.5296   -1.5302   29.9014 C.ar    1  UNL1        0.0081
      5 C         -26.6577   -2.2915   30.2035 C.ar    1  UNL1        0.0422
      6 C         -27.8548   -1.9555   29.7630 C.ar    1  UNL1        0.1957
      7 C         -24.5349    0.4128   28.7431 C.2     1  UNL1        0.2749
      8 N         -24.1089    1.1977   29.5212 N.2     1  UNL1       -0.2319
      9 O         -24.2791    0.7356   27.5070 O.2     1  UNL1       -0.2656
     10 C         -22.9600    2.0589   29.3439 C.3     1  UNL1        0.1551
     11 O         -28.9290   -2.7413   30.1323 O.3     1  UNL1       -0.2866
@<TRIPOS>BOND
     1     3     7    1
     2     7     8    2
     3     7     9    1
     4     8    10    1
     5     6    11    1
     6     1     2   ar
     7     2     3   ar
     8     3     4   ar
     9     4     5   ar
    10     5     6   ar
    11     6     1   ar
