@<TRIPOS>MOLECULE
No_4070-gen_results/8p0m/2024-11-26-14-13-15/
 19 19 0 0 0
SMALL
GASTEIGER

@<TRIPOS>ATOM
      1 C         -28.0162   -0.8135   28.8779 C.ar    1  UNL1        0.0435
      2 C         -27.0636   -0.1189   28.6079 C.ar    1  UNL1        0.0828
      3 C         -25.7647   -0.3897   29.0360 C.ar    1  UNL1        0.0068
      4 C         -25.4887   -1.1536   29.7171 C.ar    1  UNL1        0.0033
      5 C         -27.7606   -1.9034   29.8572 C.ar    1  UNL1        0.1395
      6 C         -26.4781   -2.1057   30.2362 C.ar    1  UNL1        0.0369
      7 O         -28.7192   -2.7359   30.2783 O.3     1  UNL1       -0.4656
      8 C         -28.4632   -4.0221   30.5755 C.3     1  UNL1        0.2911
      9 C         -29.6336   -4.6869   31.1831 C.2     1  UNL1        0.2861
     10 O         -29.5505   -5.7669   31.4748 O.2     1  UNL1       -0.2693
     11 N         -30.7085   -3.9658   31.4670 N.am    1  UNL1       -0.1932
     12 C         -31.8800   -4.5814   32.0691 C.3     1  UNL1        0.2180
     13 C         -27.3164    1.0498   27.6197 C.2     1  UNL1        0.3879
     14 O         -26.6155    1.3590   26.7879 O.co2   1  UNL1       -0.2406
     15 O         -28.2652    1.8681   28.0239 O.co2   1  UNL1       -0.2406
     16 C         -31.8501   -4.9983   33.1719 C.3     1  UNL1        0.4174
     17 F         -32.9121   -5.7542   33.5604 F       1  UNL1       -0.1681
     18 F         -31.8053   -3.9671   34.1262 F       1  UNL1       -0.1681
     19 F         -30.8065   -5.7871   33.4635 F       1  UNL1       -0.1681
@<TRIPOS>BOND
     1     5     7    1
     2     7     8    1
     3     8     9    1
     4     9    10    2
     5     9    11   am
     6    11    12    1
     7     2    13    1
     8    13    14   ar
     9    13    15   ar
    10    12    16    1
    11    16    17    1
    12    16    18    1
    13    16    19    1
    14     1     2   ar
    15     2     3   ar
    16     3     4   ar
    17     4     6   ar
    18     6     5   ar
    19     5     1   ar
