@<TRIPOS>MOLECULE
No_4071-gen_results/8p0m/2024-11-26-14-13-15/
 13 13 0 0 0
SMALL
GASTEIGER

@<TRIPOS>ATOM
      1 C         -28.0162   -0.8135   28.8779 C.ar    1  UNL1       -0.0027
      2 C         -28.4690   -0.7850   29.8287 C.ar    1  UNL1        0.0004
      3 C         -27.0871    0.2903   28.6377 C.ar    1  UNL1       -0.0003
      4 C         -26.0238    0.3644   29.2526 C.ar    1  UNL1       -0.0003
      5 C         -27.5370   -0.6187   31.0883 C.ar    1  UNL1       -0.0240
      6 C         -26.3844    0.1834   30.8012 C.ar    1  UNL1       -0.0045
      7 CA        -29.3312   -2.0275   30.3379 C.3     1  UNL1        0.1980
      8 C         -30.7390   -1.7872   30.1479 C.2     1  UNL1        0.3844
      9 O         -31.4165   -2.7720   29.8499 O.co2   1  UNL1       -0.2437
     10 OXT       -31.2449   -0.7434   30.5823 O.co2   1  UNL1       -0.2437
     11 N         -29.0451   -2.5344   31.6923 N.3     1  UNL1       -0.2027
     12 C         -27.7591   -1.2685   32.3204 C.3     1  UNL1        0.0308
     13 C         -29.4998   -3.3554   32.5210 C.3     1  UNL1        0.1084
@<TRIPOS>BOND
     1     2     7    1
     2     7     8    1
     3     8     9   ar
     4     8    10   ar
     5     7    11    1
     6     5    12    1
     7    11    13    1
     8     1     2   ar
     9     2     5   ar
    10     5     6   ar
    11     6     4   ar
    12     4     3   ar
    13     3     1   ar
