@<TRIPOS>MOLECULE
No_4073-gen_results/8p0m/2024-11-26-14-13-15/
 16 17 0 0 0
SMALL
GASTEIGER

@<TRIPOS>ATOM
      1 C         -28.0162   -0.8135   28.8779 C.ar    1  UNL1        0.0002
      2 C         -28.4690   -0.7850   29.8287 C.ar    1  UNL1        0.0031
      3 C         -28.1816    0.4277   28.1134 C.ar    1  UNL1        0.0030
      4 C         -27.4498    0.6435   26.8500 C.ar    1  UNL1        0.0001
      5 C         -26.4529    0.9939   26.6681 C.ar    1  UNL1        0.0000
      6 C         -25.5832    0.4817   25.6004 C.ar    1  UNL1        0.0000
      7 C         -29.4401    0.0830   30.4451 C.ar    1  UNL1        0.0375
      8 C         -29.6515    1.2097   29.7516 C.ar    1  UNL1        0.1454
      9 C         -29.0257    1.4242   28.5721 C.ar    1  UNL1        0.0375
     10 C         -26.2254   -0.2015   24.5680 C.ar    1  UNL1        0.0000
     11 C         -28.3483    0.6546   25.6748 C.ar    1  UNL1        0.0000
     12 C         -27.6230   -0.0400   24.5742 C.ar    1  UNL1        0.0000
     13 O         -30.4878    2.1965   30.2430 O.3     1  UNL1       -0.4508
     14 C         -30.3969    2.6794   31.4190 C.2     1  UNL1        0.1750
     15 C         -30.6830    3.8989   31.6743 C.2     1  UNL1        0.0148
     16 C         -30.6095    4.4523   33.0269 C.3     1  UNL1        0.0341
@<TRIPOS>BOND
     1     3     4    1
     2     8    13    1
     3    13    14    1
     4    14    15    2
     5    15    16    1
     6     4     5   ar
     7     5     6   ar
     8     6    10   ar
     9    10    12   ar
    10    12    11   ar
    11    11     4   ar
    12     1     2   ar
    13     2     7   ar
    14     7     8   ar
    15     8     9   ar
    16     9     3   ar
    17     3     1   ar
