@<TRIPOS>MOLECULE
No_4074-gen_results/8p0m/2024-11-26-14-13-15/
 17 18 0 0 0
SMALL
GASTEIGER

@<TRIPOS>ATOM
      1 C         -28.0162   -0.8135   28.8779 C.ar    1  UNL1       -0.0003
      2 C         -27.0636   -0.1189   28.6079 C.ar    1  UNL1       -0.0045
      3 C         -26.8756    1.1325   28.9134 C.ar    1  UNL1       -0.0229
      4 C         -25.6883    1.9515   28.5672 C.3     1  UNL1        0.0461
      5 C         -25.5093    3.3042   28.8859 C.3     1  UNL1        0.0957
      6 C         -29.0972   -0.2347   29.6994 C.ar    1  UNL1       -0.0003
      7 C         -29.0303    1.0730   30.0324 C.ar    1  UNL1       -0.0029
      8 C         -27.8550    1.8594   29.6796 C.ar    1  UNL1       -0.0063
      9 C         -24.6654    1.3370   27.7414 C.3     1  UNL1        0.0317
     10 C         -23.5581    2.0464   27.2906 C.2     1  UNL1       -0.0303
     11 N         -26.3100    3.9567   29.6991 N.pl3   1  UNL1       -0.3025
     12 C         -25.9839    5.2678   30.0990 C.2     1  UNL1        0.0570
     13 C         -22.4015    1.3302   27.0283 C.2     1  UNL1       -0.0303
     14 C         -26.3207    5.6435   31.3978 C.2     1  UNL1       -0.0100
     15 C         -21.1771    2.1018   27.1940 C.3     1  UNL1        0.0303
     16 C         -27.6085    3.2717   30.0950 C.3     1  UNL1        0.1174
     17 C         -26.8806    6.5567   31.6844 C.3     1  UNL1        0.0321
@<TRIPOS>BOND
     1     3     4    1
     2     4     5    1
     3     4     9    1
     4     9    10    1
     5     5    11    1
     6    11    12    1
     7    10    13    2
     8    12    14    2
     9    13    15    1
    10     8    16    1
    11    11    16    1
    12    14    17    1
    13     1     2   ar
    14     2     3   ar
    15     3     8   ar
    16     8     7   ar
    17     7     6   ar
    18     6     1   ar
