@<TRIPOS>MOLECULE
No_4075-gen_results/8p0m/2024-11-26-14-13-15/
 8 7 0 0 0
SMALL
GASTEIGER

@<TRIPOS>ATOM
      1 CL        -28.1493   -0.8198   28.9079 Cl      1  UNL1       -0.0403
      2 C         -28.5324   -0.0471   29.7727 C.3     1  UNL1        0.3987
      3 F         -27.6515    0.7172   30.3086 F       1  UNL1       -0.1792
      4 C         -29.2530   -0.6893   30.9723 C.3     1  UNL1        0.3987
      5 F         -29.4537    0.8274   29.2449 F       1  UNL1       -0.1792
      6 CL        -28.7370   -0.3157   32.3568 Cl      1  UNL1       -0.0403
      7 F         -30.5991   -0.4767   30.9543 F       1  UNL1       -0.1792
      8 F         -28.9154   -1.9646   31.0971 F       1  UNL1       -0.1792
@<TRIPOS>BOND
     1     1     2    1
     2     2     3    1
     3     2     4    1
     4     2     5    1
     5     4     6    1
     6     4     7    1
     7     4     8    1
