@<TRIPOS>MOLECULE
No_4076-gen_results/8p0m/2024-11-26-14-13-15/
 35 38 0 0 0
SMALL
GASTEIGER

@<TRIPOS>ATOM
      1 C         -28.0162   -0.8135   28.8779 C.ar    1  UNL1        0.0064
      2 C         -27.0636   -0.1189   28.6079 C.ar    1  UNL1        0.0002
      3 C         -25.7647   -0.3897   29.0360 C.ar    1  UNL1        0.0001
      4 C         -24.5516    0.4058   28.7646 C.ar    1  UNL1        0.0032
      5 C         -24.6957    1.4480   27.7988 C.ar    1  UNL1        0.0420
      6 C         -23.5821    2.2166   27.4626 C.ar    1  UNL1        0.1957
      7 C         -22.3211    1.8240   27.9807 C.ar    1  UNL1        0.0420
      8 C         -22.1777    0.8172   28.8883 C.ar    1  UNL1        0.0033
      9 C         -23.3181    0.0418   29.2597 C.ar    1  UNL1        0.0002
     10 C         -27.8970   -1.8952   29.8587 C.ar    1  UNL1        0.0756
     11 C         -26.6530   -2.3395   30.2732 C.ar    1  UNL1        0.0064
     12 C         -25.5330   -1.5566   29.9092 C.ar    1  UNL1        0.0002
     13 C         -29.0621   -2.7222   30.2424 C.2     1  UNL1        0.3413
     14 O         -28.9743   -3.9297   30.2769 O.2     1  UNL1       -0.2449
     15 O         -30.1306   -2.1612   30.6012 O.3     1  UNL1       -0.4435
     16 O         -23.6573    3.1917   26.5751 O.3     1  UNL1       -0.2866
     17 C         -31.3035   -2.8462   30.8382 C.3     1  UNL1        0.2304
     18 C         -32.5168   -2.1608   30.5361 C.3     1  UNL1        0.1429
     19 N         -32.4604   -0.8866   30.5375 N.pl3   1  UNL1       -0.2831
     20 C         -32.4914   -0.2215   31.6250 C.ar    1  UNL1        0.0517
     21 C         -32.1848    0.8387   31.9673 C.ar    1  UNL1        0.0148
     22 C         -32.1276    1.4645   33.2894 C.ar    1  UNL1        0.0013
     23 C         -32.5222    0.5986   34.3128 C.ar    1  UNL1        0.0001
     24 C         -32.8335   -0.6839   34.0276 C.ar    1  UNL1        0.0013
     25 C         -32.7527   -1.1646   32.7658 C.ar    1  UNL1        0.0148
     26 C         -32.5445   -0.0798   29.3198 C.ar    1  UNL1        0.0519
     27 C         -33.6480    0.0409   28.7527 C.ar    1  UNL1        0.0148
     28 C         -33.7495    0.8202   27.6209 C.ar    1  UNL1        0.0015
     29 C         -32.5978    1.4031   27.0609 C.ar    1  UNL1        0.0065
     30 C         -31.3708    1.2278   27.6815 C.ar    1  UNL1        0.0769
     31 C         -31.3165    0.5215   28.8599 C.ar    1  UNL1        0.0213
     32 C         -30.1591    1.8815   27.1271 C.2     1  UNL1        0.3414
     33 O         -30.1914    2.8374   26.3819 O.2     1  UNL1       -0.2449
     34 O         -29.0312    1.4839   27.5687 O.3     1  UNL1       -0.4413
     35 C         -27.8998    2.0853   26.9129 C.3     1  UNL1        0.2560
@<TRIPOS>BOND
     1     3     4    1
     2    10    13    1
     3    13    14    2
     4    13    15    1
     5     6    16    1
     6    15    17    1
     7    17    18    1
     8    18    19    1
     9    19    20    1
    10    19    26    1
    11    30    32    1
    12    32    33    2
    13    32    34    1
    14    34    35    1
    15    26    27   ar
    16    27    28   ar
    17    28    29   ar
    18    29    30   ar
    19    30    31   ar
    20    31    26   ar
    21     1     2   ar
    22     2     3   ar
    23     3    12   ar
    24    12    11   ar
    25    11    10   ar
    26    10     1   ar
    27    20    21   ar
    28    21    22   ar
    29    22    23   ar
    30    23    24   ar
    31    24    25   ar
    32    25    20   ar
    33     4     5   ar
    34     5     6   ar
    35     6     7   ar
    36     7     8   ar
    37     8     9   ar
    38     9     4   ar
