@<TRIPOS>MOLECULE
No_4078-gen_results/8p0m/2024-11-26-14-13-15/
 17 18 0 0 0
SMALL
GASTEIGER

@<TRIPOS>ATOM
      1 C         -28.0162   -0.8135   28.8779 C.ar    1  UNL1       -0.0003
      2 C         -28.4690   -0.7850   29.8287 C.ar    1  UNL1       -0.0000
      3 C         -26.5042   -0.7777   28.8766 C.ar    1  UNL1       -0.0039
      4 C         -25.9150   -0.6580   29.9230 C.ar    1  UNL1       -0.0157
      5 C         -27.9691   -0.7243   31.2047 C.ar    1  UNL1       -0.0003
      6 C         -24.4089   -0.5955   30.0365 C.3     1  UNL1        0.0804
      7 C         -26.5502   -0.6554   31.1921 C.ar    1  UNL1       -0.0039
      8 C         -23.8545    0.7934   29.9893 C.3     1  UNL1        0.1136
      9 C         -22.5727    0.9271   29.4259 C.3     1  UNL1        0.0124
     10 C         -21.8127   -0.1478   29.0164 C.3     1  UNL1        0.0083
     11 C         -23.6389   -1.2873   31.0864 C.3     1  UNL1        0.0123
     12 C         -23.8716   -1.2644   28.6509 C.2     1  UNL1        0.1541
     13 C         -22.3671   -1.3318   28.7430 C.3     1  UNL1        0.0648
     14 C         -24.6064    1.9114   30.4927 C.2     1  UNL1        0.3650
     15 O         -25.6835    1.9822   30.6060 O.co2   1  UNL1       -0.2456
     16 O         -23.8114    2.9347   30.8933 O.co2   1  UNL1       -0.2456
     17 O         -24.5010   -1.9045   27.9464 O.2     1  UNL1       -0.2957
@<TRIPOS>BOND
     1     4     6    1
     2     6     8    1
     3     9    10    1
     4     6    11    1
     5     6    12    1
     6    10    13    1
     7    12    13    1
     8     8    14    1
     9    14    15   ar
    10    14    16   ar
    11    12    17    2
    12     8     9    1
    13     1     2   ar
    14     2     5   ar
    15     5     7   ar
    16     7     4   ar
    17     4     3   ar
    18     3     1   ar
