@<TRIPOS>MOLECULE
No_408-gen_results/8p0m/2024-11-26-14-13-15/
 35 38 0 0 0
SMALL
GASTEIGER

@<TRIPOS>ATOM
      1 C         -28.0162   -0.8135   28.8779 C.ar    1  UNL1       -0.0000
      2 C         -27.0636   -0.1189   28.6079 C.ar    1  UNL1       -0.0028
      3 C         -27.0010    0.6913   27.4910 C.ar    1  UNL1       -0.0020
      4 C         -28.1373    0.7363   26.6350 C.ar    1  UNL1        0.0097
      5 C         -29.2360    0.0765   27.0690 C.ar    1  UNL1        0.1362
      6 C         -29.2177   -0.6429   28.1747 C.ar    1  UNL1        0.0267
      7 C         -28.0030   -1.6604   30.1266 C.3     1  UNL1        0.1228
      8 N         -27.0435   -2.4948   30.2691 N.am    1  UNL1       -0.2467
      9 C         -25.7647   -2.0663   30.2738 C.3     1  UNL1        0.1178
     10 C         -27.2602   -3.8864   30.0616 C.2     1  UNL1        0.3937
     11 F         -30.3333    0.1799   26.3121 F       1  UNL1       -0.2045
     12 C         -28.1021    1.6104   25.4456 C.3     1  UNL1        0.0558
     13 C         -28.0110    2.7771   25.5523 C.ar    1  UNL1       -0.0041
     14 C         -27.4455    3.5023   26.6467 C.ar    1  UNL1        0.0338
     15 C         -27.8390    4.8354   27.0027 C.ar    1  UNL1        0.1389
     16 C         -28.7994    5.4286   26.1603 C.ar    1  UNL1        0.0378
     17 C         -29.4782    4.7655   25.1672 C.ar    1  UNL1        0.0142
     18 C         -29.1434    3.5152   24.9057 C.ar    1  UNL1        0.0542
     19 CL        -29.9545    2.7024   23.6958 Cl      1  UNL1       -0.0826
     20 F         -26.3232   -4.6294   29.8526 F       1  UNL1       -0.1434
     21 O         -28.3979   -4.4187   30.2866 O.2     1  UNL1       -0.2360
     22 O         -27.1310    5.5393   27.8535 O.3     1  UNL1       -0.4692
     23 C         -26.2613    5.2998   28.6063 C.3     1  UNL1        0.2493
     24 C         -24.9949    4.9833   28.0673 C.2     1  UNL1        0.3608
     25 O         -24.6588    3.6663   28.0573 O.2     1  UNL1       -0.2457
     26 O         -24.3627    5.7646   27.2909 O.3     1  UNL1       -0.4189
     27 C         -26.6081    4.3032   29.7395 C.3     1  UNL1        0.1624
     28 C         -26.4576    4.8224   31.0911 C.3     1  UNL1        0.0338
     29 C         -26.2677    6.1173   31.2830 C.3     1  UNL1        0.0031
     30 C         -26.0254    6.9728   30.2865 C.3     1  UNL1        0.0087
     31 C         -25.8592    6.5234   28.9568 C.3     1  UNL1        0.0748
     32 C         -25.2160    7.4410   28.0979 C.2     1  UNL1        0.0184
     33 C         -24.2317    7.0149   27.2964 C.2     1  UNL1        0.1784
     34 O         -26.9283    3.1421   29.5623 O.3     1  UNL1       -0.3494
     35 C         -27.7708    2.5872   30.5895 C.3     1  UNL1        0.1742
@<TRIPOS>BOND
     1     1     7    1
     2     7     8    1
     3     8     9    1
     4     8    10   am
     5     5    11    1
     6     4    12    1
     7    18    19    1
     8    10    20    1
     9    10    21    2
    10    15    22    1
    11    22    23    1
    12    23    24    1
    13    24    25    2
    14    24    26    1
    15    23    27    1
    16    28    29    1
    17    23    31    1
    18    30    31    1
    19    31    32    1
    20    26    33    1
    21    32    33    2
    22    27    34    1
    23    34    35    1
    24    12    13    1
    25    27    28    1
    26    29    30    1
    27     1     2   ar
    28     2     3   ar
    29     3     4   ar
    30     4     5   ar
    31     5     6   ar
    32     6     1   ar
    33    13    14   ar
    34    14    15   ar
    35    15    16   ar
    36    16    17   ar
    37    17    18   ar
    38    18    13   ar
