@<TRIPOS>MOLECULE
No_4080-gen_results/8p0m/2024-11-26-14-13-15/
 23 24 0 0 0
SMALL
GASTEIGER

@<TRIPOS>ATOM
      1 C         -28.0162   -0.8135   28.8779 C.ar    1  UNL1        0.0408
      2 C         -28.4690   -0.7850   29.8287 C.ar    1  UNL1        0.1392
      3 C         -27.1356    0.2359   28.5352 C.ar    1  UNL1        0.0744
      4 C         -26.8745    1.2825   29.3982 C.ar    1  UNL1        0.0041
      5 C         -27.5070    1.2380   30.6295 C.ar    1  UNL1        0.0031
      6 C         -28.3269    0.1637   30.9240 C.ar    1  UNL1        0.0369
      7 C         -26.4007    0.2985   27.2217 C.3     1  UNL1        0.4187
      8 F         -25.7868   -0.5534   27.0575 F       1  UNL1       -0.1659
      9 F         -25.5437    1.3988   27.1141 F       1  UNL1       -0.1659
     10 F         -27.3308    0.5213   26.1859 F       1  UNL1       -0.1659
     11 O         -29.2190   -1.9913   30.1518 O.3     1  UNL1       -0.4656
     12 C         -30.4612   -1.9672   30.3474 C.3     1  UNL1        0.2896
     13 C         -30.9363   -3.2416   30.1740 C.2     1  UNL1        0.2705
     14 O         -30.2613   -4.2285   30.2285 O.2     1  UNL1       -0.2708
     15 N         -32.2838   -3.4926   29.9347 N.am    1  UNL1       -0.2706
     16 C         -33.2369   -2.4300   29.7655 C.3     1  UNL1        0.1203
     17 C         -32.8193   -4.8396   29.7867 C.3     1  UNL1        0.1153
     18 C         -33.5988   -1.7150   30.5655 C.ar    1  UNL1       -0.0023
     19 C         -33.5163   -1.9228   31.9571 C.ar    1  UNL1       -0.0026
     20 C         -33.9080   -0.9318   32.9593 C.ar    1  UNL1       -0.0003
     21 C         -34.4564    0.2382   32.4377 C.ar    1  UNL1       -0.0000
     22 C         -34.5592    0.5368   31.1426 C.ar    1  UNL1       -0.0003
     23 C         -34.0949   -0.3839   30.2119 C.ar    1  UNL1       -0.0026
@<TRIPOS>BOND
     1     3     7    1
     2     7     8    1
     3     7     9    1
     4     7    10    1
     5     2    11    1
     6    11    12    1
     7    12    13    1
     8    13    14    2
     9    13    15   am
    10    15    16    1
    11    15    17    1
    12    16    18    1
    13    18    19   ar
    14    19    20   ar
    15    20    21   ar
    16    21    22   ar
    17    22    23   ar
    18    23    18   ar
    19     1     2   ar
    20     2     6   ar
    21     6     5   ar
    22     5     4   ar
    23     4     3   ar
    24     3     1   ar
