@<TRIPOS>MOLECULE
No_4081-gen_results/8p0m/2024-11-26-14-13-15/
 10 10 0 0 0
SMALL
GASTEIGER

@<TRIPOS>ATOM
      1 C         -28.0162   -0.8135   28.8779 C.ar    1  UNL1        0.0714
      2 C         -27.0636   -0.1189   28.6079 C.ar    1  UNL1        0.0039
      3 C         -27.0010    0.6913   27.4910 C.ar    1  UNL1       -0.0001
      4 C         -28.1420    0.8282   26.7994 C.ar    1  UNL1       -0.0000
      5 C         -29.2898   -0.4871   28.3661 C.ar    1  UNL1        0.0039
      6 C         -29.2849    0.2608   27.2623 C.ar    1  UNL1       -0.0001
      7 C         -27.9361   -1.6824   30.1380 C.3     1  UNL1        0.4186
      8 F         -26.9649   -2.4107   30.1902 F       1  UNL1       -0.1659
      9 F         -27.9604   -1.0369   31.3152 F       1  UNL1       -0.1659
     10 F         -29.0841   -2.4965   30.1766 F       1  UNL1       -0.1659
@<TRIPOS>BOND
     1     1     7    1
     2     7     8    1
     3     7     9    1
     4     7    10    1
     5     1     2   ar
     6     2     3   ar
     7     3     4   ar
     8     4     6   ar
     9     6     5   ar
    10     5     1   ar
