@<TRIPOS>MOLECULE
No_4082-gen_results/8p0m/2024-11-26-14-13-15/
 35 36 0 0 0
SMALL
GASTEIGER

@<TRIPOS>ATOM
      1 C         -28.0162   -0.8135   28.8779 C.3     1  UNL1        0.1420
      2 C         -27.0636   -0.1190   28.6079 C.ar    1  UNL1        0.0070
      3 C         -25.7647   -0.3897   29.0360 C.ar    1  UNL1        0.0462
      4 C         -24.5516    0.4058   28.7646 C.ar    1  UNL1        0.1350
      5 C         -24.6957    1.4480   27.7988 C.ar    1  UNL1        0.0013
      6 C         -25.9755    1.7250   27.3077 C.ar    1  UNL1       -0.0177
      7 C         -27.0718    1.0134   27.6535 C.ar    1  UNL1        0.0691
      8 N         -28.6247   -0.5797   30.0969 N.am    1  UNL1       -0.1929
      9 C         -23.4943    2.1676   27.4757 C.3     1  UNL1        0.0283
     10 C         -22.6134    1.3573   26.4678 C.3     1  UNL1        0.0051
     11 C         -29.6354   -1.3258   30.6478 C.2     1  UNL1        0.3204
     12 C         -30.2102   -2.2482   29.9650 C.2     1  UNL1        0.3202
     13 O         -30.0384   -1.0633   31.8785 O.2     1  UNL1       -0.2633
     14 O         -30.2873   -2.7843   29.0842 O.2     1  UNL1       -0.2633
     15 N         -31.2667   -2.9395   30.9346 N.am    1  UNL1       -0.1959
     16 C         -32.0395   -4.0480   30.4986 C.3     1  UNL1        0.1390
     17 F         -23.4167    0.0042   29.2202 F       1  UNL1       -0.2047
     18 C         -28.4368    1.3484   27.1310 C.2     1  UNL1        0.3411
     19 O         -29.0010    2.2259   27.6196 O.2     1  UNL1       -0.2449
     20 O         -29.0174    0.3403   26.3960 O.3     1  UNL1       -0.4353
     21 C         -30.3033    0.5372   25.9559 C.3     1  UNL1        0.2929
     22 C         -30.6997   -0.5887   25.2854 C.2     1  UNL1        0.2703
     23 O         -30.0318   -1.0718   24.4146 O.2     1  UNL1       -0.2708
     24 N         -31.9576   -1.1201   25.4184 N.am    1  UNL1       -0.2765
     25 C         -32.4172   -2.3266   24.8239 C.3     1  UNL1        0.0935
     26 C         -32.9429   -0.7068   26.5006 C.3     1  UNL1        0.0935
     27 C         -26.0731    2.8868   26.3632 C.3     1  UNL1        0.0310
     28 C         -33.8688   -1.4312   26.8092 C.3     1  UNL1        0.0216
     29 C         -34.2395   -2.5004   25.9785 C.3     1  UNL1        0.0035
     30 C         -33.3726   -3.0240   25.0970 C.3     1  UNL1        0.0216
     31 C         -25.5106   -1.5321   30.0198 C.3     1  UNL1        0.2341
     32 O         -25.3567   -2.6513   29.5805 O.2     1  UNL1       -0.4679
     33 C         -26.3372   -3.6619   29.5704 C.2     1  UNL1        0.1682
     34 C         -27.4694   -3.5245   30.3505 C.2     1  UNL1        0.0142
     35 C         -28.2912   -4.6787   30.6727 C.3     1  UNL1        0.0341
@<TRIPOS>BOND
     1     1     8    1
     2     5     9    1
     3     9    10    1
     4     8    11   am
     5    11    12    1
     6    11    13    2
     7    12    14    2
     8    12    15   am
     9    15    16    1
    10     4    17    1
    11     7    18    1
    12    18    19    2
    13    18    20    1
    14    20    21    1
    15    21    22    1
    16    22    23    2
    17    22    24   am
    18    24    25    1
    19    24    26    1
    20     6    27    1
    21    28    29    1
    22     3    31    1
    23    31    32    1
    24    32    33    1
    25    33    34    2
    26    34    35    1
    27     1     2    1
    28    25    30    1
    29    30    29    1
    30    28    26    1
    31     2     3   ar
    32     3     4   ar
    33     4     5   ar
    34     5     6   ar
    35     6     7   ar
    36     7     2   ar
