@<TRIPOS>MOLECULE
No_4083-gen_results/8p0m/2024-11-26-14-13-15/
 21 22 0 0 0
SMALL
GASTEIGER

@<TRIPOS>ATOM
      1 C         -28.0162   -0.8135   28.8779 C.ar    1  UNL1        0.0064
      2 C         -28.4690   -0.7850   29.8287 C.ar    1  UNL1        0.0757
      3 C         -26.5042   -0.7777   28.8766 C.ar    1  UNL1        0.0002
      4 C         -25.8103   -0.8531   30.1028 C.ar    1  UNL1        0.0000
      5 C         -27.9906   -0.8916   31.2257 C.ar    1  UNL1        0.0064
      6 C         -26.6042   -0.8676   31.2652 C.ar    1  UNL1        0.0002
      7 C         -24.3894   -0.8049   30.1638 C.ar    1  UNL1        0.0000
      8 C         -23.7660   -0.9500   31.0679 C.ar    1  UNL1        0.0000
      9 C         -22.2665   -0.8379   31.2250 C.ar    1  UNL1        0.0000
     10 C         -21.6700   -0.5264   30.0648 C.ar    1  UNL1        0.0000
     11 C         -23.6437   -0.4433   28.9621 C.ar    1  UNL1        0.0000
     12 C         -22.3479   -0.3035   28.9177 C.ar    1  UNL1        0.0000
     13 C         -30.0924   -0.7792   29.8445 C.2     1  UNL1        0.3415
     14 O         -30.7615   -1.6043   30.2940 O.2     1  UNL1       -0.2449
     15 O         -30.6116    0.3932   29.5468 O.3     1  UNL1       -0.4404
     16 C         -31.6540    0.6950   29.2305 C.3     1  UNL1        0.2352
     17 C         -31.9231    1.7568   28.2279 C.2     1  UNL1        0.0208
     18 C         -30.9939    2.6886   28.1823 C.2     1  UNL1       -0.0012
     19 C         -31.0476    3.7241   27.1221 C.2     1  UNL1       -0.0048
     20 C         -30.0359    4.7363   27.0527 C.2     1  UNL1       -0.0258
     21 C         -30.0863    5.7329   26.0374 C.3     1  UNL1        0.0307
@<TRIPOS>BOND
     1     4     7    1
     2     2    13    1
     3    13    14    2
     4    13    15    1
     5    15    16    1
     6    16    17    1
     7    17    18    2
     8    18    19    1
     9    19    20    2
    10    20    21    1
    11     7     8   ar
    12     8     9   ar
    13     9    10   ar
    14    10    12   ar
    15    12    11   ar
    16    11     7   ar
    17     1     2   ar
    18     2     5   ar
    19     5     6   ar
    20     6     4   ar
    21     4     3   ar
    22     3     1   ar
