@<TRIPOS>MOLECULE
No_4084-gen_results/8p0m/2024-11-26-14-13-15/
 23 25 0 0 0
SMALL
GASTEIGER

@<TRIPOS>ATOM
      1 C         -28.0162   -0.8135   28.8779 C.ar    1  UNL1        0.0395
      2 C         -27.0636   -0.1189   28.6079 C.ar    1  UNL1        0.1393
      3 N         -25.8176   -0.3427   29.0487 N.ar    1  UNL1       -0.2285
      4 C         -25.5552   -1.4726   29.7295 C.ar    1  UNL1        0.1005
      5 C         -26.6210   -2.2986   30.1049 C.ar    1  UNL1        0.0253
      6 C         -27.8347   -1.9700   29.6762 C.ar    1  UNL1        0.0594
      7 N         -27.1619    1.1062   27.9099 N.pl3   1  UNL1       -0.2511
      8 C         -26.7768    2.2481   28.3777 C.ar    1  UNL1        0.0569
      9 C         -26.1573    2.4571   29.4063 C.ar    1  UNL1        0.0152
     10 C         -25.6856    3.7593   29.9159 C.ar    1  UNL1        0.0013
     11 C         -25.8613    4.8123   29.0822 C.ar    1  UNL1        0.0001
     12 C         -26.4516    4.6657   27.8245 C.ar    1  UNL1        0.0013
     13 C         -26.9017    3.3914   27.4503 C.ar    1  UNL1        0.0152
     14 C         -27.4182    0.8313   26.5145 C.ar    1  UNL1        0.0569
     15 C         -26.5659    0.3806   25.6435 C.ar    1  UNL1        0.0152
     16 C         -28.7757    1.0643   26.1302 C.ar    1  UNL1        0.0152
     17 C         -29.1585    0.7788   24.8868 C.ar    1  UNL1        0.0013
     18 C         -26.8803    0.0372   24.3468 C.ar    1  UNL1        0.0013
     19 C         -28.1892    0.2840   23.9713 C.ar    1  UNL1        0.0001
     20 C         -29.0077   -2.8172   30.1010 C.2     1  UNL1        0.2650
     21 N         -30.1352   -2.3934   30.2271 N.am    1  UNL1       -0.1998
     22 O         -28.7407   -4.1133   30.1009 O.2     1  UNL1       -0.2684
     23 C         -31.2803   -2.9464   30.5892 C.3     1  UNL1        0.1388
@<TRIPOS>BOND
     1     2     7    1
     2     7     8    1
     3     7    14    1
     4     6    20    1
     5    20    21   am
     6    20    22    2
     7    21    23    1
     8     1     2   ar
     9     2     3   ar
    10     3     4   ar
    11     4     5   ar
    12     5     6   ar
    13     6     1   ar
    14    14    15   ar
    15    15    18   ar
    16    18    19   ar
    17    19    17   ar
    18    17    16   ar
    19    16    14   ar
    20     8     9   ar
    21     9    10   ar
    22    10    11   ar
    23    11    12   ar
    24    12    13   ar
    25    13     8   ar
