@<TRIPOS>MOLECULE
No_4085-gen_results/8p0m/2024-11-26-14-13-15/
 9 9 0 0 0
SMALL
GASTEIGER

@<TRIPOS>ATOM
      1 C         -28.0162   -0.8135   28.8779 C.ar    1  UNL1       -0.0000
      2 C         -28.4690   -0.7850   29.8287 C.ar    1  UNL1       -0.0000
      3 C         -27.0871    0.2903   28.6377 C.ar    1  UNL1       -0.0003
      4 C         -26.9102    0.8486   27.4199 C.2     1  UNL1       -0.0046
      5 C         -27.8863   -0.5049   31.0944 C.ar    1  UNL1       -0.0000
      6 C         -26.9294    0.5930   31.0741 C.ar    1  UNL1       -0.0000
      7 C         -26.5225    0.9550   29.8008 C.ar    1  UNL1       -0.0000
      8 C         -26.0918    1.8857   27.1882 C.2     1  UNL1       -0.0258
      9 C         -25.4021    2.4974   28.3407 C.3     1  UNL1        0.0307
@<TRIPOS>BOND
     1     3     4    1
     2     4     8    2
     3     8     9    1
     4     1     2   ar
     5     2     5   ar
     6     5     6   ar
     7     6     7   ar
     8     7     3   ar
     9     3     1   ar
