@<TRIPOS>MOLECULE
No_4086-gen_results/8p0m/2024-11-26-14-13-15/
 31 33 0 0 0
SMALL
GASTEIGER

@<TRIPOS>ATOM
      1 C         -28.0162   -0.8135   28.8779 C.3     1  UNL1        0.1484
      2 C         -28.4690   -0.7850   29.8287 C.3     1  UNL1        0.2089
      3 C         -26.5042   -0.7777   28.8766 C.3     1  UNL1        0.0324
      4 C         -25.8305   -1.6807   29.6849 C.3     1  UNL1        0.0054
      5 C         -28.1490   -1.8854   30.9031 C.3     1  UNL1        0.1846
      6 C         -26.6460   -1.9561   31.0330 C.3     1  UNL1        0.0357
      7 O         -28.6274   -1.7308   32.1858 O.3     1  UNL1       -0.2203
      8 O         -30.0168   -0.9269   29.8771 O.3     1  UNL1       -0.2178
      9 C         -24.6534   -2.3030   29.3807 C.3     1  UNL1        0.0045
     10 C         -23.3568   -1.8979   29.8520 C.3     1  UNL1        0.0263
     11 C         -24.6504   -3.6906   28.8594 C.3     1  UNL1        0.0003
     12 O         -28.5202   -0.2308   27.6935 O.3     1  UNL1       -0.3491
     13 C         -23.0770   -0.4457   29.6608 C.ar    1  UNL1       -0.0222
     14 C         -23.6283    0.4500   30.4557 C.ar    1  UNL1       -0.0043
     15 C         -22.1523   -0.0170   28.5980 C.ar    1  UNL1       -0.0043
     16 C         -22.0046    1.2974   28.2143 C.ar    1  UNL1       -0.0003
     17 C         -23.4476    1.9066   30.1722 C.ar    1  UNL1       -0.0003
     18 C         -22.5736    2.3257   29.0462 C.ar    1  UNL1       -0.0000
     19 C         -29.1670    0.8842   27.6257 C.3     1  UNL1        0.1644
     20 C         -29.6879    1.0522   26.5373 C.2     1  UNL1       -0.0146
     21 C         -30.5759    0.8446   26.0922 C.2     1  UNL1       -0.0197
     22 C         -28.5099    1.5476   25.5738 C.3     1  UNL1        0.0426
     23 C         -27.2252    1.8893   26.0257 C.ar    1  UNL1       -0.0187
     24 C         -31.7331    0.3843   26.9163 C.3     1  UNL1        0.0930
     25 BR        -31.9519    1.0382   28.4643 Br      1  UNL1       -0.0756
     26 C         -26.1692    1.0985   25.6261 C.ar    1  UNL1       -0.0040
     27 C         -24.8143    1.4748   26.1374 C.ar    1  UNL1       -0.0003
     28 C         -24.6206    2.6307   26.8463 C.ar    1  UNL1       -0.0000
     29 C         -25.8078    3.4692   27.1385 C.ar    1  UNL1       -0.0003
     30 C         -27.0443    3.0397   26.7171 C.ar    1  UNL1       -0.0040
     31 C         -28.8196    1.6892   24.1839 C.3     1  UNL1        0.0091
@<TRIPOS>BOND
     1     1     2    1
     2     1     3    1
     3     3     4    1
     4     2     5    1
     5     4     6    1
     6     5     6    1
     7     5     7    1
     8     2     8    1
     9     4     9    1
    10     9    10    1
    11     9    11    1
    12     1    12    1
    13    10    13    1
    14    12    19    1
    15    19    20    1
    16    20    21    2
    17    20    22    1
    18    22    23    1
    19    21    24    1
    20    24    25    1
    21    22    31    1
    22    23    26   ar
    23    26    27   ar
    24    27    28   ar
    25    28    29   ar
    26    29    30   ar
    27    30    23   ar
    28    13    14   ar
    29    14    17   ar
    30    17    18   ar
    31    18    16   ar
    32    16    15   ar
    33    15    13   ar
