@<TRIPOS>MOLECULE
No_4087-gen_results/8p0m/2024-11-26-14-13-15/
 35 38 0 0 0
SMALL
GASTEIGER

@<TRIPOS>ATOM
      1 C         -28.0162   -0.8135   28.8779 C.ar    1  UNL1       -0.0038
      2 C         -28.4690   -0.7850   29.8287 C.ar    1  UNL1       -0.0003
      3 C         -28.1816    0.4277   28.1134 C.ar    1  UNL1       -0.0135
      4 C         -28.9841    1.4155   28.5154 C.ar    1  UNL1       -0.0038
      5 C         -29.3802    0.1384   30.4612 C.ar    1  UNL1       -0.0000
      6 C         -29.5415    1.2736   29.7242 C.ar    1  UNL1       -0.0003
      7 C         -27.4586    0.4934   26.7701 C.3     1  UNL1        0.1051
      8 C         -26.0264    0.3840   26.7617 C.3     1  UNL1        0.0399
      9 C         -25.2257    1.3507   27.3721 C.ar    1  UNL1       -0.0212
     10 C         -23.8242    1.1314   27.4773 C.ar    1  UNL1       -0.0042
     11 C         -23.1494    1.3831   28.5698 C.ar    1  UNL1       -0.0002
     12 C         -23.7705    2.1284   29.5893 C.ar    1  UNL1        0.0045
     13 C         -25.1430    2.3299   29.5959 C.ar    1  UNL1        0.0547
     14 C         -25.8340    1.8422   28.5313 C.ar    1  UNL1        0.0003
     15 C         -28.2274    0.6611   25.6487 C.2     1  UNL1        0.2495
     16 C         -25.7499    3.0033   30.7803 C.2     1  UNL1        0.2650
     17 N         -25.3757    4.1722   31.0816 N.am    1  UNL1       -0.2009
     18 O         -26.8285    2.4900   31.2867 O.2     1  UNL1       -0.2684
     19 C         -25.8763    4.9053   32.3029 C.3     1  UNL1        0.0977
     20 O         -28.2053   -0.1347   24.7776 O.2     1  UNL1       -0.2726
     21 N         -28.6519    1.9362   25.3292 N.am    1  UNL1       -0.1789
     22 C         -29.5757    2.2747   24.5544 C.ar    1  UNL1        0.0734
     23 C         -26.3289    4.3205   33.1778 C.3     1  UNL1        0.0263
     24 C         -26.4224    6.1550   31.8408 C.ar    1  UNL1       -0.0044
     25 C         -30.4599    3.3192   24.9998 C.ar    1  UNL1        0.0166
     26 C         -31.8072    3.4406   24.5046 C.ar    1  UNL1        0.0013
     27 C         -32.0768    2.7185   23.3235 C.ar    1  UNL1        0.0001
     28 C         -31.1627    1.7906   22.7813 C.ar    1  UNL1        0.0013
     29 C         -30.0121    1.5798   23.4683 C.ar    1  UNL1        0.0166
     30 C         -25.7771    7.0332   31.1793 C.ar    1  UNL1       -0.0027
     31 C         -26.3354    8.1664   30.5489 C.ar    1  UNL1       -0.0003
     32 C         -27.6776    8.4029   30.7221 C.ar    1  UNL1       -0.0000
     33 C         -28.3824    7.5047   31.4963 C.ar    1  UNL1       -0.0003
     34 C         -27.7995    6.3708   32.0781 C.ar    1  UNL1       -0.0027
     35 C         -24.3849    5.4409   32.8968 C.3     1  UNL1        0.0263
@<TRIPOS>BOND
     1     3     7    1
     2     7     8    1
     3     7    15    1
     4    13    16    1
     5    16    17   am
     6    16    18    2
     7    17    19    1
     8    15    20    2
     9    15    21   am
    10    21    22    1
    11    19    23    1
    12    19    24    1
    13    19    35    1
    14     8     9    1
    15     9    10   ar
    16    10    11   ar
    17    11    12   ar
    18    12    13   ar
    19    13    14   ar
    20    14     9   ar
    21    22    25   ar
    22    25    26   ar
    23    26    27   ar
    24    27    28   ar
    25    28    29   ar
    26    29    22   ar
    27    24    30   ar
    28    30    31   ar
    29    31    32   ar
    30    32    33   ar
    31    33    34   ar
    32    34    24   ar
    33     1     2   ar
    34     2     5   ar
    35     5     6   ar
    36     6     4   ar
    37     4     3   ar
    38     3     1   ar
