@<TRIPOS>MOLECULE
No_4088-gen_results/8p0m/2024-11-26-14-13-15/
 18 19 0 0 0
SMALL
GASTEIGER

@<TRIPOS>ATOM
      1 C         -28.0162   -0.8135   28.8779 C.3     1  UNL1        0.3410
      2 C         -27.0636   -0.1189   28.6079 C.ar    1  UNL1        0.0434
      3 C         -26.9287    1.1713   29.0083 C.ar    1  UNL1        0.0008
      4 C         -25.7702    2.0341   28.6884 C.ar    1  UNL1        0.0260
      5 C         -24.7141    1.4431   27.9188 C.ar    1  UNL1        0.0590
      6 C         -24.8590    0.0783   27.5836 C.ar    1  UNL1        0.0045
      7 C         -25.9647   -0.6606   27.9164 C.ar    1  UNL1        0.0013
      8 F         -27.8152   -2.0223   29.4811 F       1  UNL1       -0.1933
      9 F         -29.2151   -0.5747   28.7340 F       1  UNL1       -0.1933
     10 C         -23.5407    2.1511   27.5672 C.2     1  UNL1        0.2966
     11 N         -22.4761    1.6525   27.0595 N.2     1  UNL1       -0.1025
     12 O         -23.4174    3.3599   28.0049 O.2     1  UNL1       -0.2636
     13 C         -25.7041    3.4024   29.1319 C.3     1  UNL1        0.2106
     14 O         -25.6623    3.5394   30.3570 O.2     1  UNL1       -0.4672
     15 C         -25.9611    4.7353   31.0335 C.2     1  UNL1        0.1730
     16 C         -25.8571    5.8120   30.3417 C.2     1  UNL1        0.0399
     17 C         -26.0083    5.7711   29.2867 C.2     1  UNL1        0.0025
     18 C         -25.9130    4.5315   28.4060 C.2     1  UNL1        0.0213
@<TRIPOS>BOND
     1     1     2    1
     2     1     8    1
     3     1     9    1
     4     5    10    1
     5    10    11    2
     6    10    12    1
     7     4    13    1
     8    13    14    1
     9    14    15    1
    10    15    16    2
    11    16    17    1
    12    13    18    1
    13    17    18    2
    14     2     3   ar
    15     3     4   ar
    16     4     5   ar
    17     5     6   ar
    18     6     7   ar
    19     7     2   ar
