@<TRIPOS>MOLECULE
No_4089-gen_results/8p0m/2024-11-26-14-13-15/
 21 24 0 0 0
SMALL
GASTEIGER

@<TRIPOS>ATOM
      1 C         -28.0162   -0.8135   28.8779 C.ar    1  UNL1        0.0064
      2 C         -27.0636   -0.1189   28.6079 C.ar    1  UNL1       -0.0009
      3 C         -25.7923   -0.4302   29.0761 C.ar    1  UNL1        0.0141
      4 C         -25.5756   -1.5654   29.9363 C.ar    1  UNL1       -0.0011
      5 C         -26.7354   -2.3004   30.2173 C.ar    1  UNL1        0.0063
      6 C         -27.9184   -1.9537   29.7629 C.ar    1  UNL1        0.0798
      7 C         -29.0732   -2.7835   30.1783 C.2     1  UNL1        0.3878
      8 O         -29.0022   -3.9850   30.2347 O.co2   1  UNL1       -0.2406
      9 O         -30.1809   -2.1900   30.4596 O.co2   1  UNL1       -0.2406
     10 C         -26.8666    1.0878   27.6976 C.ar    1  UNL1       -0.0004
     11 C         -27.8675    1.5902   27.2088 C.ar    1  UNL1       -0.0000
     12 C         -27.8205    2.7102   26.2973 C.ar    1  UNL1       -0.0000
     13 C         -26.5702    3.2291   25.9035 C.ar    1  UNL1       -0.0000
     14 C         -25.4081    2.6150   26.4308 C.ar    1  UNL1       -0.0002
     15 C         -25.5390    1.5646   27.3266 C.ar    1  UNL1       -0.0011
     16 C         -24.0975    3.1684   26.0808 C.ar    1  UNL1       -0.0000
     17 C         -22.9422    2.2949   26.3671 C.ar    1  UNL1       -0.0002
     18 C         -23.1404    1.2922   27.4141 C.ar    1  UNL1       -0.0013
     19 C         -24.3774    0.8981   27.7606 C.ar    1  UNL1        0.0141
     20 C         -24.4972   -0.2133   28.6772 C.3     1  UNL1        0.2056
     21 F         -23.4366   -0.7064   29.0580 F       1  UNL1       -0.2275
@<TRIPOS>BOND
     1     6     7    1
     2     7     8   ar
     3     7     9   ar
     4     2    10    1
     5     3    20    1
     6    19    20    1
     7    20    21    1
     8     1     2   ar
     9     2     3   ar
    10     3     4   ar
    11     4     5   ar
    12     5     6   ar
    13     6     1   ar
    14    15    19   ar
    15    19    18   ar
    16    18    17   ar
    17    17    16   ar
    18    16    14   ar
    19    10    11   ar
    20    11    12   ar
    21    12    13   ar
    22    13    14   ar
    23    14    15   ar
    24    15    10   ar
