@<TRIPOS>MOLECULE
No_409-gen_results/8p0m/2024-11-26-14-13-15/
 11 11 0 0 0
SMALL
GASTEIGER

@<TRIPOS>ATOM
      1 F         -28.0727   -1.2542   28.5316 F       1  UNL1       -0.2042
      2 C         -27.0607   -0.6291   28.8721 C.ar    1  UNL1        0.1401
      3 C         -27.1759    0.6153   29.3693 C.ar    1  UNL1        0.0296
      4 C         -25.7305   -1.2692   28.7241 C.ar    1  UNL1        0.0296
      5 C         -24.5526   -0.5078   29.0132 C.ar    1  UNL1        0.0062
      6 C         -25.9465    1.3753   29.6814 C.ar    1  UNL1        0.0062
      7 C         -24.6746    0.8198   29.5066 C.ar    1  UNL1        0.0716
      8 C         -23.4703    1.5605   29.7756 C.3     1  UNL1        0.4186
      9 F         -22.9719    2.1612   28.8638 F       1  UNL1       -0.1659
     10 F         -23.8260    2.5767   30.7484 F       1  UNL1       -0.1659
     11 F         -22.5587    0.8124   30.3868 F       1  UNL1       -0.1659
@<TRIPOS>BOND
     1     1     2    1
     2     7     8    1
     3     8     9    1
     4     8    10    1
     5     8    11    1
     6     2     3   ar
     7     3     6   ar
     8     6     7   ar
     9     7     5   ar
    10     5     4   ar
    11     4     2   ar
