@<TRIPOS>MOLECULE
No_4090-gen_results/8p0m/2024-11-26-14-13-15/
 21 24 0 0 0
SMALL
GASTEIGER

@<TRIPOS>ATOM
      1 C         -28.0162   -0.8135   28.8779 C.ar    1  UNL1        0.0029
      2 C         -27.0636   -0.1190   28.6079 C.ar    1  UNL1        0.0350
      3 C         -26.9716    0.7139   27.5060 C.2     1  UNL1        0.1774
      4 C         -25.8205    1.4909   27.1160 C.3     1  UNL1        0.0954
      5 C         -24.6562    1.4242   27.9180 C.ar    1  UNL1       -0.0144
      6 C         -24.7114    0.5419   29.0507 C.ar    1  UNL1       -0.0034
      7 C         -25.8042   -0.2058   29.3881 C.ar    1  UNL1        0.0025
      8 C         -28.0673   -1.5382   30.1911 C.ar    1  UNL1        0.0001
      9 C         -29.2040   -2.2943   30.5528 C.ar    1  UNL1        0.0000
     10 C         -30.3758   -1.7888   30.1553 C.ar    1  UNL1        0.0000
     11 C         -31.4830   -2.5372   30.4839 C.ar    1  UNL1        0.0000
     12 C         -31.3816   -3.7485   31.1303 C.ar    1  UNL1        0.0000
     13 C         -30.1610   -4.2740   31.5737 C.ar    1  UNL1        0.0000
     14 C         -29.0170   -3.5029   31.2360 C.ar    1  UNL1        0.0000
     15 C         -27.4889   -0.6586   31.2121 C.ar    1  UNL1        0.0000
     16 C         -26.0410   -0.2452   30.9058 C.ar    1  UNL1        0.0001
     17 O         -27.9519    0.7455   26.6025 O.2     1  UNL1       -0.2910
     18 C         -23.4340    0.4192   29.8722 C.ar    1  UNL1       -0.0003
     19 C         -22.2419    0.8828   29.3864 C.ar    1  UNL1       -0.0000
     20 C         -22.0862    1.5584   28.2019 C.ar    1  UNL1       -0.0003
     21 C         -23.3737    1.8728   27.3767 C.ar    1  UNL1       -0.0038
@<TRIPOS>BOND
     1     2     3    1
     2     3     4    1
     3     6     7    1
     4     8     9    1
     5     3    17    2
     6     5     4    1
     7     1     2   ar
     8     2     7   ar
     9     7    16   ar
    10    16    15   ar
    11    15     8   ar
    12     8     1   ar
    13     9    10   ar
    14    10    11   ar
    15    11    12   ar
    16    12    13   ar
    17    13    14   ar
    18    14     9   ar
    19     5     6   ar
    20     6    18   ar
    21    18    19   ar
    22    19    20   ar
    23    20    21   ar
    24    21     5   ar
