@<TRIPOS>MOLECULE
No_4093-gen_results/8p0m/2024-11-26-14-13-15/
 34 39 0 0 0
SMALL
GASTEIGER

@<TRIPOS>ATOM
      1 C         -28.0162   -0.8135   28.8779 C.3     1  UNL1        0.0733
      2 C         -27.0636   -0.1190   28.6079 C.2     1  UNL1       -0.0397
      3 C         -27.0010    0.6913   27.4910 C.2     1  UNL1       -0.0120
      4 C         -25.8548    1.4825   27.0830 C.2     1  UNL1       -0.0049
      5 C         -24.9008    1.3894   27.5922 C.2     1  UNL1       -0.0181
      6 C         -24.6783    0.5764   28.8299 C.3     1  UNL1        0.0483
      7 C         -25.7704   -0.2051   29.2800 C.3     1  UNL1        0.0308
      8 C         -28.6429   -0.4461   30.2385 C.3     1  UNL1        0.2007
      9 N         -29.4235   -1.3145   30.8227 N.pl3   1  UNL1       -0.2627
     10 C         -23.5739    2.1773   27.3065 C.2     1  UNL1       -0.0040
     11 C         -22.5277    2.2192   28.2016 C.2     1  UNL1       -0.0006
     12 C         -22.5119    1.1915   29.2034 C.2     1  UNL1       -0.0043
     13 C         -23.5336    0.4907   29.6086 C.2     1  UNL1       -0.0217
     14 C         -30.5299   -1.2514   30.9784 C.2     1  UNL1        0.0655
     15 C         -31.2352   -0.1515   30.6941 C.2     1  UNL1        0.0237
     16 C         -32.5122    0.0626   30.6438 C.2     1  UNL1       -0.0003
     17 C         -33.1443    1.2690   30.2093 C.2     1  UNL1       -0.0004
     18 C         -32.2778    2.3173   29.8418 C.2     1  UNL1       -0.0018
     19 C         -30.9190    2.1689   29.8305 C.2     1  UNL1        0.0074
     20 C         -30.3889    1.0084   30.2264 C.3     1  UNL1        0.1626
     21 O         -28.8818    0.8197   30.4923 O.3     1  UNL1       -0.3306
     22 C         -28.6689   -2.6744   31.1938 C.2     1  UNL1        0.0631
     23 C         -29.4059   -3.7895   31.3811 C.2     1  UNL1       -0.0029
     24 C         -29.4691   -4.6481   30.2527 C.2     1  UNL1       -0.0027
     25 C         -30.3176   -5.8318   30.2829 C.2     1  UNL1       -0.0006
     26 C         -31.1214   -5.9615   31.4438 C.2     1  UNL1       -0.0042
     27 C         -31.1147   -5.0989   32.4831 C.2     1  UNL1       -0.0214
     28 C         -30.2615   -3.9667   32.4516 C.3     1  UNL1        0.0536
     29 C         -28.2788    0.8505   26.6619 C.2     1  UNL1       -0.0225
     30 C         -28.9893    1.8837   26.9274 C.2     1  UNL1       -0.0046
     31 C         -30.2387    2.0705   26.2215 C.2     1  UNL1       -0.0049
     32 C         -30.7699    1.0379   25.5060 C.2     1  UNL1       -0.0258
     33 C         -29.9483   -0.0957   25.2803 C.3     1  UNL1        0.0307
     34 C         -28.7059   -0.1674   25.8603 C.3     1  UNL1        0.0310
@<TRIPOS>BOND
     1     1     2    1
     2     2     3    2
     3     3     4    1
     4     4     5    2
     5     5     6    1
     6     2     7    1
     7     6     7    1
     8     1     8    1
     9     8     9    1
    10     5    10    1
    11    10    11    2
    12    11    12    1
    13     6    13    1
    14    12    13    2
    15     9    14    1
    16    14    15    2
    17    15    16    1
    18    16    17    2
    19    17    18    1
    20    18    19    2
    21    15    20    1
    22    19    20    1
    23     8    21    1
    24    20    21    1
    25     9    22    1
    26    22    23    2
    27    23    24    1
    28    24    25    2
    29    25    26    1
    30    26    27    2
    31    23    28    1
    32    27    28    1
    33     3    29    1
    34    29    30    2
    35    30    31    1
    36    31    32    2
    37    32    33    1
    38    29    34    1
    39    33    34    1
