@<TRIPOS>MOLECULE
No_4094-gen_results/8p0m/2024-11-26-14-13-15/
 18 20 0 0 0
SMALL
GASTEIGER

@<TRIPOS>ATOM
      1 C         -28.0162   -0.8135   28.8779 C.ar    1  UNL1        0.0046
      2 C         -28.4690   -0.7850   29.8287 C.ar    1  UNL1        0.0551
      3 C         -26.5042   -0.7777   28.8766 C.ar    1  UNL1        0.0001
      4 C         -25.8103   -0.8531   30.1028 C.ar    1  UNL1        0.0000
      5 C         -27.9906   -0.8916   31.2257 C.ar    1  UNL1        0.0046
      6 C         -26.6042   -0.8676   31.2652 C.ar    1  UNL1        0.0001
      7 C         -30.0739   -0.8360   29.8615 C.2     1  UNL1        0.2660
      8 N         -30.6529   -1.7943   30.2676 N.am    1  UNL1       -0.1861
      9 O         -30.5939   -0.0710   28.9609 O.2     1  UNL1       -0.2683
     10 C         -32.0653   -2.0340   30.0765 C.3     1  UNL1        0.1218
     11 C         -32.4105   -3.2543   29.9265 C.3     1  UNL1        0.0512
     12 C         -31.5549   -4.3534   30.3143 C.ar    1  UNL1       -0.0037
     13 C         -31.8980   -5.6797   30.1079 C.ar    1  UNL1       -0.0029
     14 C         -30.9570   -6.6692   30.3762 C.ar    1  UNL1       -0.0002
     15 C         -29.7004   -6.3120   30.9552 C.ar    1  UNL1        0.0014
     16 C         -29.3752   -4.9780   31.1516 C.ar    1  UNL1        0.0177
     17 C         -30.2435   -4.0453   30.8298 C.ar    1  UNL1        0.0835
     18 N         -29.8939   -2.6804   30.8338 N.pl3   1  UNL1       -0.1448
@<TRIPOS>BOND
     1     2     7    1
     2     7     8   am
     3     7     9    2
     4     8    10    1
     5    11    12    1
     6     8    18    1
     7    10    11    1
     8    17    18    1
     9    12    13   ar
    10    13    14   ar
    11    14    15   ar
    12    15    16   ar
    13    16    17   ar
    14    17    12   ar
    15     1     2   ar
    16     2     5   ar
    17     5     6   ar
    18     6     4   ar
    19     4     3   ar
    20     3     1   ar
