@<TRIPOS>MOLECULE
No_4097-gen_results/8p0m/2024-11-26-14-13-15/
 10 10 0 0 0
SMALL
GASTEIGER

@<TRIPOS>ATOM
      1 C         -28.0162   -0.8135   28.8779 C.ar    1  UNL1       -0.0003
      2 C         -27.0636   -0.1190   28.6079 C.ar    1  UNL1       -0.0039
      3 C         -25.7923   -0.4302   29.0761 C.ar    1  UNL1       -0.0178
      4 C         -24.6321    0.3096   28.7290 C.3     1  UNL1        0.0520
      5 C         -27.8949   -1.8615   29.8946 C.ar    1  UNL1       -0.0000
      6 C         -26.6488   -2.2832   30.3320 C.ar    1  UNL1       -0.0003
      7 C         -25.5378   -1.5480   29.9409 C.ar    1  UNL1       -0.0039
      8 C         -23.3525    0.0843   29.2156 C.2     1  UNL1       -0.0260
      9 C         -22.2798    0.8930   28.8436 C.2     1  UNL1       -0.0300
     10 C         -22.4734    1.8415   27.7400 C.3     1  UNL1        0.0304
@<TRIPOS>BOND
     1     4     8    1
     2     8     9    2
     3     9    10    1
     4     4     3    1
     5     1     2   ar
     6     2     3   ar
     7     3     7   ar
     8     7     6   ar
     9     6     5   ar
    10     5     1   ar
