@<TRIPOS>MOLECULE
No_4098-gen_results/8p0m/2024-11-26-14-13-15/
 16 17 0 0 0
SMALL
GASTEIGER

@<TRIPOS>ATOM
      1 C         -28.0162   -0.8135   28.8779 C.ar    1  UNL1       -0.0000
      2 C         -27.0636   -0.1190   28.6079 C.ar    1  UNL1       -0.0000
      3 C         -27.0010    0.6913   27.4910 C.ar    1  UNL1       -0.0001
      4 C         -25.8548    1.4825   27.0830 C.ar    1  UNL1        0.0039
      5 C         -24.6901    1.4526   27.8807 C.ar    1  UNL1        0.0714
      6 C         -23.4878    2.1451   27.6011 C.3     1  UNL1        0.4186
      7 C         -25.8122   -0.1656   29.4299 C.ar    1  UNL1       -0.0001
      8 C         -24.6457    0.5887   29.0806 C.ar    1  UNL1        0.0039
      9 C         -29.2382   -0.1000   29.3740 C.ar    1  UNL1       -0.0000
     10 C         -30.3892   -0.8509   29.7934 C.ar    1  UNL1        0.0000
     11 F         -23.6483    3.2627   27.0766 F       1  UNL1       -0.1659
     12 F         -22.6425    1.4287   26.7456 F       1  UNL1       -0.1659
     13 F         -22.7399    2.4140   28.7084 F       1  UNL1       -0.1659
     14 C         -30.1543   -2.1382   30.2131 C.ar    1  UNL1        0.0000
     15 C         -28.8958   -2.7628   30.1277 C.ar    1  UNL1        0.0000
     16 C         -27.8176   -2.0580   29.6193 C.ar    1  UNL1       -0.0000
@<TRIPOS>BOND
     1     1     2    1
     2     5     6    1
     3     6    11    1
     4     6    12    1
     5     6    13    1
     6     2     3   ar
     7     3     4   ar
     8     4     5   ar
     9     5     8   ar
    10     8     7   ar
    11     7     2   ar
    12     1     9   ar
    13     9    10   ar
    14    10    14   ar
    15    14    15   ar
    16    15    16   ar
    17    16     1   ar
