@<TRIPOS>MOLECULE
No_4099-gen_results/8p0m/2024-11-26-14-13-15/
 18 19 0 0 0
SMALL
GASTEIGER

@<TRIPOS>ATOM
      1 C         -28.0162   -0.8135   28.8779 C.ar    1  UNL1       -0.0003
      2 C         -28.4690   -0.7850   29.8287 C.ar    1  UNL1       -0.0000
      3 C         -26.6028   -1.0596   28.5384 C.ar    1  UNL1       -0.0043
      4 C         -25.7969   -1.4490   29.7273 C.ar    1  UNL1       -0.0222
      5 C         -26.4284   -1.5407   30.9833 C.ar    1  UNL1       -0.0043
      6 C         -27.7564   -1.2444   31.0750 C.ar    1  UNL1       -0.0003
      7 C         -24.3922   -1.7399   29.5644 C.3     1  UNL1        0.0267
      8 C         -23.3076   -0.7648   29.8078 C.3     1  UNL1        0.0307
      9 C         -23.0649    0.1855   28.9780 C.ar    1  UNL1       -0.0217
     10 C         -23.8085    1.3507   28.8616 C.ar    1  UNL1        0.0023
     11 C         -23.5162    2.3439   27.8976 C.ar    1  UNL1        0.0795
     12 C         -22.4010    2.0620   27.0291 C.ar    1  UNL1        0.0066
     13 C         -21.5652    1.0106   27.2930 C.ar    1  UNL1       -0.0001
     14 C         -21.8742    0.1036   28.2138 C.ar    1  UNL1       -0.0043
     15 C         -24.0491   -2.9912   28.9022 C.3     1  UNL1        0.0050
     16 C         -24.3858    3.4890   27.6989 C.2     1  UNL1        0.3877
     17 O         -24.8820    4.0437   28.6012 O.co2   1  UNL1       -0.2406
     18 O         -24.7634    3.6424   26.4508 O.co2   1  UNL1       -0.2406
@<TRIPOS>BOND
     1     4     7    1
     2     7     8    1
     3     8     9    1
     4     7    15    1
     5    11    16    1
     6    16    17   ar
     7    16    18   ar
     8     1     2   ar
     9     2     6   ar
    10     6     5   ar
    11     5     4   ar
    12     4     3   ar
    13     3     1   ar
    14     9    10   ar
    15    10    11   ar
    16    11    12   ar
    17    12    13   ar
    18    13    14   ar
    19    14     9   ar
