@<TRIPOS>MOLECULE
No_41-gen_results/8p0m/2024-11-26-14-13-15/
 35 38 0 0 0
SMALL
GASTEIGER

@<TRIPOS>ATOM
      1 F         -28.0727   -1.2542   28.5316 F       1  UNL1       -0.2040
      2 C         -27.0607   -0.6291   28.8721 C.ar    1  UNL1        0.1442
      3 C         -26.1528   -1.1557   29.4537 C.ar    1  UNL1        0.0833
      4 C         -24.8777   -0.5788   29.8639 C.ar    1  UNL1        0.0182
      5 C         -24.7426    0.8273   29.4808 C.ar    1  UNL1        0.0579
      6 C         -25.7883    1.3927   28.7628 C.ar    1  UNL1        0.0133
      7 C         -26.9145    0.7309   28.4427 C.ar    1  UNL1        0.0248
      8 CL        -23.3446    1.6560   29.9170 Cl      1  UNL1       -0.0822
      9 C         -27.9239    1.4141   27.6485 C.2     1  UNL1       -0.0159
     10 C         -28.7320    2.1319   28.1492 C.2     1  UNL1       -0.0039
     11 C         -29.5603    2.7326   28.1168 C.2     1  UNL1       -0.0003
     12 C         -30.6481    2.8598   27.3770 C.2     1  UNL1       -0.0006
     13 C         -30.7453    1.8754   26.3636 C.2     1  UNL1       -0.0077
     14 C         -29.7399    1.0856   25.7761 C.2     1  UNL1       -0.0316
     15 C         -28.4603    0.6698   26.4264 C.3     1  UNL1        0.0488
     16 C         -26.1565   -2.6248   29.9657 C.2     1  UNL1        0.2670
     17 O         -27.1540   -3.0526   30.5372 O.2     1  UNL1       -0.2683
     18 N         -25.1043   -3.3749   29.8104 N.am    1  UNL1       -0.1997
     19 C         -23.9616   -3.0544   29.0240 C.3     1  UNL1        0.1388
     20 C         -29.9737    0.3401   24.5814 C.3     1  UNL1        0.0953
     21 C         -30.5229   -0.9140   24.8645 C.2     1  UNL1        0.2289
     22 N         -31.4238   -1.1983   25.5040 N.am    1  UNL1       -0.2793
     23 C         -32.3108   -1.8916   25.5643 C.3     1  UNL1        0.0937
     24 C         -32.8829   -2.6558   26.2322 C.3     1  UNL1        0.0259
     25 C         -32.3726   -2.6953   27.6208 C.3     1  UNL1        0.0257
     26 C         -31.6716   -1.5960   28.0704 C.3     1  UNL1        0.0259
     27 C         -31.0128   -0.9569   27.1173 C.3     1  UNL1        0.0937
     28 O         -30.0394   -1.8279   23.9987 O.2     1  UNL1       -0.2745
     29 C         -30.3225    1.1179   23.3232 C.3     1  UNL1        0.0140
     30 C         -33.0232   -3.6047   28.6379 C.ar    1  UNL1       -0.0224
     31 C         -33.4729   -3.1898   29.7270 C.ar    1  UNL1       -0.0043
     32 C         -33.7305   -4.0857   30.8598 C.ar    1  UNL1       -0.0003
     33 C         -33.6409   -5.4641   30.5655 C.ar    1  UNL1       -0.0000
     34 C         -32.7130   -5.0017   28.4961 C.ar    1  UNL1       -0.0043
     35 C         -33.0331   -5.9118   29.4424 C.ar    1  UNL1       -0.0003
@<TRIPOS>BOND
     1     1     2    1
     2     5     8    1
     3     7     9    1
     4     9    10    2
     5    10    11    1
     6    11    12    2
     7    12    13    1
     8    13    14    2
     9     9    15    1
    10    14    15    1
    11     3    16    1
    12    16    17    2
    13    16    18   am
    14    18    19    1
    15    14    20    1
    16    20    21    1
    17    21    22   am
    18    22    23    1
    19    24    25    1
    20    25    26    1
    21    22    27    1
    22    21    28    2
    23    20    29    1
    24    25    30    1
    25    23    24    1
    26    26    27    1
    27     2     3   ar
    28     3     4   ar
    29     4     5   ar
    30     5     6   ar
    31     6     7   ar
    32     7     2   ar
    33    30    31   ar
    34    31    32   ar
    35    32    33   ar
    36    33    35   ar
    37    35    34   ar
    38    34    30   ar
