@<TRIPOS>MOLECULE
No_4102-gen_results/8p0m/2024-11-26-14-13-15/
 13 14 0 0 0
SMALL
GASTEIGER

@<TRIPOS>ATOM
      1 C         -28.0162   -0.8135   28.8779 C.ar    1  UNL1        0.0114
      2 C         -27.0636   -0.1190   28.6079 C.ar    1  UNL1        0.0009
      3 C         -25.7647   -0.3897   29.0360 C.ar    1  UNL1        0.0001
      4 C         -25.5296   -1.5302   29.9014 C.ar    1  UNL1        0.0009
      5 C         -26.6888   -2.2893   30.1810 C.ar    1  UNL1        0.0114
      6 C         -27.8727   -1.9508   29.7373 C.ar    1  UNL1        0.0577
      7 C         -24.5491    0.4100   28.7341 C.ar    1  UNL1        0.0000
      8 C         -23.3309    0.0437   29.0569 C.ar    1  UNL1        0.0000
      9 C         -22.1994    0.8236   28.7067 C.ar    1  UNL1        0.0000
     10 C         -22.3657    1.8184   27.6957 C.ar    1  UNL1        0.0000
     11 C         -24.6193    1.4577   27.7557 C.ar    1  UNL1        0.0000
     12 C         -23.5641    2.1491   27.3161 C.ar    1  UNL1        0.0000
     13 CL        -29.2336   -2.8867   30.2113 Cl      1  UNL1       -0.0822
@<TRIPOS>BOND
     1     3     7    1
     2     6    13    1
     3     7     8   ar
     4     8     9   ar
     5     9    10   ar
     6    10    12   ar
     7    12    11   ar
     8    11     7   ar
     9     1     2   ar
    10     2     3   ar
    11     3     4   ar
    12     4     5   ar
    13     5     6   ar
    14     6     1   ar
