@<TRIPOS>MOLECULE
No_4103-gen_results/8p0m/2024-11-26-14-13-15/
 34 38 0 0 0
SMALL
GASTEIGER

@<TRIPOS>ATOM
      1 C         -28.0162   -0.8135   28.8779 C.ar    1  UNL1       -0.0215
      2 C         -28.4690   -0.7850   29.8287 C.ar    1  UNL1       -0.0014
      3 C         -26.5042   -0.7777   28.8766 C.ar    1  UNL1       -0.0255
      4 C         -25.6540   -0.6597   27.7191 C.3     1  UNL1        0.0307
      5 C         -27.9180   -0.9374   31.1824 C.ar    1  UNL1        0.0347
      6 C         -26.5423   -0.9399   31.2606 C.ar    1  UNL1        0.0024
      7 C         -25.7832   -0.8935   30.1201 C.ar    1  UNL1       -0.0042
      8 C         -25.8989    0.3149   26.7473 C.3     1  UNL1        0.0308
      9 C         -26.7729    0.4751   26.2575 C.ar    1  UNL1       -0.0226
     10 C         -26.9520    1.5350   25.1864 C.ar    1  UNL1       -0.0044
     11 C         -28.1917    1.8421   24.6418 C.ar    1  UNL1        0.0028
     12 C         -29.3074    1.0611   24.9673 C.ar    1  UNL1        0.0366
     13 C         -29.1680    0.0720   25.8833 C.ar    1  UNL1        0.1354
     14 C         -27.9870   -0.2209   26.5029 C.ar    1  UNL1        0.0122
     15 C         -28.5637   -0.3099   27.6383 C.3     1  UNL1        0.0550
     16 C         -24.3651   -1.0096   30.2020 C.ar    1  UNL1       -0.0003
     17 C         -23.7712   -1.2244   31.1386 C.ar    1  UNL1       -0.0000
     18 C         -24.4295   -1.0006   32.4656 C.ar    1  UNL1        0.0000
     19 C         -25.8398   -0.9702   32.4778 C.ar    1  UNL1        0.0001
     20 C         -28.7191   -1.0774   32.4391 C.2     1  UNL1        0.1766
     21 C         -29.3261    0.0869   32.9066 C.3     1  UNL1        0.0841
     22 C         -29.5103    1.1191   32.2705 C.ar    1  UNL1       -0.0152
     23 C         -30.0058    1.4565   31.3287 C.ar    1  UNL1       -0.0039
     24 C         -30.0997    2.7992   30.7271 C.ar    1  UNL1       -0.0003
     25 C         -29.4000    3.7812   31.3439 C.ar    1  UNL1       -0.0000
     26 C         -28.7400    3.5444   32.5339 C.ar    1  UNL1       -0.0003
     27 C         -28.7325    2.3205   33.0479 C.ar    1  UNL1       -0.0039
     28 C         -29.8917   -0.1450   34.3052 C.3     1  UNL1        0.0129
     29 O         -29.1493   -2.2526   32.6566 O.2     1  UNL1       -0.2910
     30 O         -30.5508   -0.2567   26.1208 O.3     1  UNL1       -0.4640
     31 C         -30.9056   -1.2694   25.2964 C.3     1  UNL1        0.3186
     32 C         -32.0234   -2.0282   25.8742 C.2     1  UNL1        0.4084
     33 O         -32.2641   -3.0719   25.3675 O.co2   1  UNL1       -0.2415
     34 O         -32.3564   -2.0029   27.0619 O.co2   1  UNL1       -0.2415
@<TRIPOS>BOND
     1     3     4    1
     2     4     8    1
     3     1    15    1
     4    14    15    1
     5     5    20    1
     6    20    21    1
     7    21    22    1
     8    21    28    1
     9    20    29    2
    10    13    30    1
    11    30    31    1
    12    31    32    1
    13    32    33   ar
    14    32    34   ar
    15     8     9    1
    16     9    10   ar
    17    10    11   ar
    18    11    12   ar
    19    12    13   ar
    20    13    14   ar
    21    14     9   ar
    22    22    23   ar
    23    23    24   ar
    24    24    25   ar
    25    25    26   ar
    26    26    27   ar
    27    27    22   ar
    28     7    16   ar
    29    16    17   ar
    30    17    18   ar
    31    18    19   ar
    32    19     6   ar
    33     1     2   ar
    34     2     5   ar
    35     5     6   ar
    36     6     7   ar
    37     7     3   ar
    38     3     1   ar
