@<TRIPOS>MOLECULE
No_4104-gen_results/8p0m/2024-11-26-14-13-15/
 21 23 0 0 0
SMALL
GASTEIGER

@<TRIPOS>ATOM
      1 C         -28.0162   -0.8135   28.8779 C.ar    1  UNL1        0.0577
      2 C         -27.0636   -0.1189   28.6079 C.ar    1  UNL1        0.0114
      3 C         -27.0010    0.6913   27.4910 C.ar    1  UNL1        0.0006
      4 C         -28.1420    0.8282   26.7994 C.ar    1  UNL1       -0.0039
      5 C         -29.2898   -0.4871   28.3661 C.ar    1  UNL1        0.0114
      6 C         -28.1796    1.6545   25.6431 C.2     1  UNL1       -0.0218
      7 C         -29.2994    0.2379   27.2252 C.ar    1  UNL1        0.0006
      8 CL        -27.9608   -1.8202   30.3658 Cl      1  UNL1       -0.0822
      9 C         -27.8579    2.5265   25.1749 C.2     1  UNL1       -0.0019
     10 C         -29.0149    0.8389   24.4223 C.3     1  UNL1        0.0310
     11 C         -27.0551    3.4086   26.1403 C.ar    1  UNL1        0.0282
     12 C         -27.5182    4.5341   26.9408 C.ar    1  UNL1        0.0038
     13 C         -26.7770    5.1412   27.8391 C.ar    1  UNL1        0.0178
     14 C         -27.2497    6.0239   28.7929 C.ar    1  UNL1        0.0015
     15 C         -26.4597    6.5272   29.8646 C.ar    1  UNL1        0.0001
     16 C         -25.1221    6.1362   29.8201 C.ar    1  UNL1        0.0015
     17 C         -24.6436    5.3118   28.8433 C.ar    1  UNL1        0.0191
     18 C         -25.4424    4.8757   28.0486 C.ar    1  UNL1        0.0822
     19 C         -25.5813    3.1118   26.3181 C.ar    1  UNL1        0.1382
     20 N         -24.9102    3.8053   27.1375 N.ar    1  UNL1       -0.2340
     21 CL        -24.9517    1.9892   25.3374 Cl      1  UNL1       -0.0613
@<TRIPOS>BOND
     1     4     6    1
     2     1     8    1
     3     6     9    2
     4     6    10    1
     5     9    11    1
     6    19    21    1
     7    11    12   ar
     8    12    13   ar
     9    18    20   ar
    10    20    19   ar
    11    19    11   ar
    12    13    14   ar
    13    14    15   ar
    14    15    16   ar
    15    16    17   ar
    16    17    18   ar
    17    18    13   ar
    18     1     2   ar
    19     2     3   ar
    20     3     4   ar
    21     4     7   ar
    22     7     5   ar
    23     5     1   ar
