@<TRIPOS>MOLECULE
No_4105-gen_results/8p0m/2024-11-26-14-13-15/
 17 19 0 0 0
SMALL
GASTEIGER

@<TRIPOS>ATOM
      1 O         -28.1229   -1.3353   28.4874 O.2     1  UNL1       -0.2728
      2 C         -27.0637   -0.8242   28.8687 C.2     1  UNL1        0.2497
      3 C         -26.4017   -0.0623   28.6224 C.3     1  UNL1        0.1555
      4 N         -26.5721   -1.5844   30.1172 N.am    1  UNL1       -0.2049
      5 C         -25.0209    0.3562   29.0444 C.3     1  UNL1        0.0327
      6 C         -24.6541   -0.3468   30.2523 C.3     1  UNL1        0.0528
      7 C         -23.3221   -0.0701   30.8643 C.3     1  UNL1        0.1439
      8 C         -25.4506   -1.3868   30.7776 C.3     1  UNL1        0.1176
      9 C         -26.6822    0.8147   27.3370 C.2     1  UNL1        0.2397
     10 O         -27.3569    0.4824   26.6377 O.2     1  UNL1       -0.2740
     11 N         -26.2706    2.1673   27.3652 N.am    1  UNL1       -0.2277
     12 C         -25.4591    2.7706   28.3756 C.2     1  UNL1        0.2334
     13 C         -24.6109    1.8151   29.1337 C.3     1  UNL1        0.1077
     14 O         -22.8325    1.1059   30.8123 O.3     1  UNL1       -0.3532
     15 C         -23.4007    2.0162   29.7319 C.3     1  UNL1        0.1512
     16 O         -25.2288    3.9548   28.5352 O.2     1  UNL1       -0.2744
     17 C         -26.8617    3.1111   26.4684 C.3     1  UNL1        0.1228
@<TRIPOS>BOND
     1     1     2    2
     2     2     3    1
     3     2     4   am
     4     3     5    1
     5     6     7    1
     6     6     8    1
     7     3     9    1
     8     9    10    2
     9     9    11   am
    10    11    12   am
    11     5    13    1
    12    12    13    1
    13     7    14    1
    14    13    15    1
    15    14    15    1
    16    12    16    2
    17    11    17    1
    18     5     6    1
    19     8     4    1
