@<TRIPOS>MOLECULE
No_4106-gen_results/8p0m/2024-11-26-14-13-15/
 29 33 0 0 0
SMALL
GASTEIGER

@<TRIPOS>ATOM
      1 C         -28.0162   -0.8135   28.8779 C.ar    1  UNL1        0.0026
      2 C         -27.0636   -0.1189   28.6079 C.ar    1  UNL1       -0.0176
      3 C         -26.9287    1.1713   29.0083 C.ar    1  UNL1       -0.0034
      4 C         -27.9560    1.7411   29.7840 C.ar    1  UNL1        0.0001
      5 C         -29.0569   -0.3271   29.7466 C.ar    1  UNL1        0.0795
      6 C         -28.9828    0.9722   30.1516 C.ar    1  UNL1        0.0066
      7 C         -25.8907   -0.6263   27.7857 C.3     1  UNL1        0.0526
      8 C         -24.5686   -0.1994   28.1996 C.ar    1  UNL1       -0.0178
      9 C         -23.6406   -0.6993   28.6892 C.ar    1  UNL1       -0.0039
     10 C         -22.5268   -0.1285   29.1804 C.ar    1  UNL1       -0.0003
     11 C         -22.3081    1.1067   28.7285 C.ar    1  UNL1       -0.0000
     12 C         -24.2580    1.2796   27.9881 C.ar    1  UNL1       -0.0036
     13 C         -23.1587    1.8792   28.1983 C.ar    1  UNL1       -0.0003
     14 C         -25.4472    2.2866   27.6685 C.2     1  UNL1       -0.0001
     15 C         -26.1414    2.2661   28.5033 C.2     1  UNL1        0.0059
     16 C         -26.4245    3.6194   29.2883 C.2     1  UNL1        0.0760
     17 C         -27.6252    3.1867   30.0746 C.2     1  UNL1        0.0064
     18 C         -25.8744    4.8241   29.2710 C.2     1  UNL1        0.3457
     19 O         -25.3835    5.2004   28.2084 O.2     1  UNL1       -0.2445
     20 O         -26.0045    5.5497   30.2797 O.3     1  UNL1       -0.4210
     21 C         -30.1494   -1.2187   30.1812 C.2     1  UNL1        0.3877
     22 O         -30.9059   -0.8217   31.0645 O.co2   1  UNL1       -0.2406
     23 O         -30.0179   -2.4477   29.9456 O.co2   1  UNL1       -0.2406
     24 C         -25.5361    6.8930   30.2411 C.ar    1  UNL1        0.1488
     25 C         -24.9962    7.3915   31.4518 C.ar    1  UNL1        0.0376
     26 C         -24.0734    8.4238   31.4339 C.ar    1  UNL1        0.0031
     27 C         -23.9094    9.1748   30.1939 C.ar    1  UNL1        0.0002
     28 C         -24.4478    8.6254   29.0166 C.ar    1  UNL1        0.0031
     29 C         -25.1659    7.4471   29.0544 C.ar    1  UNL1        0.0376
@<TRIPOS>BOND
     1     2     7    1
     2     7     8    1
     3    12    14    1
     4     3    15    1
     5    14    15    2
     6    15    16    1
     7     4    17    1
     8    16    17    2
     9    16    18    1
    10    18    19    2
    11    18    20    1
    12     5    21    1
    13    21    22   ar
    14    21    23   ar
    15    20    24    1
    16    24    25   ar
    17    25    26   ar
    18    26    27   ar
    19    27    28   ar
    20    28    29   ar
    21    29    24   ar
    22     1     2   ar
    23     2     3   ar
    24     3     4   ar
    25     4     6   ar
    26     6     5   ar
    27     5     1   ar
    28     8     9   ar
    29     9    10   ar
    30    10    11   ar
    31    11    13   ar
    32    13    12   ar
    33    12     8   ar
