@<TRIPOS>MOLECULE
No_4108-gen_results/8p0m/2024-11-26-14-13-15/
 15 17 0 0 0
SMALL
GASTEIGER

@<TRIPOS>ATOM
      1 C         -28.0162   -0.8135   28.8779 C.ar    1  UNL1        0.0013
      2 C         -28.4690   -0.7850   29.8287 C.ar    1  UNL1        0.0001
      3 C         -28.1960    0.3478   28.0550 C.ar    1  UNL1        0.0153
      4 C         -29.0191    1.3501   28.3782 C.ar    1  UNL1        0.0704
      5 C         -29.6249    1.2683   29.6012 C.ar    1  UNL1        0.0165
      6 C         -29.3821    0.1816   30.4004 C.ar    1  UNL1        0.0013
      7 C         -27.4591    0.3787   26.7048 C.2     1  UNL1        0.0013
      8 C         -27.5985    0.6357   25.6182 C.2     1  UNL1        0.0013
      9 C         -29.0006    1.0333   25.3131 C.ar    1  UNL1        0.0153
     10 C         -29.2925    1.1428   23.9131 C.ar    1  UNL1        0.0013
     11 C         -30.2629    1.0779   23.6538 C.ar    1  UNL1        0.0001
     12 C         -31.5047    1.2979   24.4005 C.ar    1  UNL1        0.0013
     13 C         -31.2463    1.3335   25.7741 C.ar    1  UNL1        0.0165
     14 C         -30.0082    1.0893   26.2305 C.ar    1  UNL1        0.0704
     15 N         -29.7148    1.1516   27.5554 N.pl3   1  UNL1       -0.2125
@<TRIPOS>BOND
     1     3     7    1
     2     7     8    2
     3     8     9    1
     4    14    15    1
     5    15     4    1
     6     1     2   ar
     7     2     6   ar
     8     6     5   ar
     9     5     4   ar
    10     4     3   ar
    11     3     1   ar
    12     9    10   ar
    13    10    11   ar
    14    11    12   ar
    15    12    13   ar
    16    13    14   ar
    17    14     9   ar
