@<TRIPOS>MOLECULE
No_4109-gen_results/8p0m/2024-11-26-14-13-15/
 28 31 0 0 0
SMALL
GASTEIGER

@<TRIPOS>ATOM
      1 C         -28.0162   -0.8135   28.8779 C.ar    1  UNL1        0.0000
      2 C         -27.0636   -0.1189   28.6079 C.ar    1  UNL1        0.0000
      3 C         -26.9716    0.7139   27.5060 C.ar    1  UNL1        0.0000
      4 C         -25.8205    1.4909   27.1160 C.ar    1  UNL1        0.0000
      5 C         -24.6562    1.4242   27.9180 C.ar    1  UNL1        0.0007
      6 C         -24.7114    0.5419   29.0507 C.ar    1  UNL1        0.0096
      7 C         -25.8042   -0.2058   29.3881 C.ar    1  UNL1        0.0006
      8 C         -28.0309   -1.5903   30.1490 C.ar    1  UNL1        0.0000
      9 C         -26.8104   -1.7964   30.8511 C.ar    1  UNL1        0.0000
     10 C         -25.6958   -1.0684   30.5035 C.ar    1  UNL1        0.0000
     11 C         -28.0906    0.8796   26.5377 C.ar    1  UNL1        0.0001
     12 C         -27.9741    1.0303   25.2685 C.ar    1  UNL1        0.0000
     13 C         -29.1126    1.0685   24.4713 C.ar    1  UNL1        0.0001
     14 C         -30.3621    0.8608   24.9609 C.ar    1  UNL1        0.0046
     15 C         -30.4802    0.6378   26.3080 C.ar    1  UNL1        0.0554
     16 C         -29.4255    0.6400   27.1350 C.ar    1  UNL1        0.0046
     17 C         -23.3799    0.4693   29.8075 C.2     1  UNL1        0.0684
     18 C         -23.2561    0.7604   30.9665 C.2     1  UNL1        0.0110
     19 C         -22.3475   -0.1983   29.0460 C.1     1  UNL1        0.1004
     20 N         -21.3033   -0.3422   28.4623 N.1     1  UNL1       -0.1908
     21 C         -31.8648    0.4418   26.8336 C.2     1  UNL1        0.2687
     22 O         -32.5809   -0.3884   26.5331 O.2     1  UNL1       -0.2680
     23 N         -32.1989    1.2992   27.9494 N.am    1  UNL1       -0.1795
     24 C         -31.4850    2.3420   28.5170 C.2     1  UNL1        0.0557
     25 C         -31.8303    3.0852   29.2164 C.2     1  UNL1        0.0122
     26 C         -30.9632    4.2000   29.6701 C.2     1  UNL1       -0.0032
     27 C         -29.9242    4.2939   29.2113 C.2     1  UNL1       -0.0200
     28 C         -30.0978    2.7026   28.0526 C.3     1  UNL1        0.0692
@<TRIPOS>BOND
     1     3    11    1
     2     6    17    1
     3    17    18    2
     4    17    19    1
     5    19    20    3
     6    15    21    1
     7    21    22    2
     8    21    23   am
     9    23    24    1
    10    24    25    2
    11    25    26    1
    12    26    27    2
    13    24    28    1
    14    27    28    1
    15    11    12   ar
    16    12    13   ar
    17    13    14   ar
    18    14    15   ar
    19    15    16   ar
    20    16    11   ar
    21     2     3   ar
    22     3     4   ar
    23     4     5   ar
    24     5     6   ar
    25     6     7   ar
    26     1     2   ar
    27     2     7   ar
    28     7    10   ar
    29    10     9   ar
    30     9     8   ar
    31     8     1   ar
