@<TRIPOS>MOLECULE
No_411-gen_results/8p0m/2024-11-26-14-13-15/
 7 7 0 0 0
SMALL
GASTEIGER

@<TRIPOS>ATOM
      1 CL        -28.1493   -0.8198   28.9079 Cl      1  UNL1       -0.0822
      2 C         -26.9116   -0.0797   28.9452 C.ar    1  UNL1        0.0577
      3 C         -25.9665   -0.2123   29.6235 C.ar    1  UNL1        0.0114
      4 C         -24.7620    0.6059   29.6315 C.ar    1  UNL1        0.0009
      5 C         -24.6775    1.6056   28.6289 C.ar    1  UNL1        0.0001
      6 C         -25.7344    1.7557   27.8113 C.ar    1  UNL1        0.0009
      7 C         -26.7981    0.9646   27.8904 C.ar    1  UNL1        0.0114
@<TRIPOS>BOND
     1     1     2    1
     2     2     3   ar
     3     3     4   ar
     4     4     5   ar
     5     5     6   ar
     6     6     7   ar
     7     7     2   ar
