@<TRIPOS>MOLECULE
No_4110-gen_results/8p0m/2024-11-26-14-13-15/
 12 13 0 0 0
SMALL
GASTEIGER

@<TRIPOS>ATOM
      1 C         -28.0162   -0.8135   28.8779 C.ar    1  UNL1        0.0158
      2 C         -27.0636   -0.1189   28.6079 C.ar    1  UNL1        0.0612
      3 C         -25.7923   -0.4302   29.0761 C.ar    1  UNL1       -0.0073
      4 C         -25.5756   -1.5654   29.9363 C.ar    1  UNL1       -0.0030
      5 C         -26.7354   -2.3004   30.2173 C.ar    1  UNL1       -0.0002
      6 C         -27.9184   -1.9537   29.7629 C.ar    1  UNL1        0.0013
      7 N         -27.3307    1.0101   27.8524 N.pl3   1  UNL1       -0.2397
      8 C         -26.3102    1.7710   27.4869 C.3     1  UNL1        0.0928
      9 C         -25.9786    2.6993   27.0438 C.3     1  UNL1        0.0216
     10 C         -27.0440    3.7612   26.7948 C.3     1  UNL1        0.0018
     11 C         -24.8587    1.1137   27.9153 C.3     1  UNL1        0.0263
     12 C         -24.6434    0.2576   28.6752 C.3     1  UNL1        0.0294
@<TRIPOS>BOND
     1     2     7    1
     2     7     8    1
     3     9    10    1
     4     8    11    1
     5     3    12    1
     6    11    12    1
     7     9     8    1
     8     1     2   ar
     9     2     3   ar
    10     3     4   ar
    11     4     5   ar
    12     5     6   ar
    13     6     1   ar
