@<TRIPOS>MOLECULE
No_4111-gen_results/8p0m/2024-11-26-14-13-15/
 13 13 0 0 0
SMALL
GASTEIGER

@<TRIPOS>ATOM
      1 C         -28.0162   -0.8135   28.8779 C.3     1  UNL1        0.0403
      2 C         -27.0636   -0.1190   28.6079 C.ar    1  UNL1       -0.0212
      3 C         -27.0010    0.6913   27.4910 C.ar    1  UNL1       -0.0042
      4 C         -25.8548    1.4825   27.0830 C.ar    1  UNL1       -0.0003
      5 C         -24.6901    1.4526   27.8807 C.ar    1  UNL1       -0.0000
      6 C         -24.7379    0.6010   29.0416 C.ar    1  UNL1       -0.0003
      7 C         -25.8234   -0.1688   29.3887 C.ar    1  UNL1       -0.0042
      8 C         -28.7350   -0.4637   30.1419 C.3     1  UNL1        0.0811
      9 C         -28.7831    0.6118   30.5175 C.1     1  UNL1       -0.0861
     10 C         -29.0820    1.2849   31.2225 C.1     1  UNL1       -0.0641
     11 C         -29.4921    2.7051   30.9457 C.2     1  UNL1        0.0447
     12 C         -29.0138    3.2940   29.8405 C.2     1  UNL1       -0.0170
     13 C         -28.4467    2.4852   28.9100 C.3     1  UNL1        0.0314
@<TRIPOS>BOND
     1     1     2    1
     2     1     8    1
     3     8     9    1
     4     9    10    3
     5    10    11    1
     6    11    12    2
     7    12    13    1
     8     2     3   ar
     9     3     4   ar
    10     4     5   ar
    11     5     6   ar
    12     6     7   ar
    13     7     2   ar
