@<TRIPOS>MOLECULE
No_4112-gen_results/8p0m/2024-11-26-14-13-15/
 14 14 0 0 0
SMALL
GASTEIGER

@<TRIPOS>ATOM
      1 C         -28.0162   -0.8135   28.8779 C.ar    1  UNL1        0.0190
      2 C         -27.0636   -0.1190   28.6079 C.ar    1  UNL1        0.1084
      3 N         -25.8176   -0.3427   29.0488 N.ar    1  UNL1       -0.2439
      4 C         -25.6067   -1.4414   29.8929 C.ar    1  UNL1        0.0986
      5 C         -26.6760   -2.2193   30.2363 C.ar    1  UNL1        0.0207
      6 C         -27.8635   -1.9317   29.7671 C.ar    1  UNL1        0.0029
      7 C         -27.1235    1.1150   27.7507 C.3     1  UNL1        0.2689
      8 O         -27.3033    0.9018   26.5545 O.3     1  UNL1       -0.1939
      9 N         -26.9465    2.3911   28.1720 N.pl3   1  UNL1       -0.2762
     10 C         -26.9933    3.5009   27.2686 C.3     1  UNL1        0.1149
     11 C         -26.6587    2.6651   29.5373 C.2     1  UNL1        0.0634
     12 C         -25.6277    2.8722   29.9865 C.2     1  UNL1        0.0158
     13 C         -25.2864    3.0535   31.4142 C.2     1  UNL1        0.0013
     14 C         -24.0339    3.3770   31.9698 C.2     1  UNL1        0.0000
@<TRIPOS>BOND
     1     2     7    1
     2     7     8    1
     3     7     9    1
     4     9    10    1
     5     9    11    1
     6    11    12    2
     7    12    13    1
     8    13    14    2
     9     1     2   ar
    10     2     3   ar
    11     3     4   ar
    12     4     5   ar
    13     5     6   ar
    14     6     1   ar
