@<TRIPOS>MOLECULE
No_4113-gen_results/8p0m/2024-11-26-14-13-15/
 14 15 0 0 0
SMALL
GASTEIGER

@<TRIPOS>ATOM
      1 C         -28.0162   -0.8135   28.8779 C.ar    1  UNL1        0.0023
      2 C         -27.0636   -0.1189   28.6079 C.ar    1  UNL1        0.0001
      3 C         -26.9716    0.7139   27.5060 C.ar    1  UNL1        0.0023
      4 C         -28.1053    0.7744   26.6421 C.ar    1  UNL1        0.0296
      5 C         -29.2041    0.1179   27.0477 C.ar    1  UNL1        0.1401
      6 C         -29.2127   -0.6088   28.1281 C.ar    1  UNL1        0.0296
      7 C         -25.7106    1.4518   27.1380 C.ar    1  UNL1        0.0009
      8 C         -24.6052    0.9253   27.6902 C.ar    1  UNL1        0.0114
      9 C         -23.3087    1.6018   27.4923 C.ar    1  UNL1        0.0577
     10 C         -23.2169    2.4959   26.4391 C.ar    1  UNL1        0.0114
     11 C         -25.5553    2.4208   26.1832 C.ar    1  UNL1        0.0001
     12 C         -24.3322    3.0724   25.9239 C.ar    1  UNL1        0.0009
     13 CL        -21.8988    0.9308   28.2218 Cl      1  UNL1       -0.0822
     14 F         -30.2960    0.2336   26.2804 F       1  UNL1       -0.2042
@<TRIPOS>BOND
     1     3     7    1
     2     9    13    1
     3     5    14    1
     4     7     8   ar
     5     8     9   ar
     6     9    10   ar
     7    10    12   ar
     8    12    11   ar
     9    11     7   ar
    10     1     2   ar
    11     2     3   ar
    12     3     4   ar
    13     4     5   ar
    14     5     6   ar
    15     6     1   ar
