@<TRIPOS>MOLECULE
No_4114-gen_results/8p0m/2024-11-26-14-13-15/
 25 26 0 0 0
SMALL
GASTEIGER

@<TRIPOS>ATOM
      1 C         -28.0162   -0.8135   28.8779 C.ar    1  UNL1        0.0104
      2 C         -28.4690   -0.7850   29.8287 C.ar    1  UNL1        0.0799
      3 C         -27.1356    0.2359   28.5352 C.ar    1  UNL1        0.0718
      4 C         -26.8745    1.2825   29.3982 C.ar    1  UNL1        0.0103
      5 C         -27.5070    1.2380   30.6295 C.ar    1  UNL1        0.0758
      6 C         -28.3293    0.1745   30.9350 C.ar    1  UNL1        0.0130
      7 C         -26.4077    0.3070   27.2259 C.3     1  UNL1        0.4186
      8 F         -25.4085   -0.3655   27.2512 F       1  UNL1       -0.1659
      9 F         -27.2243   -0.1905   26.2445 F       1  UNL1       -0.1659
     10 F         -26.0096    1.5373   26.8208 F       1  UNL1       -0.1659
     11 C         -29.3821   -2.0258   30.3317 C.2     1  UNL1        0.3877
     12 O         -30.4071   -2.2443   29.9828 O.co2   1  UNL1       -0.2406
     13 O         -28.7780   -2.9215   31.2329 O.co2   1  UNL1       -0.2406
     14 C         -27.2374    2.3310   31.5977 C.2     1  UNL1        0.3411
     15 O         -27.3213    2.2949   32.7085 O.2     1  UNL1       -0.2449
     16 O         -26.4706    3.2962   31.0353 O.3     1  UNL1       -0.4486
     17 C         -25.9725    4.2263   31.8633 C.3     1  UNL1        0.1800
     18 C         -24.7294    4.9133   31.4163 C.3     1  UNL1        0.1288
     19 C         -24.1133    5.4992   32.6567 C.2     1  UNL1        0.2293
     20 O         -22.9382    5.8071   32.5539 O.2     1  UNL1       -0.2747
     21 N         -24.8641    6.0284   33.5919 N.am    1  UNL1       -0.2793
     22 C         -26.1675    5.5765   33.8619 C.3     1  UNL1        0.0971
     23 C         -26.6280    4.6075   33.0566 C.3     1  UNL1        0.0656
     24 C         -24.2262    6.9774   34.5548 C.3     1  UNL1        0.0935
     25 C         -23.4491    7.9182   33.9431 C.3     1  UNL1        0.0233
@<TRIPOS>BOND
     1     3     7    1
     2     7     8    1
     3     7     9    1
     4     7    10    1
     5     2    11    1
     6    11    12   ar
     7    11    13   ar
     8     5    14    1
     9    14    15    2
    10    14    16    1
    11    16    17    1
    12    17    18    1
    13    18    19    1
    14    19    20    2
    15    19    21   am
    16    21    22    1
    17    17    23    1
    18    21    24    1
    19    24    25    1
    20    23    22    1
    21     1     2   ar
    22     2     6   ar
    23     6     5   ar
    24     5     4   ar
    25     4     3   ar
    26     3     1   ar
