@<TRIPOS>MOLECULE
No_4115-gen_results/8p0m/2024-11-26-14-13-15/
 23 25 0 0 0
SMALL
GASTEIGER

@<TRIPOS>ATOM
      1 O         -28.1229   -1.3353   28.4874 O.2     1  UNL1       -0.2730
      2 C         -27.0637   -0.8242   28.8687 C.2     1  UNL1        0.2450
      3 C         -26.4017   -0.0623   28.6224 C.3     1  UNL1        0.1004
      4 N         -26.2652   -1.8674   29.7609 N.am    1  UNL1       -0.2046
      5 C         -26.8442    1.1343   27.8797 C.2     1  UNL1       -0.0216
      6 C         -25.0005   -1.6707   30.1794 C.3     1  UNL1        0.1264
      7 C         -24.9787    0.3185   29.1503 C.3     1  UNL1        0.0266
      8 C         -24.3650   -0.5406   29.9325 C.3     1  UNL1        0.1258
      9 C         -27.0806    2.1106   27.9711 C.2     1  UNL1       -0.0255
     10 C         -27.1922    3.4047   27.8125 C.3     1  UNL1        0.0520
     11 C         -27.2137    4.6701   28.0863 C.ar    1  UNL1       -0.0178
     12 C         -27.6329    5.3165   29.1169 C.ar    1  UNL1       -0.0036
     13 C         -27.5999    6.7589   29.2123 C.ar    1  UNL1       -0.0003
     14 C         -27.8650    7.5433   30.3377 C.ar    1  UNL1       -0.0000
     15 C         -26.7952    7.2781   28.1342 C.ar    1  UNL1       -0.0000
     16 C         -26.2863    6.6647   27.0689 C.ar    1  UNL1       -0.0003
     17 C         -26.3574    5.3973   27.0561 C.ar    1  UNL1       -0.0039
     18 C         -28.0238    6.9102   31.4757 C.ar    1  UNL1       -0.0000
     19 C         -28.1746    5.5030   31.4760 C.ar    1  UNL1       -0.0000
     20 C         -27.8716    4.7006   30.3900 C.ar    1  UNL1       -0.0003
     21 C         -23.0063   -0.3239   30.4146 C.2     1  UNL1        0.3661
     22 O         -22.3043    0.6502   30.0089 O.co2   1  UNL1       -0.2456
     23 O         -22.5629   -0.9664   31.5254 O.co2   1  UNL1       -0.2456
@<TRIPOS>BOND
     1     1     2    2
     2     2     3    1
     3     2     4   am
     4     3     5    1
     5     3     7    1
     6     6     8    1
     7     7     8    1
     8     5     9    2
     9     9    10    1
    10     8    21    1
    11    21    22   ar
    12    21    23   ar
    13    10    11    1
    14     6     4    1
    15    11    12   ar
    16    13    15   ar
    17    15    16   ar
    18    16    17   ar
    19    17    11   ar
    20    12    13   ar
    21    13    14   ar
    22    14    18   ar
    23    18    19   ar
    24    19    20   ar
    25    20    12   ar
