@<TRIPOS>MOLECULE
No_4116-gen_results/8p0m/2024-11-26-14-13-15/
 13 14 0 0 0
SMALL
GASTEIGER

@<TRIPOS>ATOM
      1 C         -28.0162   -0.8135   28.8779 C.ar    1  UNL1       -0.0039
      2 C         -28.4690   -0.7850   29.8287 C.ar    1  UNL1       -0.0003
      3 C         -27.1356    0.2359   28.5352 C.ar    1  UNL1       -0.0178
      4 C         -26.8745    1.2825   29.3982 C.ar    1  UNL1       -0.0039
      5 C         -27.5070    1.2380   30.6295 C.ar    1  UNL1       -0.0003
      6 C         -28.3293    0.1745   30.9350 C.ar    1  UNL1       -0.0000
      7 C         -26.4077    0.3070   27.2259 C.3     1  UNL1        0.0526
      8 C         -25.7128    1.4905   26.9212 C.ar    1  UNL1       -0.0178
      9 C         -24.7086    1.5122   26.0854 C.ar    1  UNL1       -0.0039
     10 C         -23.8823    2.7701   25.9554 C.ar    1  UNL1       -0.0003
     11 C         -24.2679    3.8973   26.7568 C.ar    1  UNL1       -0.0000
     12 C         -25.3592    3.8170   27.5522 C.ar    1  UNL1       -0.0003
     13 C         -26.0342    2.6105   27.7516 C.ar    1  UNL1       -0.0039
@<TRIPOS>BOND
     1     3     7    1
     2     7     8    1
     3     1     2   ar
     4     2     6   ar
     5     6     5   ar
     6     5     4   ar
     7     4     3   ar
     8     3     1   ar
     9     8     9   ar
    10     9    10   ar
    11    10    11   ar
    12    11    12   ar
    13    12    13   ar
    14    13     8   ar
