@<TRIPOS>MOLECULE
No_4117-gen_results/8p0m/2024-11-26-14-13-15/
 14 16 0 0 0
SMALL
GASTEIGER

@<TRIPOS>ATOM
      1 C         -28.0162   -0.8135   28.8779 C.ar    1  UNL1       -0.0043
      2 C         -28.4690   -0.7850   29.8287 C.ar    1  UNL1       -0.0003
      3 C         -27.1356    0.2359   28.5352 C.ar    1  UNL1       -0.0218
      4 C         -26.8745    1.2825   29.3982 C.ar    1  UNL1       -0.0043
      5 C         -25.9742    2.3797   29.0831 C.ar    1  UNL1       -0.0043
      6 C         -28.3915    0.1302   30.9603 C.ar    1  UNL1       -0.0000
      7 C         -27.5035    1.2424   30.6700 C.ar    1  UNL1       -0.0003
      8 C         -25.3582    2.9659   29.8272 C.ar    1  UNL1       -0.0003
      9 C         -25.9208    2.7194   27.6546 C.ar    1  UNL1       -0.0218
     10 C         -24.9873    3.7419   27.2573 C.ar    1  UNL1       -0.0043
     11 C         -24.4250    4.1431   29.5317 C.ar    1  UNL1       -0.0000
     12 C         -24.2916    4.4902   28.1636 C.ar    1  UNL1       -0.0003
     13 C         -26.4563    0.2070   27.1920 C.3     1  UNL1        0.0310
     14 C         -26.0801    1.5114   26.6253 C.3     1  UNL1        0.0310
@<TRIPOS>BOND
     1     4     5    1
     2     3    13    1
     3     9    14    1
     4    13    14    1
     5     1     2   ar
     6     2     6   ar
     7     6     7   ar
     8     7     4   ar
     9     4     3   ar
    10     3     1   ar
    11     5     8   ar
    12     8    11   ar
    13    11    12   ar
    14    12    10   ar
    15    10     9   ar
    16     9     5   ar
