@<TRIPOS>MOLECULE
No_4118-gen_results/8p0m/2024-11-26-14-13-15/
 30 33 0 0 0
SMALL
GASTEIGER

@<TRIPOS>ATOM
      1 C         -28.0162   -0.8135   28.8779 C.ar    1  UNL1        0.0053
      2 C         -28.4690   -0.7850   29.8287 C.ar    1  UNL1        0.0678
      3 C         -26.5455   -0.8762   28.8500 C.ar    1  UNL1       -0.0038
      4 C         -25.8041   -1.0324   30.0571 C.ar    1  UNL1       -0.0178
      5 C         -27.9437   -0.9869   31.2075 C.ar    1  UNL1        0.0053
      6 C         -26.5825   -1.0386   31.2231 C.ar    1  UNL1       -0.0038
      7 C         -30.0606   -0.7371   29.9024 C.2     1  UNL1        0.3334
      8 O         -30.7252   -1.5544   30.2697 O.2     1  UNL1       -0.2541
      9 F         -30.5270    0.3279   29.3297 F       1  UNL1       -0.1586
     10 C         -24.3746   -1.0938   30.0697 C.3     1  UNL1        0.0526
     11 C         -23.5793   -0.4056   29.1856 C.ar    1  UNL1       -0.0175
     12 C         -22.1721   -0.4817   29.2648 C.ar    1  UNL1       -0.0039
     13 C         -24.1374    0.5557   28.3006 C.ar    1  UNL1        0.0034
     14 C         -23.2607    1.3537   27.5328 C.ar    1  UNL1        0.0820
     15 C         -21.3414    0.3205   28.4687 C.ar    1  UNL1       -0.0001
     16 C         -21.8668    1.2498   27.6265 C.ar    1  UNL1        0.0074
     17 C         -23.8098    2.4146   26.6224 C.2     1  UNL1        0.3250
     18 N         -23.6780    2.4098   25.4686 N.2     1  UNL1       -0.0603
     19 N         -24.8123    3.2956   27.1972 N.am    1  UNL1       -0.1359
     20 C         -25.1731    4.1149   26.2296 C.3     1  UNL1        0.2677
     21 C         -24.3107    3.5768   25.0563 C.3     1  UNL1        0.3140
     22 C         -25.2365    3.4637   28.5312 C.2     1  UNL1        0.3179
     23 C         -26.0223    2.7772   29.1993 C.3     1  UNL1        0.1391
     24 C         -26.2454    2.9282   30.6151 C.ar    1  UNL1       -0.0107
     25 C         -27.2873    2.3170   31.3266 C.ar    1  UNL1       -0.0037
     26 C         -27.3127    2.3862   32.7389 C.ar    1  UNL1       -0.0003
     27 C         -25.2773    3.5564   31.4244 C.ar    1  UNL1       -0.0037
     28 C         -25.2979    3.6451   32.8202 C.ar    1  UNL1       -0.0003
     29 C         -26.3755    3.0870   33.4527 C.ar    1  UNL1       -0.0000
     30 O         -24.9178    4.7282   28.9502 O.2     1  UNL1       -0.2464
@<TRIPOS>BOND
     1     2     7    1
     2     7     8    2
     3     7     9    1
     4     4    10    1
     5    10    11    1
     6    14    17    1
     7    17    18    2
     8    17    19    1
     9    19    20    1
    10    18    21    1
    11    20    21    1
    12    19    22   am
    13    22    23    1
    14    23    24    1
    15    22    30    2
    16    11    12   ar
    17    12    15   ar
    18    15    16   ar
    19    16    14   ar
    20    14    13   ar
    21    13    11   ar
    22    24    25   ar
    23    25    26   ar
    24    26    29   ar
    25    29    28   ar
    26    28    27   ar
    27    27    24   ar
    28     1     2   ar
    29     2     5   ar
    30     5     6   ar
    31     6     4   ar
    32     4     3   ar
    33     3     1   ar
