@<TRIPOS>MOLECULE
No_4119-gen_results/8p0m/2024-11-26-14-13-15/
 18 19 0 0 0
SMALL
GASTEIGER

@<TRIPOS>ATOM
      1 C         -28.0162   -0.8135   28.8779 C.ar    1  UNL1        0.0094
      2 C         -28.4690   -0.7850   29.8287 C.ar    1  UNL1        0.0799
      3 C         -28.1960    0.3478   28.0550 C.ar    1  UNL1        0.0352
      4 C         -29.0191    1.3501   28.3782 C.ar    1  UNL1        0.0029
      5 C         -28.3170   -1.9812   30.8560 C.2     1  UNL1        0.3878
      6 C         -29.5950    1.2859   29.6049 C.ar    1  UNL1        0.0003
      7 C         -29.3465    0.2093   30.3749 C.ar    1  UNL1        0.0066
      8 O         -29.2620   -2.7236   31.0107 O.co2   1  UNL1       -0.2406
      9 O         -27.1323   -2.3224   31.2107 O.co2   1  UNL1       -0.2406
     10 C         -27.4456    0.3698   26.6911 C.2     1  UNL1        0.1774
     11 C         -26.4461    0.8999   26.5179 C.3     1  UNL1        0.0954
     12 C         -25.3658    1.0934   26.7159 C.ar    1  UNL1       -0.0145
     13 C         -24.3346    1.8508   26.0216 C.ar    1  UNL1       -0.0038
     14 C         -23.4328    2.5685   26.2248 C.ar    1  UNL1       -0.0003
     15 C         -22.6921    2.2318   27.4767 C.ar    1  UNL1       -0.0000
     16 C         -23.3267    1.2283   28.3341 C.ar    1  UNL1       -0.0003
     17 C         -24.5404    0.7601   27.9740 C.ar    1  UNL1       -0.0038
     18 O         -28.2780   -0.1592   25.7601 O.2     1  UNL1       -0.2910
@<TRIPOS>BOND
     1     2     5    1
     2     5     8   ar
     3     5     9   ar
     4     3    10    1
     5    10    11    1
     6    10    18    2
     7    11    12    1
     8    12    13   ar
     9    13    14   ar
    10    14    15   ar
    11    15    16   ar
    12    16    17   ar
    13    17    12   ar
    14     1     2   ar
    15     2     7   ar
    16     7     6   ar
    17     6     4   ar
    18     4     3   ar
    19     3     1   ar
