@<TRIPOS>MOLECULE
No_4121-gen_results/8p0m/2024-11-26-14-13-15/
 15 16 0 0 0
SMALL
GASTEIGER

@<TRIPOS>ATOM
      1 C         -28.0162   -0.8135   28.8779 C.ar    1  UNL1       -0.0000
      2 C         -28.4690   -0.7850   29.8287 C.ar    1  UNL1        0.0000
      3 C         -27.0871    0.2903   28.6377 C.ar    1  UNL1       -0.0000
      4 C         -26.8317    1.2487   29.5869 C.ar    1  UNL1       -0.0000
      5 C         -28.3914    0.0801   31.0065 C.ar    1  UNL1        0.0000
      6 C         -27.4940    1.1521   30.7841 C.ar    1  UNL1        0.0000
      7 C         -26.3109    0.3918   27.3640 C.ar    1  UNL1       -0.0000
      8 C         -26.7673    1.0252   26.3723 C.ar    1  UNL1       -0.0000
      9 C         -24.9987   -0.1757   27.3492 C.ar    1  UNL1       -0.0003
     10 C         -26.1554    0.9015   25.0935 C.ar    1  UNL1       -0.0000
     11 C         -24.4559   -0.8093   28.5772 C.2     1  UNL1       -0.0046
     12 C         -24.7249    0.4967   25.0511 C.ar    1  UNL1       -0.0000
     13 C         -24.2635   -0.0469   26.2014 C.ar    1  UNL1       -0.0000
     14 C         -24.5504   -1.8366   29.0935 C.2     1  UNL1       -0.0258
     15 C         -23.9239   -2.2541   30.2951 C.3     1  UNL1        0.0307
@<TRIPOS>BOND
     1     3     7    1
     2     9    11    1
     3    11    14    2
     4    14    15    1
     5     1     2   ar
     6     2     5   ar
     7     5     6   ar
     8     6     4   ar
     9     4     3   ar
    10     3     1   ar
    11     7     8   ar
    12     8    10   ar
    13    10    12   ar
    14    12    13   ar
    15    13     9   ar
    16     9     7   ar
