@<TRIPOS>MOLECULE
No_4122-gen_results/8p0m/2024-11-26-14-13-15/
 28 30 0 0 0
SMALL
GASTEIGER

@<TRIPOS>ATOM
      1 C         -28.0162   -0.8135   28.8779 C.ar    1  UNL1        0.0763
      2 C         -27.0636   -0.1190   28.6079 C.ar    1  UNL1        0.0079
      3 C         -26.9716    0.7139   27.5060 C.ar    1  UNL1        0.0118
      4 C         -28.1053    0.7744   26.6421 C.ar    1  UNL1        0.0640
      5 C         -29.2008    0.1044   27.0527 C.ar    1  UNL1        0.0905
      6 C         -29.2096   -0.6029   28.1853 C.ar    1  UNL1        0.0139
      7 C         -30.3702    0.2264   26.1604 C.2     1  UNL1        0.3886
      8 O         -30.9870    1.1892   26.1601 O.co2   1  UNL1       -0.2405
      9 O         -30.8551   -0.9345   25.7613 O.co2   1  UNL1       -0.2405
     10 C         -25.6964   -0.2125   29.4271 C.ar    1  UNL1        0.0108
     11 C         -25.2410    0.9799   30.1119 C.ar    1  UNL1        0.0576
     12 C         -23.9054    0.9660   30.4720 C.ar    1  UNL1        0.0114
     13 C         -23.0953   -0.1865   30.3671 C.ar    1  UNL1        0.0009
     14 C         -23.5788   -1.2745   29.6816 C.ar    1  UNL1        0.0001
     15 C         -24.8793   -1.3106   29.1385 C.ar    1  UNL1        0.0008
     16 C         -28.0772   -1.6807   30.1362 C.2     1  UNL1        0.3458
     17 O         -28.3677   -1.1777   31.2356 O.3     1  UNL1       -0.4179
     18 O         -27.8030   -2.8909   29.9579 O.2     1  UNL1       -0.2445
     19 CL        -26.2304    2.3312   30.2844 Cl      1  UNL1       -0.0822
     20 CL        -28.0420    1.8362   25.3139 Cl      1  UNL1       -0.0820
     21 C         -29.1260   -1.7719   32.1718 C.ar    1  UNL1        0.1824
     22 C         -29.1976   -1.0820   33.3916 C.ar    1  UNL1        0.0408
     23 C         -29.5239   -1.7639   34.4528 C.ar    1  UNL1        0.0033
     24 C         -30.0096   -3.0736   34.3462 C.ar    1  UNL1        0.0033
     25 C         -29.8405   -3.7699   33.1626 C.ar    1  UNL1        0.0401
     26 C         -29.2763   -3.0950   32.0392 C.ar    1  UNL1        0.1731
     27 O         -29.1703   -3.7924   30.9947 O.3     1  UNL1       -0.4683
     28 C         -29.3079   -4.8832   30.4798 C.3     1  UNL1        0.2526
@<TRIPOS>BOND
     1     5     7    1
     2     7     8   ar
     3     7     9   ar
     4     2    10    1
     5     1    16    1
     6    16    17    1
     7    16    18    2
     8    11    19    1
     9     4    20    1
    10    17    21    1
    11    26    27    1
    12    27    28    1
    13     1     2   ar
    14     2     3   ar
    15     3     4   ar
    16     4     5   ar
    17     5     6   ar
    18     6     1   ar
    19    10    11   ar
    20    11    12   ar
    21    12    13   ar
    22    13    14   ar
    23    14    15   ar
    24    15    10   ar
    25    21    22   ar
    26    22    23   ar
    27    23    24   ar
    28    24    25   ar
    29    25    26   ar
    30    26    21   ar
