@<TRIPOS>MOLECULE
No_4123-gen_results/8p0m/2024-11-26-14-13-15/
 31 34 0 0 0
SMALL
GASTEIGER

@<TRIPOS>ATOM
      1 C         -28.0162   -0.8135   28.8779 C.ar    1  UNL1        0.0413
      2 C         -27.0636   -0.1189   28.6079 C.ar    1  UNL1        0.0745
      3 C         -25.7647   -0.3897   29.0360 C.ar    1  UNL1        0.0042
      4 C         -25.5296   -1.5302   29.9014 C.ar    1  UNL1        0.0031
      5 C         -26.6888   -2.2893   30.1810 C.ar    1  UNL1        0.0375
      6 C         -27.8727   -1.9508   29.7373 C.ar    1  UNL1        0.1452
      7 O         -28.9304   -2.7298   30.1154 O.3     1  UNL1       -0.4535
      8 C         -24.5394    0.4211   28.7421 C.ar    1  UNL1        0.0043
      9 C         -24.0907    1.3926   29.5983 C.ar    1  UNL1        0.0536
     10 C         -22.9647    2.2021   29.2350 C.ar    1  UNL1        0.0045
     11 C         -22.2731    1.9763   28.0008 C.ar    1  UNL1        0.0001
     12 C         -22.7861    1.0400   27.1628 C.ar    1  UNL1        0.0000
     13 C         -23.8730    0.2768   27.4987 C.ar    1  UNL1        0.0001
     14 C         -24.6982    1.6177   30.9252 C.2     1  UNL1        0.2490
     15 O         -24.8306    0.8079   31.7484 O.2     1  UNL1       -0.2699
     16 N         -25.1567    2.9390   31.0994 N.am    1  UNL1       -0.2761
     17 C         -25.7306    3.3606   32.3438 C.3     1  UNL1        0.0937
     18 C         -25.4443    4.5711   32.6600 C.3     1  UNL1        0.0216
     19 C         -25.1782    5.5816   31.7426 C.3     1  UNL1        0.0035
     20 C         -24.9859    5.1292   30.4067 C.3     1  UNL1        0.0216
     21 C         -24.8648    3.8404   30.1231 C.3     1  UNL1        0.0937
     22 C         -30.0426   -2.2326   30.6486 C.ar    1  UNL1        0.1453
     23 C         -30.2071   -1.2859   31.1396 C.ar    1  UNL1        0.0375
     24 C         -31.5028   -0.8203   31.7315 C.ar    1  UNL1        0.0031
     25 C         -32.5462   -1.7161   31.5760 C.ar    1  UNL1        0.0002
     26 C         -31.1383   -3.2651   30.5554 C.ar    1  UNL1        0.0375
     27 C         -32.3580   -2.9196   31.0000 C.ar    1  UNL1        0.0031
     28 C         -27.2160    1.1307   27.7586 C.3     1  UNL1        0.4187
     29 F         -26.3073    1.6983   27.4677 F       1  UNL1       -0.1659
     30 F         -28.2057    1.8457   28.3949 F       1  UNL1       -0.1659
     31 F         -27.9175    0.6573   26.5990 F       1  UNL1       -0.1659
@<TRIPOS>BOND
     1     6     7    1
     2     3     8    1
     3     9    14    1
     4    14    15    2
     5    14    16   am
     6    16    17    1
     7    18    19    1
     8    16    21    1
     9    20    21    1
    10     7    22    1
    11     2    28    1
    12    28    29    1
    13    28    30    1
    14    28    31    1
    15    17    18    1
    16    19    20    1
    17     1     2   ar
    18     2     3   ar
    19     3     4   ar
    20     4     5   ar
    21     5     6   ar
    22     6     1   ar
    23    22    23   ar
    24    23    24   ar
    25    24    25   ar
    26    25    27   ar
    27    27    26   ar
    28    26    22   ar
    29     8     9   ar
    30     9    10   ar
    31    10    11   ar
    32    11    12   ar
    33    12    13   ar
    34    13     8   ar
