@<TRIPOS>MOLECULE
No_4124-gen_results/8p0m/2024-11-26-14-13-15/
 25 27 0 0 0
SMALL
GASTEIGER

@<TRIPOS>ATOM
      1 CL        -28.1493   -0.8198   28.9079 Cl      1  UNL1       -0.0822
      2 C         -27.8339    0.4961   29.0598 C.ar    1  UNL1        0.0577
      3 C         -27.6022    1.0128   30.2974 C.ar    1  UNL1        0.0111
      4 C         -27.1699    2.3964   30.5338 C.ar    1  UNL1       -0.0011
      5 C         -26.9133    3.1827   29.3680 C.ar    1  UNL1        0.0064
      6 C         -27.0551    2.6221   28.1384 C.ar    1  UNL1       -0.0011
      7 C         -27.4622    1.3345   27.9669 C.ar    1  UNL1        0.0111
      8 C         -26.4513    4.5680   29.5808 C.3     1  UNL1        0.1709
      9 N         -25.7876    4.8523   30.5980 N.pl3   1  UNL1       -0.2239
     10 C         -25.6236    5.0791   28.3620 C.2     1  UNL1        0.2349
     11 C         -27.7490    5.4528   29.6426 C.ar    1  UNL1        0.0063
     12 C         -25.2530    4.0179   31.4891 C.2     1  UNL1        0.0812
     13 C         -24.5054    4.4700   32.6773 C.2     1  UNL1        0.0174
     14 C         -25.3273    5.2904   33.5228 C.ar    1  UNL1        0.0013
     15 C         -24.8361    6.5552   33.8580 C.ar    1  UNL1        0.0000
     16 C         -25.6479    7.3930   34.6134 C.ar    1  UNL1        0.0000
     17 C         -26.6623    7.4587   34.5091 C.ar    1  UNL1        0.0000
     18 C         -27.4702    6.2600   34.0879 C.ar    1  UNL1        0.0000
     19 C         -26.7195    5.1962   33.5021 C.ar    1  UNL1        0.0000
     20 C         -28.3077    5.8341   30.5087 C.ar    1  UNL1       -0.0019
     21 C         -29.4392    6.7170   30.6347 C.ar    1  UNL1       -0.0002
     22 C         -29.9461    7.0908   29.4403 C.ar    1  UNL1       -0.0000
     23 C         -29.3755    6.6776   28.2598 C.ar    1  UNL1       -0.0002
     24 C         -28.2123    5.8882   28.2675 C.ar    1  UNL1       -0.0019
     25 O         -25.6957    5.5304   27.3799 O.2     1  UNL1       -0.2858
@<TRIPOS>BOND
     1     1     2    1
     2     5     8    1
     3     8     9    1
     4     8    10    1
     5     8    11    1
     6     9    12    1
     7    12    13    2
     8    13    14    1
     9    10    25    2
    10     2     3   ar
    11     3     4   ar
    12     4     5   ar
    13     5     6   ar
    14     6     7   ar
    15     7     2   ar
    16    14    15   ar
    17    15    16   ar
    18    16    17   ar
    19    17    18   ar
    20    18    19   ar
    21    19    14   ar
    22    11    20   ar
    23    20    21   ar
    24    21    22   ar
    25    22    23   ar
    26    23    24   ar
    27    24    11   ar
