@<TRIPOS>MOLECULE
No_4125-gen_results/8p0m/2024-11-26-14-13-15/
 25 28 0 0 0
SMALL
GASTEIGER

@<TRIPOS>ATOM
      1 C         -28.0162   -0.8135   28.8779 C.ar    1  UNL1       -0.0039
      2 C         -28.4690   -0.7850   29.8287 C.ar    1  UNL1       -0.0003
      3 C         -28.1960    0.3478   28.0550 C.ar    1  UNL1       -0.0178
      4 C         -29.0191    1.3501   28.3782 C.ar    1  UNL1       -0.0039
      5 C         -29.4107    0.1803   30.3782 C.ar    1  UNL1       -0.0000
      6 C         -29.6059    1.2495   29.6193 C.ar    1  UNL1       -0.0003
      7 C         -27.4597    0.3802   26.7091 C.3     1  UNL1        0.0524
      8 C         -26.4659    1.4084   26.5648 C.ar    1  UNL1       -0.0187
      9 C         -25.2449    1.3279   27.3559 C.ar    1  UNL1        0.0103
     10 C         -24.3040    2.2993   27.2314 C.ar    1  UNL1       -0.0187
     11 C         -24.5226    3.3506   26.2889 C.ar    1  UNL1       -0.0042
     12 C         -25.7008    3.5248   25.6549 C.ar    1  UNL1       -0.0006
     13 C         -26.6888    2.5042   25.7972 C.ar    1  UNL1       -0.0042
     14 C         -22.9922    2.2175   27.9290 C.3     1  UNL1        0.0517
     15 C         -22.4152    0.8392   27.9328 C.2     1  UNL1       -0.0259
     16 C         -23.1223   -0.1483   28.5795 C.2     1  UNL1       -0.0263
     17 C         -24.3666   -0.6604   28.2067 C.3     1  UNL1        0.0739
     18 C         -24.9612    0.1647   27.9733 C.3     1  UNL1        0.1919
     19 O         -25.9219   -0.1198   28.8720 O.3     1  UNL1       -0.4744
     20 C         -25.6835    0.3234   30.1752 C.ar    1  UNL1        0.1389
     21 C         -25.0918   -0.5130   31.1184 C.ar    1  UNL1        0.0369
     22 C         -24.1374    0.0477   31.8286 C.ar    1  UNL1        0.0031
     23 C         -26.2052    1.5982   30.6003 C.ar    1  UNL1        0.0369
     24 C         -25.4470    2.2692   31.6431 C.ar    1  UNL1        0.0031
     25 C         -24.5410    1.4119   32.5111 C.ar    1  UNL1        0.0002
@<TRIPOS>BOND
     1     3     7    1
     2     7     8    1
     3    10    14    1
     4    14    15    1
     5    15    16    2
     6    16    17    1
     7     9    18    1
     8    17    18    1
     9    18    19    1
    10    19    20    1
    11    20    21   ar
    12    21    22   ar
    13    22    25   ar
    14    25    24   ar
    15    24    23   ar
    16    23    20   ar
    17     8     9   ar
    18     9    10   ar
    19    10    11   ar
    20    11    12   ar
    21    12    13   ar
    22    13     8   ar
    23     1     2   ar
    24     2     5   ar
    25     5     6   ar
    26     6     4   ar
    27     4     3   ar
    28     3     1   ar
