@<TRIPOS>MOLECULE
No_4126-gen_results/8p0m/2024-11-26-14-13-15/
 26 27 0 0 0
SMALL
GASTEIGER

@<TRIPOS>ATOM
      1 C         -28.0162   -0.8135   28.8779 C.ar    1  UNL1        0.0776
      2 C         -27.0636   -0.1189   28.6079 C.ar    1  UNL1        0.0240
      3 C         -26.9716    0.7139   27.5060 C.ar    1  UNL1        0.0644
      4 C         -28.1053    0.7744   26.6421 C.ar    1  UNL1        0.0220
      5 C         -29.2041    0.1179   27.0477 C.ar    1  UNL1        0.0552
      6 C         -29.2127   -0.6088   28.1281 C.ar    1  UNL1        0.0111
      7 N         -25.6860    1.2756   27.3185 N.ar    1  UNL1       -0.3034
      8 C         -25.2817    1.9576   26.4664 C.ar    1  UNL1        0.0804
      9 C         -23.8687    2.4822   26.4597 C.ar    1  UNL1        0.0271
     10 C         -23.1594    1.9376   27.5424 C.ar    1  UNL1        0.0987
     11 C         -24.5104    0.9678   28.2558 C.ar    1  UNL1        0.0867
     12 C         -21.9826    1.8552   28.0428 C.2     1  UNL1        0.3893
     13 O         -21.7638    1.5682   29.2108 O.co2   1  UNL1       -0.2405
     14 O         -21.0159    2.3261   27.3155 O.co2   1  UNL1       -0.2405
     15 C         -30.4912    0.1748   26.3437 C.2     1  UNL1        0.2492
     16 N         -30.5411    0.2104   25.0937 N.am    1  UNL1       -0.2726
     17 O         -31.5924    0.1587   26.9158 O.2     1  UNL1       -0.2699
     18 C         -28.1096   -1.7026   30.1030 C.2     1  UNL1        0.3454
     19 O         -27.1798   -2.5215   30.3125 O.3     1  UNL1       -0.4258
     20 O         -29.1446   -1.7621   30.7949 O.2     1  UNL1       -0.2445
     21 C         -29.3246    0.2561   24.2047 C.3     1  UNL1        0.1152
     22 C         -31.7225    0.2667   24.2610 C.3     1  UNL1        0.1152
     23 C         -27.3250   -3.8619   30.1308 C.2     1  UNL1        0.1224
     24 C         -28.6406   -4.4252   30.2179 C.2     1  UNL1        0.0072
     25 C         -26.1968   -4.6424   29.7828 C.3     1  UNL1        0.0722
     26 C         -29.6504   -3.8372   30.9111 C.3     1  UNL1        0.0336
@<TRIPOS>BOND
     1     3     7    1
     2     7     8   ar
     3     8     9   ar
     4     9    10   ar
     5     7    11   ar
     6    10    11   ar
     7    10    12    1
     8    12    13   ar
     9    12    14   ar
    10     5    15    1
    11    15    16   am
    12    15    17    2
    13     1    18    1
    14    18    19    1
    15    18    20    2
    16    16    21    1
    17    16    22    1
    18    19    23    1
    19    23    24    2
    20    23    25    1
    21    24    26    1
    22     1     2   ar
    23     2     3   ar
    24     3     4   ar
    25     4     5   ar
    26     5     6   ar
    27     6     1   ar
