@<TRIPOS>MOLECULE
No_4127-gen_results/8p0m/2024-11-26-14-13-15/
 11 11 0 0 0
SMALL
GASTEIGER

@<TRIPOS>ATOM
      1 O         -28.1229   -1.3353   28.4874 O.2     1  UNL1       -0.2961
      2 C         -27.0637   -0.8242   28.8687 C.2     1  UNL1        0.1506
      3 C         -25.9464   -1.0396   28.8492 C.3     1  UNL1        0.0645
      4 C         -24.7602   -0.1562   29.1644 C.3     1  UNL1        0.0077
      5 C         -25.0917    1.0791   29.6490 C.3     1  UNL1        0.0009
      6 C         -26.4273    1.4163   29.7020 C.3     1  UNL1        0.0078
      7 C         -27.3961    0.6347   29.4096 C.3     1  UNL1        0.0645
      8 C         -23.3605   -0.5493   29.1077 C.3     1  UNL1        0.0068
      9 C         -22.3695    0.3874   28.8646 C.3     1  UNL1        0.0490
     10 C         -21.0877   -0.0573   28.5573 C.2     1  UNL1        0.0957
     11 N         -20.2002    0.9146   28.3260 N.2     1  UNL1       -0.1514
@<TRIPOS>BOND
     1     1     2    2
     2     2     3    1
     3     3     4    1
     4     5     6    1
     5     2     7    1
     6     6     7    1
     7     4     8    1
     8     8     9    1
     9     9    10    1
    10    10    11    2
    11     4     5    1
