@<TRIPOS>MOLECULE
No_4130-gen_results/8p0m/2024-11-26-14-13-15/
 10 11 0 0 0
SMALL
GASTEIGER

@<TRIPOS>ATOM
      1 C         -28.0162   -0.8135   28.8779 C.ar    1  UNL1        0.0192
      2 C         -28.4690   -0.7850   29.8287 C.ar    1  UNL1        0.0988
      3 C         -28.1816    0.4277   28.1134 C.ar    1  UNL1        0.0015
      4 C         -27.4498    0.6435   26.8500 C.ar    1  UNL1        0.0000
      5 C         -26.1815    0.0357   26.7145 C.ar    1  UNL1        0.0000
      6 C         -25.7530   -0.9101   27.6815 C.ar    1  UNL1        0.0001
      7 C         -26.5502   -1.2250   28.7228 C.ar    1  UNL1        0.0030
      8 N         -28.3925   -2.0077   30.6416 N.ar    1  UNL1       -0.2423
      9 C         -27.2105   -2.7078   30.5631 C.ar    1  UNL1        0.0989
     10 C         -26.1997   -2.3940   29.5706 C.ar    1  UNL1        0.0207
@<TRIPOS>BOND
     1     1     2   ar
     2     2     8   ar
     3     8     9   ar
     4     9    10   ar
     5    10     7   ar
     6     1     3   ar
     7     3     4   ar
     8     4     5   ar
     9     5     6   ar
    10     6     7   ar
    11     7     1   ar
