@<TRIPOS>MOLECULE
No_4131-gen_results/8p0m/2024-11-26-14-13-15/
 22 25 0 0 0
SMALL
GASTEIGER

@<TRIPOS>ATOM
      1 C         -28.0162   -0.8135   28.8779 C.ar    1  UNL1        0.0414
      2 C         -28.4690   -0.7850   29.8287 C.ar    1  UNL1        0.0566
      3 C         -26.5455   -0.8762   28.8500 C.ar    1  UNL1        0.1391
      4 C         -25.8041   -1.0324   30.0571 C.ar    1  UNL1        0.0338
      5 C         -26.5373   -1.0386   31.2171 C.ar    1  UNL1        0.0032
      6 C         -27.8843   -0.9532   31.1862 C.ar    1  UNL1        0.0047
      7 C         -24.3655   -1.1134   30.0483 C.ar    1  UNL1        0.0024
      8 C         -23.7447   -1.3689   30.8125 C.ar    1  UNL1       -0.0001
      9 C         -22.2072   -1.2504   30.8577 C.ar    1  UNL1       -0.0000
     10 C         -21.6856   -0.8191   29.6527 C.ar    1  UNL1       -0.0002
     11 C         -23.7345   -0.6112   28.7797 C.ar    1  UNL1        0.0213
     12 C         -22.4343   -0.4609   28.6549 C.ar    1  UNL1       -0.0007
     13 C         -30.0596   -0.6697   29.9158 C.2     1  UNL1        0.2491
     14 O         -30.7425   -1.4767   30.3852 O.2     1  UNL1       -0.2699
     15 N         -30.5493    0.4178   29.2876 N.am    1  UNL1       -0.2761
     16 C         -29.8308    1.4891   28.7322 C.3     1  UNL1        0.0937
     17 C         -30.0249    2.1419   27.8072 C.3     1  UNL1        0.0216
     18 C         -31.2299    2.1728   27.1756 C.3     1  UNL1        0.0035
     19 C         -32.1528    1.2218   27.7017 C.3     1  UNL1        0.0216
     20 C         -31.7764    0.3296   28.5965 C.3     1  UNL1        0.0937
     21 O         -25.9409   -0.7637   27.6841 O.3     1  UNL1       -0.4706
     22 C         -24.5760   -0.4965   27.6404 C.3     1  UNL1        0.2320
@<TRIPOS>BOND
     1     4     7    1
     2     2    13    1
     3    13    14    2
     4    13    15   am
     5    15    16    1
     6    17    18    1
     7    15    20    1
     8    19    20    1
     9     3    21    1
    10    11    22    1
    11    21    22    1
    12    16    17    1
    13    18    19    1
    14     7     8   ar
    15     8     9   ar
    16     9    10   ar
    17    10    12   ar
    18    12    11   ar
    19    11     7   ar
    20     1     2   ar
    21     2     6   ar
    22     6     5   ar
    23     5     4   ar
    24     4     3   ar
    25     3     1   ar
