@<TRIPOS>MOLECULE
No_4132-gen_results/8p0m/2024-11-26-14-13-15/
 24 27 0 0 0
SMALL
GASTEIGER

@<TRIPOS>ATOM
      1 C         -28.0162   -0.8135   28.8779 C.3     1  UNL1        0.0976
      2 C         -27.0636   -0.1189   28.6079 C.3     1  UNL1        0.0331
      3 C         -25.7647   -0.3897   29.0360 C.3     1  UNL1        0.0262
      4 C         -24.5517    0.4058   28.7646 C.ar    1  UNL1       -0.0196
      5 C         -24.6957    1.4480   27.7988 C.ar    1  UNL1        0.0308
      6 C         -25.9755    1.7250   27.3077 C.2     1  UNL1        0.1742
      7 C         -27.0718    1.0134   27.6535 C.3     1  UNL1        0.0854
      8 N         -27.9070   -1.7286   29.9444 N.am    1  UNL1       -0.2431
      9 C         -23.3771    1.9179   27.5069 C.ar    1  UNL1        0.0025
     10 C         -22.1925    1.5219   28.1298 C.ar    1  UNL1        0.0001
     11 C         -22.1942    0.5308   29.0500 C.ar    1  UNL1       -0.0003
     12 C         -23.3611   -0.1204   29.3708 C.ar    1  UNL1       -0.0042
     13 C         -25.5046   -1.4083   30.0093 C.3     1  UNL1        0.0260
     14 C         -29.0039   -2.4876   30.5200 C.2     1  UNL1        0.4472
     15 C         -26.6803   -2.0969   30.5624 C.3     1  UNL1        0.0972
     16 C         -28.3732    1.3658   27.0596 C.3     1  UNL1        0.1109
     17 O         -28.9778   -3.6641   30.5666 O.co2   1  UNL1       -0.2223
     18 O         -29.9020   -1.8103   31.1446 O.co2   1  UNL1       -0.2223
     19 CL        -29.5404    1.8380   27.9862 Cl      1  UNL1       -0.1068
     20 C         -28.8521    0.2845   26.0847 C.2     1  UNL1       -0.0072
     21 C         -28.5694    0.5379   24.7453 C.2     1  UNL1       -0.0034
     22 O         -26.1156    2.9600   26.7957 O.2     1  UNL1       -0.2913
     23 C         -28.1474    2.6016   26.1330 C.2     1  UNL1       -0.0072
     24 C         -27.9708    2.0688   24.7608 C.2     1  UNL1       -0.0034
@<TRIPOS>BOND
     1     2     3    1
     2     3     4    1
     3     5     6    1
     4     2     7    1
     5     6     7    1
     6     1     8    1
     7     3    13    1
     8     8    14   am
     9     8    15    1
    10    13    15    1
    11     7    16    1
    12    14    17   ar
    13    14    18   ar
    14    16    19    1
    15    16    20    1
    16    20    21    2
    17     6    22    2
    18    16    23    1
    19    21    24    1
    20    23    24    2
    21     1     2    1
    22     4     5   ar
    23     5     9   ar
    24     9    10   ar
    25    10    11   ar
    26    11    12   ar
    27    12     4   ar
