@<TRIPOS>MOLECULE
No_4133-gen_results/8p0m/2024-11-26-14-13-15/
 16 16 0 0 0
SMALL
GASTEIGER

@<TRIPOS>ATOM
      1 C         -28.0162   -0.8135   28.8779 C.ar    1  UNL1       -0.0003
      2 C         -27.0636   -0.1189   28.6079 C.ar    1  UNL1       -0.0040
      3 C         -26.8756    1.1325   28.9134 C.ar    1  UNL1       -0.0140
      4 C         -25.6883    1.9515   28.5672 C.3     1  UNL1        0.1214
      5 C         -25.5093    3.3042   28.8859 C.3     1  UNL1        0.4014
      6 C         -29.0972   -0.2347   29.6994 C.ar    1  UNL1       -0.0000
      7 C         -29.0303    1.0730   30.0324 C.ar    1  UNL1       -0.0003
      8 C         -27.8549    1.8594   29.6796 C.ar    1  UNL1       -0.0040
      9 C         -24.6654    1.3370   27.7414 C.3     1  UNL1        0.0343
     10 C         -24.1507    0.2583   27.8326 C.3     1  UNL1        0.0050
     11 C         -24.6498    1.9179   26.4194 C.2     1  UNL1       -0.0259
     12 F         -25.1820    3.9815   27.8607 F       1  UNL1       -0.1697
     13 F         -26.5286    3.8131   29.5293 F       1  UNL1       -0.1697
     14 F         -24.4911    3.3747   29.8505 F       1  UNL1       -0.1697
     15 C         -23.6904    1.3196   25.4973 C.2     1  UNL1       -0.0049
     16 C         -24.0819   -0.3781   29.2516 C.3     1  UNL1        0.0004
@<TRIPOS>BOND
     1     3     4    1
     2     4     5    1
     3     4     9    1
     4     9    10    1
     5     9    11    1
     6     5    12    1
     7     5    13    1
     8     5    14    1
     9    11    15    2
    10    10    16    1
    11     1     2   ar
    12     2     3   ar
    13     3     8   ar
    14     8     7   ar
    15     7     6   ar
    16     6     1   ar
