@<TRIPOS>MOLECULE
No_4134-gen_results/8p0m/2024-11-26-14-13-15/
 23 25 0 0 0
SMALL
GASTEIGER

@<TRIPOS>ATOM
      1 C         -28.0162   -0.8135   28.8779 C.ar    1  UNL1        0.0175
      2 C         -27.0636   -0.1189   28.6079 C.ar    1  UNL1        0.0631
      3 C         -26.9716    0.7139   27.5060 C.ar    1  UNL1        0.0550
      4 C         -28.1053    0.7744   26.6421 C.ar    1  UNL1        0.0112
      5 C         -29.2041    0.1179   27.0477 C.ar    1  UNL1        0.0800
      6 C         -29.2127   -0.6088   28.1281 C.ar    1  UNL1        0.0081
      7 C         -25.7106    1.4519   27.1380 C.ar    1  UNL1        0.1983
      8 C         -24.6052    0.9253   27.6902 C.ar    1  UNL1        0.0548
      9 C         -23.3376    1.6509   27.5495 C.ar    1  UNL1        0.0046
     10 C         -22.1760    1.2278   28.2868 C.ar    1  UNL1        0.0002
     11 C         -22.2853    0.0475   28.9235 C.ar    1  UNL1        0.0015
     12 C         -23.4057   -0.7271   29.0250 C.ar    1  UNL1        0.0173
     13 C         -24.5572   -0.2605   28.4178 C.ar    1  UNL1        0.0630
     14 N         -25.7696   -0.6074   29.0802 N.ar    1  UNL1       -0.3233
     15 C         -25.7432   -1.5659   30.1322 C.3     1  UNL1        0.1521
     16 O         -25.7604    2.3785   26.2955 O.2     1  UNL1       -0.2865
     17 C         -30.4317    0.3214   26.2612 C.2     1  UNL1        0.3878
     18 O         -31.1301   -0.6227   25.9527 O.co2   1  UNL1       -0.2406
     19 O         -30.7505    1.4848   25.7726 O.co2   1  UNL1       -0.2406
     20 C         -26.0151   -1.0883   31.3964 C.3     1  UNL1        0.0305
     21 C         -25.6889   -2.9177   29.7633 C.3     1  UNL1        0.3387
     22 F         -26.6531   -3.6979   30.2091 F       1  UNL1       -0.1963
     23 F         -24.5446   -3.4778   30.3723 F       1  UNL1       -0.1963
@<TRIPOS>BOND
     1     3     7   ar
     2     7     8   ar
     3     2    14   ar
     4    13    14   ar
     5    14    15    1
     6     7    16    2
     7     5    17    1
     8    17    18   ar
     9    17    19   ar
    10    15    20    1
    11    15    21    1
    12    21    22    1
    13    21    23    1
    14     1     2   ar
    15     2     3   ar
    16     3     4   ar
    17     4     5   ar
    18     5     6   ar
    19     6     1   ar
    20     8     9   ar
    21     9    10   ar
    22    10    11   ar
    23    11    12   ar
    24    12    13   ar
    25    13     8   ar
