@<TRIPOS>MOLECULE
No_4135-gen_results/8p0m/2024-11-26-14-13-15/
 20 20 0 0 0
SMALL
GASTEIGER

@<TRIPOS>ATOM
      1 C         -28.0162   -0.8135   28.8779 C.3     1  UNL1        0.1153
      2 C         -27.0636   -0.1189   28.6079 C.ar    1  UNL1        0.0016
      3 C         -25.7923   -0.4302   29.0761 C.ar    1  UNL1       -0.0025
      4 C         -24.5456    0.3494   28.8225 C.ar    1  UNL1        0.0063
      5 C         -24.6586    1.4196   27.8878 C.ar    1  UNL1        0.0800
      6 C         -25.9471    1.6811   27.3792 C.ar    1  UNL1        0.0129
      7 C         -27.0439    0.9739   27.6871 C.ar    1  UNL1        0.0774
      8 N         -28.6643   -0.5274   30.1017 N.3     1  UNL1       -0.2093
      9 C         -29.6153   -1.2473   30.6541 C.3     1  UNL1        0.1363
     10 C         -30.1339   -2.2836   30.0191 C.3     1  UNL1        0.2243
     11 O         -30.8384   -3.1130   30.7948 O.2     1  UNL1       -0.4712
     12 C         -23.6706    2.3824   27.7872 C.2     1  UNL1        0.3878
     13 O         -22.7238    2.3487   28.6052 O.co2   1  UNL1       -0.2406
     14 O         -23.3784    2.8617   26.5771 O.co2   1  UNL1       -0.2406
     15 C         -28.3401    1.2395   27.0397 C.2     1  UNL1        0.3875
     16 O         -28.6559    0.9373   25.9561 O.co2   1  UNL1       -0.2406
     17 O         -29.1999    1.9577   27.8304 O.co2   1  UNL1       -0.2406
     18 C         -31.1864   -4.2401   30.3518 C.2     1  UNL1        0.1677
     19 C         -32.3037   -4.7621   30.6906 C.2     1  UNL1        0.0142
     20 C         -33.1715   -4.3532   31.2172 C.3     1  UNL1        0.0341
@<TRIPOS>BOND
     1     1     2    1
     2     1     8    1
     3     8     9    1
     4     9    10    1
     5    10    11    1
     6     5    12    1
     7    12    13   ar
     8    12    14   ar
     9     7    15    1
    10    15    16   ar
    11    15    17   ar
    12    11    18    1
    13    18    19    2
    14    19    20    1
    15     2     3   ar
    16     3     4   ar
    17     4     5   ar
    18     5     6   ar
    19     6     7   ar
    20     7     2   ar
