@<TRIPOS>MOLECULE
No_4136-gen_results/8p0m/2024-11-26-14-13-15/
 22 24 0 0 0
SMALL
GASTEIGER

@<TRIPOS>ATOM
      1 C         -28.0162   -0.8135   28.8779 C.ar    1  UNL1        0.0006
      2 C         -28.4690   -0.7850   29.8287 C.ar    1  UNL1        0.0551
      3 C         -26.5042   -0.7777   28.8766 C.ar    1  UNL1       -0.0176
      4 C         -25.8103   -0.8531   30.1028 C.ar    1  UNL1       -0.0039
      5 C         -27.9906   -0.8916   31.2257 C.ar    1  UNL1        0.0046
      6 C         -26.6042   -0.8676   31.2652 C.ar    1  UNL1       -0.0002
      7 C         -30.0739   -0.8360   29.8615 C.2     1  UNL1        0.2690
      8 O         -30.6891   -1.6554   30.2229 O.2     1  UNL1       -0.2680
      9 N         -30.6022    0.4333   29.5984 N.am    1  UNL1       -0.1754
     10 C         -29.9094    1.5925   29.2464 C.ar    1  UNL1        0.0737
     11 C         -29.9877    2.2437   28.2672 C.ar    1  UNL1        0.0166
     12 C         -29.2304    3.4780   27.9526 C.ar    1  UNL1        0.0013
     13 C         -28.3436    3.6549   28.4977 C.ar    1  UNL1        0.0001
     14 C         -28.6792    1.8987   30.0052 C.ar    1  UNL1        0.0166
     15 C         -27.9520    3.0465   29.7374 C.ar    1  UNL1        0.0013
     16 C         -25.6798   -0.6625   27.6608 C.3     1  UNL1        0.0526
     17 C         -25.3269    0.6924   27.3206 C.ar    1  UNL1       -0.0178
     18 C         -25.4533    1.1026   26.0282 C.ar    1  UNL1       -0.0039
     19 C         -25.0844    2.4530   25.7600 C.ar    1  UNL1       -0.0003
     20 C         -24.3290    3.2479   26.6685 C.ar    1  UNL1       -0.0000
     21 C         -24.6433    1.5250   28.2575 C.ar    1  UNL1       -0.0039
     22 C         -24.2196    2.8116   27.9357 C.ar    1  UNL1       -0.0003
@<TRIPOS>BOND
     1     2     7    1
     2     7     8    2
     3     7     9   am
     4     9    10    1
     5     3    16    1
     6    16    17    1
     7    10    11   ar
     8    11    12   ar
     9    12    13   ar
    10    13    15   ar
    11    15    14   ar
    12    14    10   ar
    13    17    18   ar
    14    18    19   ar
    15    19    20   ar
    16    20    22   ar
    17    22    21   ar
    18    21    17   ar
    19     1     2   ar
    20     2     5   ar
    21     5     6   ar
    22     6     4   ar
    23     4     3   ar
    24     3     1   ar
