@<TRIPOS>MOLECULE
No_4138-gen_results/8p0m/2024-11-26-14-13-15/
 21 23 0 0 0
SMALL
GASTEIGER

@<TRIPOS>ATOM
      1 C         -28.0162   -0.8135   28.8779 C.3     1  UNL1        0.0680
      2 C         -28.4690   -0.7850   29.8287 C.3     1  UNL1        0.0312
      3 C         -28.1960    0.3478   28.0550 C.2     1  UNL1        0.1504
      4 C         -27.4421    0.5100   26.7946 C.3     1  UNL1        0.0579
      5 C         -26.1689   -0.0794   26.6787 C.3     1  UNL1        0.0078
      6 C         -25.7312   -0.9607   27.6875 C.3     1  UNL1        0.0100
      7 C         -26.5043   -1.2222   28.7582 C.3     1  UNL1        0.0851
      8 C         -28.3432   -2.0040   30.7789 C.3     1  UNL1        0.1156
      9 N         -27.1300   -2.6401   30.6981 N.am    1  UNL1       -0.2054
     10 C         -26.2532   -2.4346   29.6051 C.2     1  UNL1        0.2413
     11 O         -25.1117   -2.9477   29.6234 O.2     1  UNL1       -0.2733
     12 O         -29.3840    0.9316   27.9763 O.2     1  UNL1       -0.2961
     13 C         -27.7831    1.4786   25.7735 C.3     1  UNL1        0.0113
     14 C         -28.0478    1.0035   24.4869 C.3     1  UNL1        0.0268
     15 C         -27.9513    2.8320   26.1050 C.3     1  UNL1        0.0008
     16 C         -29.2480    0.8408   24.1554 C.ar    1  UNL1       -0.0222
     17 C         -30.3166    0.6305   24.9308 C.ar    1  UNL1       -0.0043
     18 C         -31.3068    0.4074   24.7801 C.ar    1  UNL1       -0.0003
     19 C         -31.7295    0.2348   23.3279 C.ar    1  UNL1       -0.0000
     20 C         -30.8329    0.5013   22.3996 C.ar    1  UNL1       -0.0003
     21 C         -29.5592    0.7155   22.7045 C.ar    1  UNL1       -0.0043
@<TRIPOS>BOND
     1     1     3    1
     2     3     4    1
     3     4     5    1
     4     5     6    1
     5     1     7    1
     6     2     8    1
     7     7    10    1
     8     9    10   am
     9    10    11    2
    10     3    12    2
    11     4    13    1
    12    13    14    1
    13    13    15    1
    14    14    16    1
    15     1     2    1
    16     8     9    1
    17     7     6    1
    18    16    17   ar
    19    17    18   ar
    20    18    19   ar
    21    19    20   ar
    22    20    21   ar
    23    21    16   ar
