@<TRIPOS>MOLECULE
No_4139-gen_results/8p0m/2024-11-26-14-13-15/
 31 34 0 0 0
SMALL
GASTEIGER

@<TRIPOS>ATOM
      1 O         -28.1229   -1.3353   28.4874 O.2     1  UNL1       -0.2706
      2 C         -28.5208   -0.4363   29.0779 C.2     1  UNL1        0.2697
      3 C         -29.6977    0.0507   28.9764 C.3     1  UNL1        0.2450
      4 N         -27.4735    0.3426   29.7907 N.am    1  UNL1       -0.2557
      5 C         -27.8125    1.4527   30.5890 C.3     1  UNL1        0.0984
      6 C         -30.1204    1.1705   29.8508 C.3     1  UNL1        0.0551
      7 C         -29.1117    1.8687   30.5727 C.3     1  UNL1        0.0261
      8 C         -26.1316   -0.1665   29.8557 C.ar    1  UNL1        0.0539
      9 C         -25.1908    0.8744   29.5508 C.ar    1  UNL1        0.0134
     10 C         -23.8965    0.4938   29.2683 C.ar    1  UNL1        0.0012
     11 C         -22.8590    1.4297   28.8799 C.ar    1  UNL1       -0.0002
     12 C         -23.3516    2.6021   28.2086 C.ar    1  UNL1       -0.0026
     13 C         -24.6582    2.9657   28.3941 C.ar    1  UNL1       -0.0006
     14 C         -25.6104    2.1283   28.9864 C.ar    1  UNL1       -0.0013
     15 C         -25.0272    4.3231   27.8769 C.3     1  UNL1        0.1385
     16 N         -26.0984    4.8692   27.6580 N.pl3   1  UNL1       -0.2328
     17 C         -26.9344    5.1962   28.6045 C.ar    1  UNL1        0.0657
     18 C         -26.7383    5.4583   29.7728 C.ar    1  UNL1        0.0161
     19 C         -27.7313    5.7948   30.8044 C.ar    1  UNL1        0.0013
     20 C         -29.0173    5.8873   30.2756 C.ar    1  UNL1        0.0001
     21 C         -28.3622    5.3727   28.2122 C.ar    1  UNL1        0.0161
     22 C         -29.3247    5.6914   29.0390 C.ar    1  UNL1        0.0013
     23 C         -23.3513   -0.7860   29.7959 C.ar    1  UNL1        0.0001
     24 C         -24.0232   -1.9280   29.6799 C.ar    1  UNL1        0.0013
     25 C         -25.7375   -1.5233   29.9755 C.ar    1  UNL1        0.0149
     26 O         -30.6223   -0.4712   28.2791 O.3     1  UNL1       -0.4365
     27 C         -31.1047    0.1161   27.1511 C.2     1  UNL1        0.3992
     28 C         -32.0680   -0.6681   26.5744 C.2     1  UNL1        0.3602
     29 O         -32.1049   -1.8025   26.7009 O.2     1  UNL1       -0.2595
     30 N         -32.6589   -0.1615   25.3348 N.am    1  UNL1       -0.0779
     31 O         -30.7881    1.2781   26.8329 O.2     1  UNL1       -0.2396
@<TRIPOS>BOND
     1     1     2    2
     2     2     3    1
     3     2     4   am
     4     4     5    1
     5     6     7    1
     6     4     8    1
     7    13    15    1
     8    15    16    1
     9    16    17    1
    10     3    26    1
    11    26    27    1
    12    27    28    1
    13    28    29    2
    14    28    30   am
    15    27    31    2
    16     3     6    1
    17     7     5    1
    18     8     9   ar
    19    10    23   ar
    20    23    24   ar
    21    24    25   ar
    22    25     8   ar
    23     9    10   ar
    24    10    11   ar
    25    11    12   ar
    26    12    13   ar
    27    13    14   ar
    28    14     9   ar
    29    17    18   ar
    30    18    19   ar
    31    19    20   ar
    32    20    22   ar
    33    22    21   ar
    34    21    17   ar
