@<TRIPOS>MOLECULE
No_414-gen_results/8p0m/2024-11-26-14-13-15/
 21 22 0 0 0
SMALL
GASTEIGER

@<TRIPOS>ATOM
      1 C         -28.0162   -0.8135   28.8779 C.ar    1  UNL1        0.0123
      2 C         -28.4690   -0.7850   29.8287 C.ar    1  UNL1        0.0123
      3 C         -28.1960    0.3478   28.0550 C.ar    1  UNL1        0.0577
      4 C         -29.0191    1.3501   28.3782 C.ar    1  UNL1        0.0122
      5 C         -29.4107    0.1803   30.3782 C.ar    1  UNL1        0.0577
      6 C         -29.6059    1.2495   29.6193 C.ar    1  UNL1        0.0114
      7 CL        -27.3362    0.3775   26.5214 Cl      1  UNL1       -0.0822
      8 CL        -30.2445    0.0147   31.9079 Cl      1  UNL1       -0.0822
      9 C         -30.5679    2.3462   29.8424 C.ar    1  UNL1        0.0012
     10 C         -31.6108    2.4936   29.9318 C.ar    1  UNL1        0.0097
     11 C         -32.3695    3.7089   30.2338 C.ar    1  UNL1        0.1142
     12 C         -29.7096    3.6296   30.1269 C.ar    1  UNL1        0.0032
     13 C         -30.2982    4.8346   30.3728 C.ar    1  UNL1        0.0377
     14 C         -31.6545    4.8672   30.4499 C.ar    1  UNL1        0.1517
     15 C         -33.8338    3.6859   30.2870 C.2     1  UNL1        0.3907
     16 O         -34.4138    3.8440   31.2705 O.co2   1  UNL1       -0.2404
     17 O         -34.3744    3.3519   29.1392 O.co2   1  UNL1       -0.2404
     18 O         -32.2756    5.9815   30.7585 O.3     1  UNL1       -0.4505
     19 C         -32.0206    6.6117   31.9461 C.2     1  UNL1        0.1750
     20 C         -31.0817    6.9375   32.3312 C.2     1  UNL1        0.0148
     21 C         -30.8345    7.6672   33.5707 C.3     1  UNL1        0.0341
@<TRIPOS>BOND
     1     3     7    1
     2     5     8    1
     3     6     9    1
     4    11    15    1
     5    15    16   ar
     6    15    17   ar
     7    14    18    1
     8    18    19    1
     9    19    20    2
    10    20    21    1
    11     9    10   ar
    12    10    11   ar
    13    11    14   ar
    14    14    13   ar
    15    13    12   ar
    16    12     9   ar
    17     1     2   ar
    18     2     5   ar
    19     5     6   ar
    20     6     4   ar
    21     4     3   ar
    22     3     1   ar
