@<TRIPOS>MOLECULE
No_4140-gen_results/8p0m/2024-11-26-14-13-15/
 20 22 0 0 0
SMALL
GASTEIGER

@<TRIPOS>ATOM
      1 C         -28.0162   -0.8135   28.8779 C.ar    1  UNL1        0.0022
      2 C         -28.4690   -0.7850   29.8287 C.ar    1  UNL1        0.0001
      3 C         -27.1356    0.2359   28.5352 C.ar    1  UNL1        0.0276
      4 C         -26.3351    0.2900   27.2835 C.ar    1  UNL1        0.0052
      5 C         -28.3692    0.1957   30.9236 C.ar    1  UNL1        0.0023
      6 C         -27.5158    1.2655   30.6540 C.ar    1  UNL1        0.0296
      7 C         -26.8411    1.2942   29.4761 C.ar    1  UNL1        0.1401
      8 C         -25.3612    0.7751   26.9673 C.ar    1  UNL1        0.0003
      9 C         -24.6558    0.7452   25.7260 C.ar    1  UNL1        0.0031
     10 C         -25.3749    0.0010   24.6998 C.ar    1  UNL1        0.0375
     11 C         -26.5372   -0.5015   25.0059 C.ar    1  UNL1        0.1453
     12 C         -27.0692   -0.4261   26.2029 C.ar    1  UNL1        0.0376
     13 F         -26.0673    2.2500   29.2150 F       1  UNL1       -0.2042
     14 O         -27.3367   -1.1225   24.0463 O.3     1  UNL1       -0.4535
     15 C         -28.6520   -1.3523   24.4530 C.ar    1  UNL1        0.1453
     16 C         -29.6070   -1.3776   23.3651 C.ar    1  UNL1        0.0375
     17 C         -30.9636   -1.5209   23.7830 C.ar    1  UNL1        0.0031
     18 C         -31.4026   -1.7325   25.1302 C.ar    1  UNL1        0.0002
     19 C         -30.4494   -1.4719   26.0819 C.ar    1  UNL1        0.0031
     20 C         -29.1058   -1.1958   25.7344 C.ar    1  UNL1        0.0375
@<TRIPOS>BOND
     1     3     4    1
     2     7    13    1
     3    11    14    1
     4    14    15    1
     5     4     8   ar
     6     8     9   ar
     7     9    10   ar
     8    10    11   ar
     9    11    12   ar
    10    12     4   ar
    11    15    16   ar
    12    16    17   ar
    13    17    18   ar
    14    18    19   ar
    15    19    20   ar
    16    20    15   ar
    17     1     2   ar
    18     2     5   ar
    19     5     6   ar
    20     6     7   ar
    21     7     3   ar
    22     3     1   ar
