@<TRIPOS>MOLECULE
No_4141-gen_results/8p0m/2024-11-26-14-13-15/
 33 35 0 0 0
SMALL
GASTEIGER

@<TRIPOS>ATOM
      1 C         -28.0162   -0.8135   28.8779 C.2     1  UNL1        0.2657
      2 C         -27.0636   -0.1190   28.6079 C.ar    1  UNL1        0.0551
      3 C         -25.7923   -0.4302   29.0761 C.ar    1  UNL1        0.0047
      4 C         -24.5456    0.3494   28.8225 C.ar    1  UNL1        0.0053
      5 C         -24.6586    1.4196   27.8878 C.ar    1  UNL1        0.0286
      6 C         -25.9471    1.6811   27.3792 C.ar    1  UNL1        0.0025
      7 C         -27.0439    0.9739   27.6871 C.ar    1  UNL1        0.0046
      8 N         -27.9517   -1.7518   29.9375 N.am    1  UNL1       -0.1824
      9 O         -29.1108   -0.7488   28.3347 O.2     1  UNL1       -0.2683
     10 CA        -29.0453   -2.6075   30.3999 C.3     1  UNL1        0.2767
     11 C         -23.4628    2.1700   27.6032 C.ar    1  UNL1        0.1398
     12 N         -22.2718    1.7430   28.0543 N.ar    1  UNL1       -0.2160
     13 CL        -23.6242    3.6678   26.9297 Cl      1  UNL1       -0.0613
     14 C         -28.7561   -3.9558   30.3836 C.2     1  UNL1        0.3934
     15 O         -27.6791   -4.3583   30.2700 O.co2   1  UNL1       -0.2432
     16 OXT       -29.7839   -4.8102   30.1365 O.co2   1  UNL1       -0.2432
     17 C         -29.2533   -2.1545   31.9066 C.2     1  UNL1        0.2725
     18 O         -28.3530   -1.8727   32.6100 O.2     1  UNL1       -0.2691
     19 N         -30.5150   -1.7783   32.1796 N.ar    1  UNL1       -0.2736
     20 C         -30.8198   -1.3103   33.5542 C.ar    1  UNL1        0.0825
     21 C         -31.9651   -0.9669   33.6545 C.ar    1  UNL1        0.0183
     22 C         -31.7837   -1.7780   31.5703 C.ar    1  UNL1        0.0804
     23 C         -32.6955   -1.2461   32.3451 C.ar    1  UNL1        0.0220
     24 C         -22.0471    0.6525   28.6769 C.ar    1  UNL1        0.1706
     25 C         -23.1757   -0.1626   29.1131 C.ar    1  UNL1        0.0377
     26 N         -20.8326    0.2553   28.9936 N.pl3   1  UNL1       -0.1072
     27 C         -34.0690   -1.0311   32.0251 C.3     1  UNL1        0.1649
     28 N         -34.7519   -0.3761   32.8350 N.2     1  UNL1       -0.2069
     29 C         -34.5662    0.3719   33.6257 C.1     1  UNL1        0.0983
     30 N         -35.6453    1.0668   34.3397 N.2     1  UNL1       -0.1635
     31 C         -35.2072    1.9413   35.3053 C.2     1  UNL1        0.2048
     32 N         -33.9601    2.1582   35.6043 N.2     1  UNL1       -0.2474
     33 C         -32.9450    1.5559   34.9736 C.3     1  UNL1        0.1535
@<TRIPOS>BOND
     1     1     2    1
     2     1     8   am
     3     1     9    2
     4     8    10    1
     5    11    13    1
     6    10    14    1
     7    14    15   ar
     8    14    16   ar
     9    10    17    1
    10    17    18    2
    11    17    19   am
    12    19    20   ar
    13    20    21   ar
    14    19    22   ar
    15    21    23   ar
    16    22    23   ar
    17    24    26    1
    18    23    27    1
    19    27    28    1
    20    28    29    2
    21    29    30    2
    22    30    31    1
    23    31    32    2
    24    32    33    1
    25     2     3   ar
    26     3     4   ar
    27     5     6   ar
    28     6     7   ar
    29     7     2   ar
    30     4     5   ar
    31     5    11   ar
    32    11    12   ar
    33    12    24   ar
    34    24    25   ar
    35    25     4   ar
