@<TRIPOS>MOLECULE
No_4142-gen_results/8p0m/2024-11-26-14-13-15/
 14 15 0 0 0
SMALL
GASTEIGER

@<TRIPOS>ATOM
      1 C         -28.0162   -0.8135   28.8779 C.ar    1  UNL1        0.0943
      2 C         -27.0636   -0.1190   28.6079 C.ar    1  UNL1       -0.0070
      3 C         -26.9716    0.7139   27.5060 C.3     1  UNL1        0.0279
      4 C         -25.8205    1.4909   27.1160 C.3     1  UNL1        0.0135
      5 C         -24.6562    1.4242   27.9180 C.3     1  UNL1        0.0998
      6 C         -24.6847    0.5901   29.0659 C.3     1  UNL1        0.0346
      7 C         -25.8099   -0.1266   29.3338 C.ar    1  UNL1       -0.0228
      8 N         -27.9662   -1.6794   30.0086 N.ar    1  UNL1       -0.2427
      9 C         -23.4753    2.1961   27.6050 C.3     1  UNL1        0.3978
     10 F         -22.6865    1.7897   27.1422 F       1  UNL1       -0.1700
     11 C         -25.7429   -1.0088   30.4639 C.ar    1  UNL1        0.0161
     12 C         -26.8637   -1.7897   30.7902 C.ar    1  UNL1        0.0985
     13 F         -23.0357    2.7933   28.8393 F       1  UNL1       -0.1700
     14 F         -23.9670    3.3971   27.0023 F       1  UNL1       -0.1700
@<TRIPOS>BOND
     1     2     3    1
     2     3     4    1
     3     4     5    1
     4     5     6    1
     5     6     7    1
     6     5     9    1
     7     9    10    1
     8     9    13    1
     9     9    14    1
    10     1     2   ar
    11     2     7   ar
    12     7    11   ar
    13    11    12   ar
    14    12     8   ar
    15     8     1   ar
