@<TRIPOS>MOLECULE
No_4143-gen_results/8p0m/2024-11-26-14-13-15/
 10 10 0 0 0
SMALL
GASTEIGER

@<TRIPOS>ATOM
      1 F         -28.0727   -1.2542   28.5316 F       1  UNL1       -0.1720
      2 C         -28.2662   -0.4214   29.1931 C.2     1  UNL1        0.2788
      3 C         -28.1839    0.5652   29.0416 C.2     1  UNL1        0.0603
      4 C         -27.7131    1.1254   27.6783 C.ar    1  UNL1        0.0046
      5 C         -27.5605    2.3419   27.2561 C.ar    1  UNL1        0.0001
      6 C         -26.9918    2.6891   25.9814 C.ar    1  UNL1        0.0000
      7 C         -26.6178    1.6104   25.1672 C.ar    1  UNL1        0.0000
      8 C         -26.7591    0.3704   25.5863 C.ar    1  UNL1        0.0000
      9 C         -27.1960    0.0705   26.8741 C.ar    1  UNL1        0.0001
     10 F         -28.8087   -0.7645   30.5298 F       1  UNL1       -0.1720
@<TRIPOS>BOND
     1     1     2    1
     2     2     3    2
     3     3     4    1
     4     2    10    1
     5     4     5   ar
     6     5     6   ar
     7     6     7   ar
     8     7     8   ar
     9     8     9   ar
    10     9     4   ar
