@<TRIPOS>MOLECULE
No_4144-gen_results/8p0m/2024-11-26-14-13-15/
 24 24 0 0 0
SMALL
GASTEIGER

@<TRIPOS>ATOM
      1 C         -28.0162   -0.8135   28.8779 C.2     1  UNL1        0.2530
      2 C         -27.0636   -0.1190   28.6079 C.ar    1  UNL1        0.0561
      3 C         -26.9287    1.1713   29.0083 C.ar    1  UNL1        0.0339
      4 C         -25.7702    2.0341   28.6884 C.ar    1  UNL1        0.1376
      5 C         -24.7141    1.4431   27.9188 C.ar    1  UNL1        0.0210
      6 C         -24.8590    0.0783   27.5836 C.ar    1  UNL1       -0.0006
      7 C         -25.9647   -0.6606   27.9164 C.ar    1  UNL1        0.0044
      8 N         -27.9820   -1.6112   30.1028 N.am    1  UNL1       -0.2484
      9 C         -23.5351    2.1704   27.5550 C.3     1  UNL1        0.0971
     10 N         -22.3779    2.1928   27.8323 N.3     1  UNL1       -0.2146
     11 C         -23.8393    3.0014   26.2966 C.3     1  UNL1        0.0237
     12 O         -29.2004   -0.6074   28.4823 O.2     1  UNL1       -0.2696
     13 C         -29.0505   -2.4959   30.5716 C.2     1  UNL1        0.1289
     14 C         -26.6794   -2.3262   30.3031 C.3     1  UNL1        0.1205
     15 C         -28.8511   -3.7472   30.7586 C.2     1  UNL1        0.2936
     16 F         -29.8343   -4.2013   31.5161 F       1  UNL1       -0.1706
     17 F         -28.5247   -4.7068   30.2091 F       1  UNL1       -0.1706
     18 C         -21.5271    1.0585   28.2005 C.3     1  UNL1        0.0938
     19 C         -22.1469   -0.0927   28.7775 C.3     1  UNL1        0.0496
     20 F         -25.7097    3.2476   28.9989 F       1  UNL1       -0.2045
     21 C         -22.5672    0.0716   30.2179 C.2     1  UNL1        0.0356
     22 C         -23.2740   -1.0876   30.7838 C.2     1  UNL1        0.2746
     23 F         -23.3802   -2.0608   30.1060 F       1  UNL1       -0.1724
     24 F         -24.5872   -0.6535   31.1323 F       1  UNL1       -0.1724
@<TRIPOS>BOND
     1     1     2    1
     2     1     8   am
     3     5     9    1
     4     9    10    1
     5     9    11    1
     6     1    12    2
     7     8    13    1
     8     8    14    1
     9    13    15    2
    10    15    16    1
    11    15    17    1
    12    10    18    1
    13    18    19    1
    14     4    20    1
    15    19    21    1
    16    21    22    2
    17    22    23    1
    18    22    24    1
    19     2     3   ar
    20     3     4   ar
    21     4     5   ar
    22     5     6   ar
    23     6     7   ar
    24     7     2   ar
