@<TRIPOS>MOLECULE
No_4148-gen_results/8p0m/2024-11-26-14-13-15/
 20 21 0 0 0
SMALL
GASTEIGER

@<TRIPOS>ATOM
      1 C         -28.0162   -0.8135   28.8779 C.ar    1  UNL1        0.0375
      2 C         -28.4690   -0.7850   29.8287 C.ar    1  UNL1        0.1454
      3 C         -26.5042   -0.7777   28.8766 C.ar    1  UNL1        0.0030
      4 C         -25.6540   -0.6597   27.7191 C.ar    1  UNL1        0.0003
      5 C         -27.9180   -0.9374   31.1824 C.ar    1  UNL1        0.0375
      6 C         -26.5423   -0.9399   31.2606 C.ar    1  UNL1        0.0031
      7 C         -25.7832   -0.8935   30.1201 C.ar    1  UNL1        0.0004
      8 C         -24.3096   -0.3015   27.8531 C.ar    1  UNL1        0.0048
      9 C         -23.6669   -0.4595   29.0986 C.ar    1  UNL1        0.0593
     10 C         -24.3700   -0.6645   30.2027 C.ar    1  UNL1        0.0048
     11 C         -22.1946   -0.2290   29.1314 C.2     1  UNL1        0.2968
     12 N         -21.2882    0.5665   28.7715 N.2     1  UNL1       -0.1025
     13 O         -21.6155   -1.3981   29.6842 O.2     1  UNL1       -0.2636
     14 O         -29.9234   -0.8668   29.8619 O.3     1  UNL1       -0.4504
     15 C         -30.6162    0.2453   30.2363 C.2     1  UNL1        0.1795
     16 C         -31.6009    0.4327   29.7412 C.2     1  UNL1        0.0407
     17 C         -32.2537    1.1719   29.5587 C.2     1  UNL1        0.0032
     18 C         -33.5426    1.3061   28.8027 C.2     1  UNL1        0.0001
     19 C         -33.9145    0.1084   28.2214 C.2     1  UNL1        0.0000
     20 C         -33.1729   -0.9914   28.2940 C.2     1  UNL1        0.0000
@<TRIPOS>BOND
     1     9    11    1
     2    11    12    2
     3    11    13    1
     4     2    14    1
     5    14    15    1
     6    15    16    2
     7    16    17    1
     8    17    18    2
     9    18    19    1
    10    19    20    2
    11     1     2   ar
    12     2     5   ar
    13     5     6   ar
    14     6     7   ar
    15     3     1   ar
    16     3     4   ar
    17     4     8   ar
    18     8     9   ar
    19     9    10   ar
    20    10     7   ar
    21     7     3   ar
