@<TRIPOS>MOLECULE
No_4149-gen_results/8p0m/2024-11-26-14-13-15/
 21 22 0 0 0
SMALL
GASTEIGER

@<TRIPOS>ATOM
      1 C         -28.0162   -0.8135   28.8779 C.ar    1  UNL1        0.0551
      2 C         -28.4690   -0.7850   29.8287 C.2     1  UNL1        0.2648
      3 C         -28.1816    0.4277   28.1134 C.ar    1  UNL1        0.0054
      4 C         -27.4498    0.6435   26.8500 C.ar    1  UNL1        0.0115
      5 C         -26.1815    0.0357   26.7145 C.ar    1  UNL1        0.0577
      6 C         -25.7800   -0.9326   27.6938 C.ar    1  UNL1        0.0115
      7 C         -26.5568   -1.2134   28.7413 C.ar    1  UNL1        0.0054
      8 N         -29.6101   -0.2783   30.1938 N.am    1  UNL1       -0.2020
      9 O         -28.0389   -1.6599   30.8482 O.2     1  UNL1       -0.2684
     10 C         -30.4672   -0.5472   31.3820 C.3     1  UNL1        0.1130
     11 CL        -25.2000    0.5634   25.4270 Cl      1  UNL1       -0.0822
     12 C         -30.1652   -0.6488   32.4744 C.3     1  UNL1        0.1107
     13 C         -31.8550   -0.7633   30.8845 C.3     1  UNL1        0.0250
     14 N         -28.9966   -0.0959   33.0276 N.3     1  UNL1       -0.2115
     15 C         -28.6157    1.1152   32.7226 C.3     1  UNL1        0.1150
     16 C         -27.2321    1.4548   32.9453 C.ar    1  UNL1       -0.0048
     17 C         -26.4244    0.4980   33.1942 C.ar    1  UNL1       -0.0029
     18 C         -24.9791    0.7649   33.1648 C.ar    1  UNL1       -0.0003
     19 C         -24.5360    1.9518   32.5938 C.ar    1  UNL1       -0.0000
     20 C         -25.3822    2.9878   32.2180 C.ar    1  UNL1       -0.0003
     21 C         -26.7516    2.7048   32.3180 C.ar    1  UNL1       -0.0029
@<TRIPOS>BOND
     1     1     2    1
     2     2     8   am
     3     2     9    2
     4     8    10    1
     5     5    11    1
     6    10    12    1
     7    10    13    1
     8    12    14    1
     9    14    15    1
    10    15    16    1
    11    16    17   ar
    12    17    18   ar
    13    18    19   ar
    14    19    20   ar
    15    20    21   ar
    16    21    16   ar
    17     1     3   ar
    18     3     4   ar
    19     4     5   ar
    20     5     6   ar
    21     6     7   ar
    22     7     1   ar
