@<TRIPOS>MOLECULE
No_415-gen_results/8p0m/2024-11-26-14-13-15/
 28 30 0 0 0
SMALL
GASTEIGER

@<TRIPOS>ATOM
      1 C         -28.0162   -0.8135   28.8779 C.ar    1  UNL1        0.0763
      2 C         -27.0636   -0.1189   28.6079 C.ar    1  UNL1        0.0065
      3 C         -26.9716    0.7139   27.5060 C.ar    1  UNL1        0.0004
      4 C         -28.1053    0.7744   26.6421 C.ar    1  UNL1        0.0066
      5 C         -29.2008    0.1044   27.0527 C.ar    1  UNL1        0.0800
      6 C         -28.0219   -1.5899   30.0879 C.2     1  UNL1        0.3478
      7 C         -29.1640   -0.6394   28.1484 C.ar    1  UNL1        0.0130
      8 O         -28.8451   -1.9567   30.6618 O.2     1  UNL1       -0.2444
      9 O         -26.7549   -2.1491   30.4130 O.3     1  UNL1       -0.3890
     10 C         -30.3743    0.2087   26.1654 C.2     1  UNL1        0.3878
     11 O         -31.2722   -0.4160   26.3236 O.co2   1  UNL1       -0.2406
     12 O         -30.2041    0.7892   24.9467 O.co2   1  UNL1       -0.2406
     13 C         -25.7017    1.4465   27.1288 C.ar    1  UNL1        0.0002
     14 C         -25.5174    2.3846   26.3516 C.ar    1  UNL1        0.0000
     15 C         -24.3989    3.1263   26.2995 C.ar    1  UNL1        0.0001
     16 C         -23.1900    2.6514   26.9039 C.ar    1  UNL1        0.0046
     17 C         -23.3311    1.4635   27.6189 C.ar    1  UNL1        0.0553
     18 C         -24.5432    0.8513   27.8393 C.ar    1  UNL1        0.0046
     19 C         -22.0877    0.9537   28.2734 C.2     1  UNL1        0.2708
     20 N         -22.1553   -0.2399   28.9082 N.am    1  UNL1       -0.1287
     21 O         -21.0109    1.5341   28.1654 O.2     1  UNL1       -0.2681
     22 N         -20.9450   -0.7871   29.3836 N.3     1  UNL1       -0.0064
     23 C         -23.2688   -1.0458   29.2018 C.2     1  UNL1        0.2672
     24 C         -23.3544   -0.9962   30.6937 C.2     1  UNL1        0.0453
     25 C         -24.4591   -1.8359   31.1911 C.3     1  UNL1        0.1407
     26 C         -25.7551   -1.9521   30.3635 C.2     1  UNL1        0.3284
     27 O         -25.1622   -1.8545   29.0145 O.2     1  UNL1       -0.2492
     28 O         -24.0098   -1.4885   28.4827 O.2     1  UNL1       -0.2684
@<TRIPOS>BOND
     1     1     6    1
     2     6     8    2
     3     6     9    1
     4     5    10    1
     5    10    11   ar
     6    10    12   ar
     7     3    13    1
     8    17    19    1
     9    19    20   am
    10    19    21    2
    11    20    22    1
    12    20    23    1
    13    23    24    2
    14    24    25    1
    15     9    26    1
    16    25    26    1
    17    26    27    2
    18    23    28    1
    19    13    14   ar
    20    14    15   ar
    21    15    16   ar
    22    16    17   ar
    23    17    18   ar
    24    18    13   ar
    25     1     2   ar
    26     2     3   ar
    27     3     4   ar
    28     4     5   ar
    29     5     7   ar
    30     7     1   ar
