@<TRIPOS>MOLECULE
No_4150-gen_results/8p0m/2024-11-26-14-13-15/
 16 17 0 0 0
SMALL
GASTEIGER

@<TRIPOS>ATOM
      1 C         -28.0162   -0.8135   28.8779 C.ar    1  UNL1        0.0142
      2 C         -28.4690   -0.7850   29.8287 C.ar    1  UNL1        0.0478
      3 C         -26.5042   -0.7777   28.8766 C.ar    1  UNL1       -0.0030
      4 C         -25.8103   -0.8531   30.1028 C.ar    1  UNL1       -0.0210
      5 C         -27.9906   -0.8916   31.2257 C.ar    1  UNL1        0.0142
      6 C         -26.6042   -0.8676   31.2652 C.ar    1  UNL1       -0.0030
      7 N         -29.9808   -0.8491   30.0372 N.pl3   1  UNL1       -0.3075
      8 C         -30.7032   -0.0242   29.3095 C.3     1  UNL1        0.0908
      9 C         -32.0990   -0.2262   29.3020 C.3     1  UNL1        0.0215
     10 C         -30.6225   -1.8687   30.7084 C.3     1  UNL1        0.0908
     11 C         -31.9859   -2.0387   30.7091 C.3     1  UNL1        0.0215
     12 C         -32.7110   -1.1650   29.9987 C.3     1  UNL1        0.0035
     13 C         -24.4154   -0.9209   30.3101 C.3     1  UNL1        0.0414
     14 C         -23.8566    0.0203   31.2196 C.3     1  UNL1        0.0062
     15 C         -23.5541   -1.7137   29.5406 C.3     1  UNL1        0.1136
     16 N         -22.2957   -1.3464   29.4401 N.3     1  UNL1       -0.1310
@<TRIPOS>BOND
     1     2     7    1
     2     7     8    1
     3     7    10    1
     4     9    12    1
     5    11    12    1
     6     4    13    1
     7    13    14    1
     8    13    15    1
     9    15    16    1
    10     8     9    1
    11    11    10    1
    12     1     2   ar
    13     2     5   ar
    14     5     6   ar
    15     6     4   ar
    16     4     3   ar
    17     3     1   ar
