@<TRIPOS>MOLECULE
No_4152-gen_results/8p0m/2024-11-26-14-13-15/
 22 24 0 0 0
SMALL
GASTEIGER

@<TRIPOS>ATOM
      1 C         -28.0162   -0.8135   28.8779 C.ar    1  UNL1        0.0043
      2 C         -28.4690   -0.7850   29.8287 C.ar    1  UNL1        0.0554
      3 C         -26.5042   -0.7777   28.8766 C.ar    1  UNL1       -0.0038
      4 C         -25.8103   -0.8531   30.1028 C.ar    1  UNL1       -0.0178
      5 C         -30.0136   -0.8410   29.8508 C.2     1  UNL1        0.2690
      6 C         -26.5670   -0.8850   31.2517 C.ar    1  UNL1       -0.0038
      7 C         -27.9411   -0.9069   31.1850 C.ar    1  UNL1        0.0043
      8 O         -30.5389   -0.4288   28.9958 O.2     1  UNL1       -0.2680
      9 N         -30.6902   -1.4992   30.9292 N.am    1  UNL1       -0.1754
     10 C         -32.1200   -1.5909   30.8913 C.ar    1  UNL1        0.0737
     11 C         -32.5841   -2.5027   31.5503 C.ar    1  UNL1        0.0166
     12 C         -33.9787   -2.8133   31.5402 C.ar    1  UNL1        0.0013
     13 C         -34.7895   -1.9506   30.7267 C.ar    1  UNL1        0.0001
     14 C         -34.1859   -0.9724   29.9867 C.ar    1  UNL1        0.0013
     15 C         -32.8225   -0.7452   30.0329 C.ar    1  UNL1        0.0166
     16 C         -24.3445   -0.8105   30.0979 C.3     1  UNL1        0.0526
     17 C         -23.5944   -0.4634   29.0682 C.ar    1  UNL1       -0.0178
     18 C         -22.1545   -0.3255   29.2009 C.ar    1  UNL1       -0.0039
     19 C         -21.4107    0.1678   28.1230 C.ar    1  UNL1       -0.0003
     20 C         -22.0607    1.0823   27.2577 C.ar    1  UNL1       -0.0000
     21 C         -23.4646    1.2672   27.2984 C.ar    1  UNL1       -0.0003
     22 C         -24.1931    0.6048   28.2185 C.ar    1  UNL1       -0.0039
@<TRIPOS>BOND
     1     2     5    1
     2     5     8    2
     3     5     9   am
     4     9    10    1
     5     4    16    1
     6    16    17    1
     7    17    18   ar
     8    18    19   ar
     9    19    20   ar
    10    20    21   ar
    11    21    22   ar
    12    22    17   ar
    13    10    11   ar
    14    11    12   ar
    15    12    13   ar
    16    13    14   ar
    17    14    15   ar
    18    15    10   ar
    19     1     2   ar
    20     2     7   ar
    21     7     6   ar
    22     6     4   ar
    23     4     3   ar
    24     3     1   ar
