@<TRIPOS>MOLECULE
No_4154-gen_results/8p0m/2024-11-26-14-13-15/
 17 19 0 0 0
SMALL
GASTEIGER

@<TRIPOS>ATOM
      1 C         -28.0162   -0.8135   28.8779 C.ar    1  UNL1        0.0074
      2 C         -28.4690   -0.7850   29.8287 C.ar    1  UNL1        0.0002
      3 C         -27.0871    0.2903   28.6377 C.ar    1  UNL1        0.0822
      4 C         -26.8317    1.2487   29.5869 C.ar    1  UNL1        0.0074
      5 C         -28.3914    0.0801   31.0065 C.ar    1  UNL1        0.0000
      6 C         -27.4940    1.1521   30.7841 C.ar    1  UNL1        0.0002
      7 C         -26.3172    0.3994   27.3653 C.2     1  UNL1        0.3229
      8 N         -25.0720    0.1569   27.4305 N.pl3   1  UNL1       -0.1660
      9 N         -26.8956    0.6467   26.2390 N.2     1  UNL1       -0.0603
     10 C         -25.8460    0.5095   25.3244 C.3     1  UNL1        0.3139
     11 C         -24.6901    0.2884   26.0342 C.3     1  UNL1        0.2653
     12 C         -24.1484   -0.0988   28.4239 C.ar    1  UNL1        0.1389
     13 C         -24.1492   -1.3342   29.1247 C.ar    1  UNL1        0.0403
     14 C         -23.2575    0.9665   28.7420 C.ar    1  UNL1        0.0403
     15 C         -22.2149    0.6514   29.6989 C.ar    1  UNL1        0.0035
     16 C         -23.2042   -1.5411   30.1237 C.ar    1  UNL1        0.0035
     17 C         -22.2623   -0.5262   30.4307 C.ar    1  UNL1        0.0002
@<TRIPOS>BOND
     1     3     7    1
     2     7     8    1
     3     7     9    2
     4     9    10    1
     5     8    11    1
     6    10    11    1
     7     8    12    1
     8     1     2   ar
     9     2     5   ar
    10     5     6   ar
    11     6     4   ar
    12     4     3   ar
    13     3     1   ar
    14    12    13   ar
    15    13    16   ar
    16    16    17   ar
    17    17    15   ar
    18    15    14   ar
    19    14    12   ar
