@<TRIPOS>MOLECULE
No_4155-gen_results/8p0m/2024-11-26-14-13-15/
 10 10 0 0 0
SMALL
GASTEIGER

@<TRIPOS>ATOM
      1 C         -28.0162   -0.8135   28.8779 C.ar    1  UNL1       -0.0001
      2 C         -28.4690   -0.7850   29.8287 C.ar    1  UNL1       -0.0000
      3 C         -26.5042   -0.7777   28.8766 C.ar    1  UNL1        0.0039
      4 C         -25.8103   -0.8531   30.1028 C.ar    1  UNL1        0.0714
      5 C         -27.9906   -0.8916   31.2257 C.ar    1  UNL1       -0.0001
      6 C         -26.6042   -0.8676   31.2652 C.ar    1  UNL1        0.0039
      7 C         -24.3894   -0.8049   30.1638 C.3     1  UNL1        0.4186
      8 F         -23.9278   -1.4687   31.0152 F       1  UNL1       -0.1659
      9 F         -23.9684    0.4939   30.4139 F       1  UNL1       -0.1659
     10 F         -23.7890   -1.0769   28.9612 F       1  UNL1       -0.1659
@<TRIPOS>BOND
     1     4     7    1
     2     7     8    1
     3     7     9    1
     4     7    10    1
     5     1     2   ar
     6     2     5   ar
     7     5     6   ar
     8     6     4   ar
     9     4     3   ar
    10     3     1   ar
