@<TRIPOS>MOLECULE
No_4156-gen_results/8p0m/2024-11-26-14-13-15/
 11 11 0 0 0
SMALL
GASTEIGER

@<TRIPOS>ATOM
      1 C         -28.0162   -0.8135   28.8779 C.ar    1  UNL1       -0.0033
      2 C         -28.4690   -0.7850   29.8287 C.ar    1  UNL1       -0.0003
      3 C         -28.1960    0.3478   28.0550 C.ar    1  UNL1       -0.0064
      4 C         -29.0191    1.3501   28.3782 C.ar    1  UNL1       -0.0033
      5 C         -29.4107    0.1803   30.3782 C.ar    1  UNL1       -0.0000
      6 C         -29.6059    1.2495   29.6193 C.ar    1  UNL1       -0.0003
      7 C         -27.4478    0.3799   26.7122 C.3     1  UNL1        0.1458
      8 BR        -25.6417    0.5629   26.6121 Br      1  UNL1       -0.0709
      9 C         -28.0982    0.3845   25.4400 C.3     1  UNL1        0.3328
     10 F         -27.4660    0.0961   24.4656 F       1  UNL1       -0.1971
     11 F         -29.1776   -0.4235   25.5475 F       1  UNL1       -0.1971
@<TRIPOS>BOND
     1     3     7    1
     2     7     8    1
     3     7     9    1
     4     9    10    1
     5     9    11    1
     6     1     2   ar
     7     2     5   ar
     8     5     6   ar
     9     6     4   ar
    10     4     3   ar
    11     3     1   ar
