@<TRIPOS>MOLECULE
No_4157-gen_results/8p0m/2024-11-26-14-13-15/
 33 36 0 0 0
SMALL
GASTEIGER

@<TRIPOS>ATOM
      1 C         -28.0162   -0.8135   28.8779 C.2     1  UNL1        0.2690
      2 C         -27.0636   -0.1190   28.6079 C.ar    1  UNL1        0.0551
      3 C         -25.7923   -0.4302   29.0761 C.ar    1  UNL1        0.0008
      4 C         -24.5456    0.3494   28.8225 C.ar    1  UNL1       -0.0080
      5 C         -24.6586    1.4196   27.8878 C.ar    1  UNL1        0.0514
      6 C         -25.9471    1.6811   27.3792 C.ar    1  UNL1        0.0044
      7 C         -27.0439    0.9739   27.6871 C.ar    1  UNL1        0.0047
      8 N         -27.9736   -1.7264   29.9612 N.am    1  UNL1       -0.1754
      9 O         -29.1912   -0.5380   28.5093 O.2     1  UNL1       -0.2680
     10 C         -29.0743   -2.5471   30.4575 C.ar    1  UNL1        0.0737
     11 C         -23.4541    2.1681   27.6135 C.2     1  UNL1        0.2645
     12 N         -22.2607    1.7338   28.0741 N.am    1  UNL1       -0.2010
     13 O         -23.5049    3.0571   26.7255 O.2     1  UNL1       -0.2684
     14 C         -29.4075   -2.1125   31.7086 C.ar    1  UNL1        0.0166
     15 C         -30.1254   -3.1140   32.4464 C.ar    1  UNL1        0.0013
     16 C         -30.4604   -4.3491   31.8600 C.ar    1  UNL1        0.0001
     17 C         -29.9631   -4.6768   30.6040 C.ar    1  UNL1        0.0013
     18 C         -29.1062   -3.8151   30.0250 C.ar    1  UNL1        0.0166
     19 C         -22.0160    0.7562   28.9674 C.3     1  UNL1        0.1283
     20 C         -23.2416   -0.0472   29.3644 C.3     1  UNL1        0.1392
     21 C         -23.0804   -1.1625   30.2216 C.3     1  UNL1        0.4028
     22 F         -23.9749   -1.0532   31.1019 F       1  UNL1       -0.1696
     23 F         -21.9267   -0.9714   30.9024 F       1  UNL1       -0.1696
     24 F         -23.0189   -2.2599   29.5240 F       1  UNL1       -0.1696
     25 C         -31.2973   -5.3491   32.6036 C.ar    1  UNL1       -0.0001
     26 C         -31.8443   -5.1434   33.6634 C.ar    1  UNL1       -0.0000
     27 C         -32.6762   -6.1431   34.3360 C.ar    1  UNL1       -0.0001
     28 C         -32.8197   -7.3587   33.6869 C.ar    1  UNL1        0.0011
     29 C         -32.1823   -7.6128   32.5042 C.ar    1  UNL1        0.0436
     30 C         -31.3909   -6.6689   31.9495 C.ar    1  UNL1        0.0011
     31 C         -32.3420   -8.9209   31.8490 C.3     1  UNL1        0.3410
     32 F         -32.1676  -10.0034   32.2343 F       1  UNL1       -0.1933
     33 F         -32.6311   -8.8225   30.5560 F       1  UNL1       -0.1933
@<TRIPOS>BOND
     1     1     2    1
     2     1     8   am
     3     1     9    2
     4     8    10    1
     5     5    11    1
     6    11    12   am
     7    11    13    2
     8    12    19    1
     9     4    20    1
    10    19    20    1
    11    20    21    1
    12    21    22    1
    13    21    23    1
    14    21    24    1
    15    16    25    1
    16    29    31    1
    17    31    32    1
    18    31    33    1
    19     2     3   ar
    20     3     4   ar
    21     4     5   ar
    22     5     6   ar
    23     6     7   ar
    24     7     2   ar
    25    25    26   ar
    26    26    27   ar
    27    27    28   ar
    28    28    29   ar
    29    29    30   ar
    30    30    25   ar
    31    10    14   ar
    32    14    15   ar
    33    15    16   ar
    34    16    17   ar
    35    17    18   ar
    36    18    10   ar
