@<TRIPOS>MOLECULE
No_4158-gen_results/8p0m/2024-11-26-14-13-15/
 10 10 0 0 0
SMALL
GASTEIGER

@<TRIPOS>ATOM
      1 O         -28.1229   -1.3353   28.4874 O.2     1  UNL1       -0.2730
      2 C         -27.4806   -0.4044   28.7094 C.2     1  UNL1        0.2450
      3 C         -27.1904    0.2460   29.5268 C.3     1  UNL1        0.0998
      4 N         -26.6871   -0.0001   27.4423 N.am    1  UNL1       -0.2052
      5 C         -27.6511    0.1259   30.8798 C.2     1  UNL1       -0.0219
      6 C         -25.8775    0.7523   27.3474 C.3     1  UNL1        0.1152
      7 C         -25.5246    1.5777   28.4620 C.3     1  UNL1        0.0243
      8 C         -26.1055    1.3312   29.6080 C.3     1  UNL1        0.0153
      9 C         -27.3046    0.3934   31.8860 C.2     1  UNL1       -0.0299
     10 C         -26.2833    1.5676   31.9133 C.3     1  UNL1        0.0304
@<TRIPOS>BOND
     1     1     2    2
     2     2     3    1
     3     2     4   am
     4     3     5    1
     5     6     7    1
     6     3     8    1
     7     5     9    2
     8     9    10    1
     9     8     7    1
    10     6     4    1
