@<TRIPOS>MOLECULE
No_4159-gen_results/8p0m/2024-11-26-14-13-15/
 12 12 0 0 0
SMALL
GASTEIGER

@<TRIPOS>ATOM
      1 C         -28.0162   -0.8135   28.8779 C.2     1  UNL1        0.2709
      2 C         -27.0636   -0.1190   28.6079 C.2     1  UNL1        0.0116
      3 C         -26.8756    1.1325   28.9134 C.3     1  UNL1        0.0267
      4 C         -25.6883    1.9515   28.5672 C.3     1  UNL1        0.0059
      5 C         -24.6394    1.2834   27.8753 C.3     1  UNL1        0.0183
      6 C         -24.8068   -0.0513   27.6040 C.3     1  UNL1        0.0059
      7 C         -25.9019   -0.7670   27.9511 C.3     1  UNL1        0.0267
      8 F         -28.4359   -0.2771   30.1639 F       1  UNL1       -0.1727
      9 C         -23.4397    1.9788   27.4642 C.3     1  UNL1        0.0918
     10 N         -22.2664    2.2796   27.8639 N.3     1  UNL1       -0.1329
     11 C         -23.6320    2.5684   26.0363 C.3     1  UNL1        0.0205
     12 F         -27.8129   -2.1205   29.2788 F       1  UNL1       -0.1727
@<TRIPOS>BOND
     1     1     2    2
     2     2     3    1
     3     3     4    1
     4     4     5    1
     5     5     6    1
     6     2     7    1
     7     6     7    1
     8     1     8    1
     9     5     9    1
    10     9    10    1
    11     9    11    1
    12     1    12    1
