@<TRIPOS>MOLECULE
No_416-gen_results/8p0m/2024-11-26-14-13-15/
 10 10 0 0 0
SMALL
GASTEIGER

@<TRIPOS>ATOM
      1 C         -28.0162   -0.8135   28.8779 C.ar    1  UNL1        0.0714
      2 C         -27.0636   -0.1189   28.6079 C.ar    1  UNL1        0.0039
      3 C         -27.0010    0.6913   27.4910 C.ar    1  UNL1       -0.0001
      4 C         -28.1373    0.7363   26.6350 C.ar    1  UNL1       -0.0000
      5 C         -29.2360    0.0765   27.0690 C.ar    1  UNL1       -0.0001
      6 C         -29.2177   -0.6429   28.1747 C.ar    1  UNL1        0.0039
      7 C         -28.0030   -1.6604   30.1266 C.3     1  UNL1        0.4186
      8 F         -28.8384   -1.7910   30.8109 F       1  UNL1       -0.1659
      9 F         -27.5973   -2.9657   29.6404 F       1  UNL1       -0.1659
     10 F         -26.7955   -1.4327   30.8918 F       1  UNL1       -0.1659
@<TRIPOS>BOND
     1     1     7    1
     2     7     8    1
     3     7     9    1
     4     7    10    1
     5     1     2   ar
     6     2     3   ar
     7     3     4   ar
     8     4     5   ar
     9     5     6   ar
    10     6     1   ar
