@<TRIPOS>MOLECULE
No_4160-gen_results/8p0m/2024-11-26-14-13-15/
 22 23 0 0 0
SMALL
GASTEIGER

@<TRIPOS>ATOM
      1 O         -28.1229   -1.3353   28.4874 O.2     1  UNL1       -0.2497
      2 C         -27.4806   -0.4044   28.7094 C.2     1  UNL1        0.3216
      3 C         -27.1904    0.2460   29.5268 C.3     1  UNL1        0.1103
      4 O         -26.7333   -0.0753   27.4606 O.3     1  UNL1       -0.4212
      5 C         -27.6654    0.3258   30.7875 C.3     1  UNL1        0.0160
      6 C         -28.8289   -0.3455   31.0239 C.3     1  UNL1        0.0229
      7 C         -30.0540   -0.0269   30.8179 C.ar    1  UNL1       -0.0225
      8 C         -30.2903    1.3265   30.8030 C.ar    1  UNL1       -0.0043
      9 C         -31.6460    1.6741   30.5905 C.ar    1  UNL1       -0.0003
     10 C         -32.5728    0.7068   30.2841 C.ar    1  UNL1       -0.0000
     11 C         -32.2711   -0.6173   30.2591 C.ar    1  UNL1       -0.0003
     12 C         -31.0062   -1.0259   30.5563 C.ar    1  UNL1       -0.0043
     13 C         -26.5658    1.2338   27.2252 C.2     1  UNL1        0.1806
     14 C         -25.7250    1.5145   26.6293 C.2     1  UNL1        0.0432
     15 C         -24.6668    1.9183   26.8018 C.2     1  UNL1        0.1392
     16 C         -23.5893    2.4430   25.8314 C.2     1  UNL1        0.0291
     17 C         -22.8740    2.1308   25.1764 C.2     1  UNL1       -0.0023
     18 C         -25.5384    0.6428   25.2976 C.3     1  UNL1        0.0365
     19 C         -23.5767    1.1262   24.1885 C.2     1  UNL1       -0.0257
     20 C         -24.6951    0.4436   24.3867 C.3     1  UNL1        0.0309
     21 C         -28.6556   -1.0722   32.4456 C.3     1  UNL1        0.0047
     22 F         -24.4344    2.3960   28.0563 F       1  UNL1       -0.2044
@<TRIPOS>BOND
     1     1     2    2
     2     2     3    1
     3     2     4    1
     4     3     5    1
     5     5     6    1
     6     6     7    1
     7     4    13    1
     8    13    14    2
     9    14    15    1
    10    15    16    2
    11    16    17    1
    12    14    18    1
    13    17    19    2
    14    18    20    1
    15    19    20    1
    16     6    21    1
    17    15    22    1
    18     7     8   ar
    19     8     9   ar
    20     9    10   ar
    21    10    11   ar
    22    11    12   ar
    23    12     7   ar
