@<TRIPOS>MOLECULE
No_4162-gen_results/8p0m/2024-11-26-14-13-15/
 13 13 0 0 0
SMALL
GASTEIGER

@<TRIPOS>ATOM
      1 C         -28.0162   -0.8135   28.8779 C.ar    1  UNL1       -0.0043
      2 C         -28.4690   -0.7850   29.8287 C.ar    1  UNL1       -0.0003
      3 C         -28.1960    0.3478   28.0550 C.ar    1  UNL1       -0.0219
      4 C         -29.0191    1.3501   28.3782 C.ar    1  UNL1       -0.0043
      5 C         -29.6249    1.2683   29.6012 C.ar    1  UNL1       -0.0003
      6 C         -29.3821    0.1816   30.4004 C.ar    1  UNL1       -0.0000
      7 C         -27.4497    0.3750   26.7070 C.3     1  UNL1        0.0307
      8 C         -26.4791    1.3700   26.6045 C.3     1  UNL1        0.0267
      9 C         -25.3638    1.3624   27.5303 C.2     1  UNL1       -0.0436
     10 C         -24.8321    0.5232   28.1175 C.2     1  UNL1       -0.0085
     11 C         -23.6959    0.6441   28.9749 C.2     1  UNL1       -0.0006
     12 C         -23.2631   -0.3556   29.8916 C.2     1  UNL1       -0.0000
     13 C         -24.2629    2.4951   27.4479 C.3     1  UNL1        0.0264
@<TRIPOS>BOND
     1     3     7    1
     2     7     8    1
     3     8     9    1
     4     9    10    2
     5    10    11    1
     6    11    12    2
     7     9    13    1
     8     1     2   ar
     9     2     6   ar
    10     6     5   ar
    11     5     4   ar
    12     4     3   ar
    13     3     1   ar
