@<TRIPOS>MOLECULE
No_4163-gen_results/8p0m/2024-11-26-14-13-15/
 33 35 0 0 0
SMALL
GASTEIGER

@<TRIPOS>ATOM
      1 C         -28.0162   -0.8135   28.8779 C.ar    1  UNL1        0.0065
      2 C         -27.0636   -0.1190   28.6079 C.ar    1  UNL1        0.0002
      3 C         -25.7647   -0.3897   29.0360 C.ar    1  UNL1        0.0000
      4 C         -25.5296   -1.5302   29.9014 C.ar    1  UNL1        0.0002
      5 C         -26.6577   -2.2915   30.2035 C.ar    1  UNL1        0.0065
      6 C         -27.8548   -1.9555   29.7630 C.ar    1  UNL1        0.0760
      7 C         -24.5441    0.4126   28.7379 C.ar    1  UNL1        0.0012
      8 C         -23.3231    0.0476   29.0499 C.ar    1  UNL1        0.0001
      9 C         -22.1997    0.8411   28.7194 C.ar    1  UNL1        0.0013
     10 C         -22.3632    1.8394   27.7172 C.ar    1  UNL1        0.0149
     11 C         -24.6043    1.5165   27.8119 C.ar    1  UNL1        0.0149
     12 C         -23.5582    2.1898   27.3588 C.ar    1  UNL1        0.0542
     13 C         -29.0252   -2.7803   30.1840 C.2     1  UNL1        0.3458
     14 O         -28.9454   -4.0124   30.2582 O.2     1  UNL1       -0.2445
     15 O         -30.1122   -2.2285   30.5217 O.3     1  UNL1       -0.4179
     16 N         -23.5483    3.2149   26.4327 N.am    1  UNL1       -0.2534
     17 C         -24.5508    4.1606   26.5601 C.2     1  UNL1        0.2526
     18 C         -23.6067    2.6333   25.0040 C.3     1  UNL1        0.1203
     19 C         -23.9956    5.3836   27.0260 C.2     1  UNL1        0.0540
     20 C         -24.9516    6.5344   27.3187 C.2     1  UNL1       -0.0168
     21 C         -24.4775    7.7718   27.7498 C.3     1  UNL1        0.0525
     22 C         -25.2003    8.6634   28.5332 C.ar    1  UNL1       -0.0177
     23 C         -24.6955    9.8492   29.0693 C.ar    1  UNL1       -0.0031
     24 C         -25.4671   10.8060   29.7295 C.ar    1  UNL1        0.0111
     25 C         -26.8088   10.4184   29.9462 C.ar    1  UNL1        0.0577
     26 C         -27.3323    9.3027   29.4893 C.ar    1  UNL1        0.0111
     27 C         -26.5617    8.4006   28.7401 C.ar    1  UNL1       -0.0031
     28 O         -25.7574    4.0146   26.3261 O.2     1  UNL1       -0.2696
     29 CL        -27.7701   11.5790   30.8713 Cl      1  UNL1       -0.0822
     30 C         -30.3926   -1.2513   30.8813 C.2     1  UNL1        0.1831
     31 C         -30.1365   -0.9017   32.2061 C.2     1  UNL1        0.0408
     32 C         -30.3497   -1.6581   33.1954 C.2     1  UNL1        0.0032
     33 C         -29.9625   -1.3685   34.5810 C.2     1  UNL1        0.0001
@<TRIPOS>BOND
     1     3     7    1
     2     6    13    1
     3    13    14    2
     4    13    15    1
     5    12    16    1
     6    16    17   am
     7    16    18    1
     8    17    19    1
     9    19    20    2
    10    20    21    1
    11    17    28    2
    12    25    29    1
    13    15    30    1
    14    30    31    2
    15    31    32    1
    16    32    33    2
    17    21    22    1
    18     7     8   ar
    19     8     9   ar
    20     9    10   ar
    21    10    12   ar
    22    12    11   ar
    23    11     7   ar
    24     1     2   ar
    25     2     3   ar
    26     3     4   ar
    27     4     5   ar
    28     5     6   ar
    29     6     1   ar
    30    22    23   ar
    31    23    24   ar
    32    24    25   ar
    33    25    26   ar
    34    26    27   ar
    35    27    22   ar
