@<TRIPOS>MOLECULE
No_4164-gen_results/8p0m/2024-11-26-14-13-15/
 27 27 0 0 0
SMALL
GASTEIGER

@<TRIPOS>ATOM
      1 C         -28.0162   -0.8135   28.8779 C.3     1  UNL1        0.1737
      2 C         -27.0636   -0.1189   28.6079 C.2     1  UNL1        0.0057
      3 C         -27.0010    0.6913   27.4910 C.2     1  UNL1       -0.0021
      4 C         -28.1373    0.7363   26.6350 C.2     1  UNL1        0.0052
      5 C         -29.2360    0.0765   27.0690 C.2     1  UNL1        0.0952
      6 C         -30.3815    0.2048   26.2662 C.2     1  UNL1        0.2852
      7 C         -29.1803   -0.6422   28.1830 C.3     1  UNL1        0.3069
      8 O         -28.0151   -1.6081   30.0375 O.3     1  UNL1       -0.3347
      9 C         -27.6698   -1.7434   28.7445 C.3     1  UNL1        0.2222
     10 O         -30.3106   -1.3254   28.5262 O.3     1  UNL1       -0.3148
     11 F         -29.9056    0.0943   28.7833 F       1  UNL1       -0.1986
     12 C         -31.4481   -1.4643   28.7648 C.3     1  UNL1        0.2170
     13 C         -27.2666   -1.3608   31.1123 C.3     1  UNL1        0.1927
     14 C         -26.7526   -2.7387   29.3071 C.3     1  UNL1        0.1910
     15 F         -27.7204   -2.2028   27.7216 F       1  UNL1       -0.2316
     16 C         -26.5856   -2.7358   30.6995 C.3     1  UNL1        0.0839
     17 O         -25.4257   -2.6076   28.8560 O.3     1  UNL1       -0.2200
     18 O         -31.3984    0.5534   26.5849 O.2     1  UNL1       -0.2668
     19 N         -30.1814   -0.2430   24.9879 N.am    1  UNL1       -0.0838
     20 N         -26.9734   -0.1277   31.0879 N.3     1  UNL1       -0.1839
     21 C         -25.7932    0.3324   31.7299 C.3     1  UNL1        0.1495
     22 P         -25.0277    1.7194   31.6394 P.3     1  UNL1        0.1348
     23 O         -25.8621    2.5001   30.4980 O.2     1  UNL1       -0.4587
     24 O         -25.3085    2.5041   32.8749 O.3     1  UNL1       -0.3562
     25 O         -23.6680    1.6122   31.0857 O.3     1  UNL1       -0.3562
     26 C         -31.7910   -2.4455   29.8061 C.2     1  UNL1        0.2397
     27 O         -31.0645   -2.4988   30.7687 O.2     1  UNL1       -0.2855
@<TRIPOS>BOND
     1     1     2    1
     2     2     3    2
     3     3     4    1
     4     4     5    2
     5     5     6    1
     6     5     7    1
     7     1     8    1
     8     1     9    1
     9     7    10    1
    10     7    11    1
    11    10    12    1
    12     8    13    1
    13     9    14    1
    14     9    15    1
    15    13    16    1
    16    14    16    1
    17    14    17    1
    18     6    18    2
    19     6    19   am
    20    13    20    1
    21    20    21    1
    22    21    22    1
    23    22    23    2
    24    22    24    1
    25    22    25    1
    26    12    26    1
    27    26    27    2
