@<TRIPOS>MOLECULE
No_4165-gen_results/8p0m/2024-11-26-14-13-15/
 25 27 0 0 0
SMALL
GASTEIGER

@<TRIPOS>ATOM
      1 C         -28.0162   -0.8135   28.8779 C.ar    1  UNL1        0.0063
      2 C         -28.4690   -0.7850   29.8287 C.ar    1  UNL1        0.0798
      3 C         -26.5042   -0.7777   28.8766 C.ar    1  UNL1       -0.0041
      4 C         -25.8103   -0.8531   30.1028 C.ar    1  UNL1       -0.0223
      5 C         -27.9906   -0.8916   31.2257 C.ar    1  UNL1        0.0063
      6 C         -26.6042   -0.8676   31.2652 C.ar    1  UNL1       -0.0041
      7 C         -24.3894   -0.8049   30.1638 C.3     1  UNL1        0.0271
      8 C         -23.8172    0.4762   29.9117 C.3     1  UNL1        0.0822
      9 C         -22.5010    0.5449   29.4097 C.3     1  UNL1        0.0095
     10 C         -21.7696   -0.6524   29.2129 C.3     1  UNL1        0.0005
     11 C         -23.6812   -1.3591   31.3252 C.3     1  UNL1        0.0049
     12 C         -23.8058   -1.7929   29.1080 C.3     1  UNL1        0.0045
     13 C         -22.8395   -1.5787   28.5479 C.3     1  UNL1        0.0003
     14 C         -24.4712    1.7423   30.2472 C.2     1  UNL1        0.2454
     15 O         -24.6420    2.1717   31.3898 O.2     1  UNL1       -0.2730
     16 N         -25.0763    2.4061   29.2177 N.am    1  UNL1       -0.1792
     17 C         -25.9199    3.6600   29.4615 C.ar    1  UNL1        0.0734
     18 C         -26.6135    3.8390   30.3522 C.ar    1  UNL1        0.0166
     19 C         -27.4796    4.8852   30.4008 C.ar    1  UNL1        0.0013
     20 C         -25.9606    4.4273   28.2875 C.ar    1  UNL1        0.0166
     21 C         -26.7077    5.5830   28.2715 C.ar    1  UNL1        0.0013
     22 C         -27.5139    5.8197   29.3827 C.ar    1  UNL1        0.0001
     23 C         -30.0711   -0.7258   29.8502 C.2     1  UNL1        0.3878
     24 O         -30.7793   -1.4537   30.3786 O.co2   1  UNL1       -0.2406
     25 O         -30.5537    0.0441   28.8331 O.co2   1  UNL1       -0.2406
@<TRIPOS>BOND
     1     4     7    1
     2     7     8    1
     3     9    10    1
     4     7    11    1
     5     7    12    1
     6    12    13    1
     7     8    14    1
     8    14    15    2
     9    14    16   am
    10    16    17    1
    11     2    23    1
    12    23    24   ar
    13    23    25   ar
    14     8     9    1
    15    10    13    1
    16    17    18   ar
    17    18    19   ar
    18    19    22   ar
    19    22    21   ar
    20    21    20   ar
    21    20    17   ar
    22     1     2   ar
    23     2     5   ar
    24     5     6   ar
    25     6     4   ar
    26     4     3   ar
    27     3     1   ar
