@<TRIPOS>MOLECULE
No_4166-gen_results/8p0m/2024-11-26-14-13-15/
 23 25 0 0 0
SMALL
GASTEIGER

@<TRIPOS>ATOM
      1 C         -28.0162   -0.8135   28.8779 C.ar    1  UNL1        0.0026
      2 C         -28.4690   -0.7850   29.8287 C.ar    1  UNL1        0.0795
      3 C         -26.5042   -0.7777   28.8766 C.ar    1  UNL1       -0.0176
      4 C         -25.6540   -0.6597   27.7191 C.3     1  UNL1        0.0523
      5 C         -27.9180   -0.9374   31.1824 C.ar    1  UNL1        0.0066
      6 C         -26.5423   -0.9399   31.2606 C.ar    1  UNL1       -0.0001
      7 C         -25.7832   -0.8935   30.1201 C.ar    1  UNL1       -0.0039
      8 C         -25.2204    0.6866   27.3939 C.ar    1  UNL1       -0.0214
      9 C         -25.3030    1.0787   26.0731 C.ar    1  UNL1       -0.0214
     10 C         -24.6597    1.5478   28.3172 C.ar    1  UNL1       -0.0042
     11 C         -24.1691    2.7901   27.8654 C.ar    1  UNL1       -0.0003
     12 C         -24.2496    3.1745   26.5389 C.ar    1  UNL1       -0.0003
     13 C         -24.8257    2.2690   25.6333 C.ar    1  UNL1       -0.0042
     14 C         -30.0412   -0.8454   30.0257 C.2     1  UNL1        0.3877
     15 O         -30.6582   -0.2196   29.2953 O.co2   1  UNL1       -0.2406
     16 O         -30.6050   -1.5846   30.9046 O.co2   1  UNL1       -0.2406
     17 C         -25.8641    0.2333   25.0349 C.3     1  UNL1        0.0523
     18 C         -27.3027    0.0175   25.0075 C.ar    1  UNL1       -0.0178
     19 C         -28.1276    0.8412   25.7682 C.ar    1  UNL1       -0.0039
     20 C         -29.5611    0.7330   25.6479 C.ar    1  UNL1       -0.0003
     21 C         -30.0327   -0.2465   24.8170 C.ar    1  UNL1       -0.0000
     22 C         -29.2215   -0.9724   23.9853 C.ar    1  UNL1       -0.0003
     23 C         -27.8757   -0.8310   24.0618 C.ar    1  UNL1       -0.0039
@<TRIPOS>BOND
     1     3     4    1
     2     4     8    1
     3     2    14    1
     4    14    15   ar
     5    14    16   ar
     6     9    17    1
     7    17    18    1
     8    18    19   ar
     9    19    20   ar
    10    20    21   ar
    11    21    22   ar
    12    22    23   ar
    13    23    18   ar
    14     1     2   ar
    15     2     5   ar
    16     5     6   ar
    17     6     7   ar
    18     7     3   ar
    19     3     1   ar
    20     8     9   ar
    21     9    13   ar
    22    13    12   ar
    23    12    11   ar
    24    11    10   ar
    25    10     8   ar
