@<TRIPOS>MOLECULE
No_4167-gen_results/8p0m/2024-11-26-14-13-15/
 35 37 0 0 0
SMALL
GASTEIGER

@<TRIPOS>ATOM
      1 C         -28.0162   -0.8135   28.8779 C.2     1  UNL1        0.0946
      2 C         -27.0636   -0.1190   28.6079 C.2     1  UNL1       -0.0147
      3 C         -25.7647   -0.3897   29.0360 C.3     1  UNL1        0.0247
      4 C         -24.5516    0.4058   28.7646 C.3     1  UNL1        0.0129
      5 C         -24.6957    1.4480   27.7988 C.3     1  UNL1        0.0963
      6 C         -25.9755    1.7250   27.3077 C.3     1  UNL1        0.0239
      7 C         -27.0718    1.0134   27.6535 C.3     1  UNL1        0.1234
      8 N         -28.6077   -0.5909   30.1098 N.2     1  UNL1       -0.2027
      9 C         -23.4939    2.1689   27.4794 C.3     1  UNL1        0.3975
     10 F         -23.6805    3.2221   26.8735 F       1  UNL1       -0.1701
     11 F         -22.6892    2.4696   28.5360 F       1  UNL1       -0.1701
     12 F         -22.6354    1.4275   26.6972 F       1  UNL1       -0.1701
     13 C         -29.5051   -0.3091   30.5743 C.2     1  UNL1        0.2996
     14 F         -29.7631   -0.4031   31.9371 F       1  UNL1       -0.1640
     15 N         -30.5640    0.1773   29.9231 N.pl3   1  UNL1       -0.1690
     16 C         -28.3867    1.3673   27.1088 C.2     1  UNL1        0.3681
     17 O         -28.8470    2.3657   27.5523 O.co2   1  UNL1       -0.2453
     18 O         -29.0147    0.4447   26.3983 O.co2   1  UNL1       -0.2453
     19 C         -31.8343    0.6182   30.4287 C.ar    1  UNL1        0.0743
     20 C         -32.5382    1.1596   29.7964 C.ar    1  UNL1        0.0166
     21 C         -32.5642    2.5498   29.7932 C.ar    1  UNL1        0.0013
     22 C         -32.1969    3.2209   31.0121 C.ar    1  UNL1        0.0001
     23 C         -32.1847    4.6115   31.1626 C.ar    1  UNL1        0.0000
     24 C         -31.7153    5.2107   32.3695 C.ar    1  UNL1        0.0000
     25 C         -31.2713    4.3061   33.3664 C.ar    1  UNL1        0.0000
     26 C         -31.2223    2.9686   33.2240 C.ar    1  UNL1        0.0000
     27 C         -31.6073    2.4162   32.0208 C.ar    1  UNL1        0.0013
     28 C         -31.6673    1.2588   31.8304 C.ar    1  UNL1        0.0166
     29 C         -25.4565   -1.5435   29.9654 C.3     1  UNL1        0.0275
     30 C         -24.4437   -2.3499   29.6799 C.2     1  UNL1       -0.0267
     31 C         -23.1701   -1.7773   29.9063 C.2     1  UNL1       -0.0077
     32 C         -24.5095   -3.6749   29.2601 C.3     1  UNL1        0.1108
     33 N         -25.6590   -4.2897   29.2624 N.3     1  UNL1       -0.2136
     34 C         -26.1544   -5.1214   29.9518 C.3     1  UNL1        0.0891
     35 C         -27.6574   -5.1737   30.1196 C.3     1  UNL1        0.0203
@<TRIPOS>BOND
     1     1     2    2
     2     2     3    1
     3     3     4    1
     4     4     5    1
     5     5     6    1
     6     2     7    1
     7     6     7    1
     8     1     8    1
     9     5     9    1
    10     9    10    1
    11     9    11    1
    12     9    12    1
    13     8    13    2
    14    13    14    1
    15    13    15    1
    16     7    16    1
    17    16    17   ar
    18    16    18   ar
    19    15    19    1
    20     3    29    1
    21    29    30    1
    22    30    31    2
    23    30    32    1
    24    32    33    1
    25    33    34    1
    26    34    35    1
    27    22    23   ar
    28    23    24   ar
    29    24    25   ar
    30    25    26   ar
    31    26    27   ar
    32    19    20   ar
    33    20    21   ar
    34    21    22   ar
    35    22    27   ar
    36    27    28   ar
    37    28    19   ar
