@<TRIPOS>MOLECULE
No_4168-gen_results/8p0m/2024-11-26-14-13-15/
 13 14 0 0 0
SMALL
GASTEIGER

@<TRIPOS>ATOM
      1 C         -28.0162   -0.8135   28.8779 C.ar    1  UNL1        0.0372
      2 C         -27.0636   -0.1189   28.6079 C.ar    1  UNL1        0.1417
      3 C         -26.8756    1.1325   28.9134 C.ar    1  UNL1        0.0169
      4 C         -27.9014    1.8066   29.6436 C.ar    1  UNL1       -0.0009
      5 C         -29.0458   -0.2316   29.7181 C.ar    1  UNL1        0.0031
      6 C         -28.9402    1.0517   30.0597 C.ar    1  UNL1       -0.0001
      7 O         -25.9795   -0.6907   27.8753 O.3     1  UNL1       -0.4503
      8 C         -24.9446    0.0551   27.3507 C.2     1  UNL1        0.1856
      9 C         -25.7322    1.9094   28.4194 C.3     1  UNL1        0.0605
     10 C         -24.7023    1.2863   27.7371 C.2     1  UNL1        0.0875
     11 C         -23.5251    1.9329   27.2187 C.1     1  UNL1        0.0996
     12 N         -22.3646    2.2812   27.2296 N.1     1  UNL1       -0.1910
     13 C         -25.5913    3.3381   28.2492 C.3     1  UNL1        0.0103
@<TRIPOS>BOND
     1     2     7    1
     2     7     8    1
     3     3     9    1
     4     8    10    2
     5     9    10    1
     6    10    11    1
     7    11    12    3
     8     9    13    1
     9     1     2   ar
    10     2     3   ar
    11     3     4   ar
    12     4     6   ar
    13     6     5   ar
    14     5     1   ar
