@<TRIPOS>MOLECULE
No_4169-gen_results/8p0m/2024-11-26-14-13-15/
 31 33 0 0 0
SMALL
GASTEIGER

@<TRIPOS>ATOM
      1 C         -28.0162   -0.8135   28.8779 C.ar    1  UNL1       -0.0044
      2 C         -27.0636   -0.1189   28.6079 C.ar    1  UNL1       -0.0256
      3 C         -26.8756    1.1325   28.9134 C.ar    1  UNL1       -0.0151
      4 C         -25.6883    1.9515   28.5672 C.3     1  UNL1        0.1340
      5 C         -24.6394    1.2834   27.8753 C.3     1  UNL1        0.0949
      6 C         -24.8068   -0.0513   27.6040 C.3     1  UNL1        0.0147
      7 C         -25.9019   -0.7670   27.9511 C.3     1  UNL1        0.0266
      8 C         -28.6455   -0.5282   30.2428 C.ar    1  UNL1        0.0061
      9 C         -28.9122    0.7961   30.4353 C.ar    1  UNL1        0.0757
     10 C         -29.7108    1.2648   31.4859 C.2     1  UNL1        0.3458
     11 C         -27.8834    1.6692   29.8269 C.ar    1  UNL1        0.0024
     12 C         -23.4539    1.9780   27.4266 C.2     1  UNL1        0.2611
     13 N         -23.1813    2.7515   26.5991 N.am    1  UNL1       -0.0878
     14 O         -22.3072    1.7232   28.2416 O.2     1  UNL1       -0.2716
     15 O         -30.6773    0.9703   31.7567 O.2     1  UNL1       -0.2445
     16 O         -29.1202    2.3128   32.1651 O.3     1  UNL1       -0.4182
     17 C         -25.5527    3.3704   28.9429 C.2     1  UNL1        0.3688
     18 O         -25.2972    3.7774   30.0654 O.co2   1  UNL1       -0.2453
     19 O         -26.1672    4.2278   28.1352 O.co2   1  UNL1       -0.2453
     20 C         -29.6690    3.0080   33.0383 C.2     1  UNL1        0.1785
     21 C         -30.2766    4.0834   32.6654 C.2     1  UNL1        0.0149
     22 C         -29.9492    4.9048   31.7741 C.3     1  UNL1        0.0340
     23 C         -28.5669    5.0983   31.4450 C.3     1  UNL1        0.0311
     24 C         -28.0826    6.4658   31.3900 C.ar    1  UNL1       -0.0218
     25 C         -27.9204    6.9571   30.0609 C.ar    1  UNL1       -0.0042
     26 C         -26.6247    7.3081   29.7341 C.ar    1  UNL1        0.0013
     27 C         -25.6595    7.6528   30.7378 C.ar    1  UNL1        0.0209
     28 C         -24.3869    8.1217   30.3985 C.2     1  UNL1        0.1221
     29 C         -25.7491    7.1757   32.0996 C.ar    1  UNL1        0.0013
     30 C         -27.0259    6.4519   32.3492 C.ar    1  UNL1       -0.0042
     31 N         -24.1706    8.4955   29.0861 N.2     1  UNL1       -0.1464
@<TRIPOS>BOND
     1     3     4    1
     2     4     5    1
     3     5     6    1
     4     2     7    1
     5     6     7    1
     6     9    10    1
     7     5    12    1
     8    12    13   am
     9    12    14    2
    10    10    15    2
    11    10    16    1
    12     4    17    1
    13    17    18   ar
    14    17    19   ar
    15    16    20    1
    16    20    21    2
    17    21    22    1
    18    22    23    1
    19    23    24    1
    20    28    31    2
    21    28    27    1
    22    24    25   ar
    23    25    26   ar
    24    26    27   ar
    25    27    29   ar
    26    29    30   ar
    27    30    24   ar
    28     1     2   ar
    29     2     3   ar
    30     3    11   ar
    31    11     9   ar
    32     9     8   ar
    33     8     1   ar
