@<TRIPOS>MOLECULE
No_417-gen_results/8p0m/2024-11-26-14-13-15/
 26 27 0 0 0
SMALL
GASTEIGER

@<TRIPOS>ATOM
      1 C         -28.0162   -0.8135   28.8779 C.3     1  UNL1        0.1298
      2 C         -27.0636   -0.1189   28.6079 C.ar    1  UNL1       -0.0093
      3 C         -27.0010    0.6913   27.4910 C.ar    1  UNL1        0.0515
      4 C         -25.8548    1.4825   27.0830 C.ar    1  UNL1        0.0089
      5 C         -24.6901    1.4526   27.8807 C.ar    1  UNL1        0.0568
      6 C         -24.7379    0.6010   29.0416 C.ar    1  UNL1        0.0043
      7 C         -25.8234   -0.1688   29.3887 C.ar    1  UNL1       -0.0037
      8 C         -28.7350   -0.4637   30.1419 C.3     1  UNL1        0.4017
      9 F         -29.5813   -1.4273   30.4801 F       1  UNL1       -0.1697
     10 F         -27.8948   -0.3662   31.1872 F       1  UNL1       -0.1697
     11 F         -29.4066    0.6470   29.9697 F       1  UNL1       -0.1697
     12 C         -23.5325    2.2436   27.6130 C.2     1  UNL1        0.2842
     13 N         -22.8640    2.6374   28.6406 N.am    1  UNL1       -0.0837
     14 O         -23.1389    2.5175   26.4494 O.2     1  UNL1       -0.2667
     15 C         -28.1297    0.7663   26.5799 C.2     1  UNL1        0.2648
     16 O         -28.1333    0.5602   25.4326 O.2     1  UNL1       -0.2684
     17 N         -29.3581    1.2010   27.1425 N.am    1  UNL1       -0.1968
     18 C         -30.5579    1.3071   26.3938 C.3     1  UNL1        0.1418
     19 C         -31.6289    1.3492   27.1441 C.ar    1  UNL1       -0.0006
     20 C         -31.7420    2.2417   27.9191 C.ar    1  UNL1       -0.0026
     21 C         -32.8175    2.2856   28.9380 C.ar    1  UNL1       -0.0003
     22 C         -33.8016    1.3024   28.8155 C.ar    1  UNL1       -0.0000
     23 C         -33.6920    0.3138   27.8770 C.ar    1  UNL1       -0.0003
     24 C         -32.5695    0.2946   27.0633 C.ar    1  UNL1       -0.0026
     25 C         -34.6920   -0.7537   27.8161 C.2     1  UNL1       -0.0000
     26 C         -35.5065   -1.0331   28.5245 C.2     1  UNL1       -0.0000
@<TRIPOS>BOND
     1     1     2    1
     2     1     8    1
     3     8     9    1
     4     8    10    1
     5     8    11    1
     6     5    12    1
     7    12    13   am
     8    12    14    2
     9     3    15    1
    10    15    16    2
    11    15    17   am
    12    17    18    1
    13    18    19    1
    14    23    25    1
    15    25    26    2
    16     2     3   ar
    17     3     4   ar
    18     4     5   ar
    19     5     6   ar
    20     6     7   ar
    21     7     2   ar
    22    19    20   ar
    23    20    21   ar
    24    21    22   ar
    25    22    23   ar
    26    23    24   ar
    27    24    19   ar
