@<TRIPOS>MOLECULE
No_4170-gen_results/8p0m/2024-11-26-14-13-15/
 13 14 0 0 0
SMALL
GASTEIGER

@<TRIPOS>ATOM
      1 C         -28.0162   -0.8135   28.8779 C.ar    1  UNL1        0.0296
      2 C         -27.0636   -0.1189   28.6079 C.ar    1  UNL1        0.0023
      3 C         -25.7647   -0.3897   29.0360 C.ar    1  UNL1        0.0001
      4 C         -25.4887   -1.1536   29.7171 C.ar    1  UNL1        0.0023
      5 C         -27.7606   -1.9034   29.8572 C.ar    1  UNL1        0.1401
      6 C         -26.4781   -2.1057   30.2362 C.ar    1  UNL1        0.0296
      7 F         -28.5998   -2.7992   30.2783 F       1  UNL1       -0.2042
      8 C         -24.6538    0.6581   28.5170 C.ar    1  UNL1        0.0000
      9 C         -23.3764    0.4640   29.0192 C.ar    1  UNL1        0.0000
     10 C         -22.3356    1.2996   28.5532 C.ar    1  UNL1        0.0000
     11 C         -22.6008    2.1868   27.4755 C.ar    1  UNL1        0.0000
     12 C         -24.7879    1.5305   27.4508 C.ar    1  UNL1        0.0000
     13 C         -23.7890    2.2780   26.9594 C.ar    1  UNL1        0.0000
@<TRIPOS>BOND
     1     5     7    1
     2     3     8    1
     3     1     2   ar
     4     2     3   ar
     5     3     4   ar
     6     4     6   ar
     7     6     5   ar
     8     5     1   ar
     9     8     9   ar
    10     9    10   ar
    11    10    11   ar
    12    11    13   ar
    13    13    12   ar
    14    12     8   ar
