@<TRIPOS>MOLECULE
No_4171-gen_results/8p0m/2024-11-26-14-13-15/
 19 20 0 0 0
SMALL
GASTEIGER

@<TRIPOS>ATOM
      1 C         -28.0162   -0.8135   28.8779 C.ar    1  UNL1       -0.0041
      2 C         -28.4690   -0.7850   29.8287 C.ar    1  UNL1       -0.0003
      3 C         -28.1816    0.4277   28.1134 C.ar    1  UNL1       -0.0183
      4 C         -28.9841    1.4155   28.5154 C.ar    1  UNL1       -0.0041
      5 C         -29.3802    0.1384   30.4612 C.ar    1  UNL1       -0.0000
      6 C         -29.5415    1.2736   29.7242 C.ar    1  UNL1       -0.0003
      7 C         -27.4586    0.4934   26.7701 C.3     1  UNL1        0.0737
      8 C         -26.0264    0.3840   26.7617 C.3     1  UNL1        0.0130
      9 C         -25.2257    1.3507   27.3721 C.3     1  UNL1        0.0243
     10 C         -24.3523    1.2062   28.1853 C.ar    1  UNL1       -0.0033
     11 C         -23.3438    2.2142   28.5217 C.ar    1  UNL1        0.0946
     12 N         -22.3243    1.8557   29.1838 N.ar    1  UNL1       -0.2426
     13 C         -24.0567   -0.0557   28.9607 C.ar    1  UNL1       -0.0011
     14 C         -22.9110   -0.2271   29.7425 C.ar    1  UNL1        0.0204
     15 C         -21.9977    0.8305   29.8909 C.ar    1  UNL1        0.0989
     16 C         -25.4738    2.6997   26.8012 C.3     1  UNL1        0.0047
     17 C         -28.2070    0.6637   25.6105 C.3     1  UNL1        0.2546
     18 N         -28.0459   -0.0939   24.6644 N.3     1  UNL1       -0.0939
     19 F         -29.1374    1.5254   25.5681 F       1  UNL1       -0.2160
@<TRIPOS>BOND
     1     3     7    1
     2     7     8    1
     3     8     9    1
     4     9    16    1
     5     7    17    1
     6    17    18    1
     7    17    19    1
     8     9    10    1
     9     1     2   ar
    10     2     5   ar
    11     5     6   ar
    12     6     4   ar
    13     4     3   ar
    14     3     1   ar
    15    10    11   ar
    16    11    12   ar
    17    12    15   ar
    18    15    14   ar
    19    14    13   ar
    20    13    10   ar
