@<TRIPOS>MOLECULE
No_4172-gen_results/8p0m/2024-11-26-14-13-15/
 13 14 0 0 0
SMALL
GASTEIGER

@<TRIPOS>ATOM
      1 C         -28.0162   -0.8135   28.8779 C.ar    1  UNL1        0.1021
      2 C         -27.0636   -0.1190   28.6079 C.ar    1  UNL1        0.0369
      3 C         -25.7647   -0.3897   29.0360 C.ar    1  UNL1        0.0848
      4 C         -24.5516    0.4058   28.7646 C.ar    1  UNL1        0.0258
      5 C         -24.6957    1.4480   27.7988 C.ar    1  UNL1        0.0813
      6 C         -26.0010    1.6784   27.2965 C.ar    1  UNL1        0.0067
      7 C         -27.0736    0.9682   27.6500 C.ar    1  UNL1        0.0033
      8 N         -27.8521   -1.7396   29.9423 N.ar    1  UNL1       -0.2224
      9 C         -26.6102   -2.2072   30.3101 C.ar    1  UNL1        0.1989
     10 N         -25.5461   -1.4642   29.9243 N.ar    1  UNL1       -0.2239
     11 C         -23.5118    2.2587   27.4657 C.2     1  UNL1        0.3878
     12 O         -23.5530    2.9714   26.3907 O.co2   1  UNL1       -0.2406
     13 O         -22.3720    2.1119   28.0498 O.co2   1  UNL1       -0.2406
@<TRIPOS>BOND
     1     5    11    1
     2    11    12   ar
     3    11    13   ar
     4     3     4   ar
     5     4     5   ar
     6     5     6   ar
     7     6     7   ar
     8     7     2   ar
     9     1     2   ar
    10     2     3   ar
    11     3    10   ar
    12    10     9   ar
    13     9     8   ar
    14     8     1   ar
