@<TRIPOS>MOLECULE
No_4173-gen_results/8p0m/2024-11-26-14-13-15/
 17 18 0 0 0
SMALL
GASTEIGER

@<TRIPOS>ATOM
      1 C         -28.0162   -0.8135   28.8779 C.ar    1  UNL1        0.0026
      2 C         -28.4690   -0.7850   29.8287 C.ar    1  UNL1        0.0795
      3 C         -26.5042   -0.7777   28.8766 C.ar    1  UNL1       -0.0176
      4 C         -25.6540   -0.6597   27.7191 C.3     1  UNL1        0.0535
      5 C         -27.9180   -0.9374   31.1824 C.ar    1  UNL1        0.0066
      6 C         -26.5423   -0.9399   31.2606 C.ar    1  UNL1       -0.0001
      7 C         -25.7832   -0.8935   30.1201 C.ar    1  UNL1       -0.0039
      8 C         -25.2204    0.6866   27.3939 C.ar    1  UNL1       -0.0072
      9 C         -25.3030    1.0787   26.0731 C.ar    1  UNL1        0.0540
     10 C         -24.7297    2.3383   25.6867 C.ar    1  UNL1        0.0111
     11 C         -24.0919    3.1193   26.6980 C.ar    1  UNL1        0.0008
     12 C         -24.4906    1.5258   28.2612 C.ar    1  UNL1       -0.0031
     13 C         -23.9466    2.6799   27.9003 C.ar    1  UNL1       -0.0003
     14 C         -30.0585   -0.7974   29.8557 C.2     1  UNL1        0.3877
     15 O         -30.4839   -0.2741   28.9315 O.co2   1  UNL1       -0.2406
     16 O         -30.7308   -1.2885   30.8070 O.co2   1  UNL1       -0.2406
     17 CL        -26.0124    0.2452   24.8640 Cl      1  UNL1       -0.0826
@<TRIPOS>BOND
     1     3     4    1
     2     4     8    1
     3     2    14    1
     4    14    15   ar
     5    14    16   ar
     6     9    17    1
     7     1     2   ar
     8     2     5   ar
     9     5     6   ar
    10     6     7   ar
    11     7     3   ar
    12     3     1   ar
    13     8     9   ar
    14     9    10   ar
    15    10    11   ar
    16    11    13   ar
    17    13    12   ar
    18    12     8   ar
