@<TRIPOS>MOLECULE
No_4174-gen_results/8p0m/2024-11-26-14-13-15/
 15 16 0 0 0
SMALL
GASTEIGER

@<TRIPOS>ATOM
      1 C         -28.0162   -0.8135   28.8779 C.2     1  UNL1       -0.0082
      2 C         -27.0636   -0.1189   28.6079 C.2     1  UNL1       -0.0419
      3 C         -26.9716    0.7139   27.5060 C.3     1  UNL1        0.0268
      4 C         -25.8205    1.4909   27.1160 C.3     1  UNL1        0.0304
      5 C         -24.6562    1.4242   27.9180 C.ar    1  UNL1       -0.0255
      6 C         -23.4598    2.1165   27.6160 C.ar    1  UNL1       -0.0046
      7 C         -22.3448    1.9937   28.4413 C.ar    1  UNL1       -0.0003
      8 C         -22.2164    0.7373   28.9666 C.ar    1  UNL1       -0.0003
      9 C         -23.2887   -0.1160   29.3252 C.ar    1  UNL1       -0.0043
     10 C         -24.5199    0.1976   28.7009 C.ar    1  UNL1       -0.0221
     11 C         -25.6987   -0.4206   29.2110 C.3     1  UNL1        0.0477
     12 C         -28.0242   -1.3693   30.2955 C.3     1  UNL1        0.1506
     13 N         -29.1282   -2.0159   30.7519 N.2     1  UNL1       -0.2687
     14 C         -29.8667   -1.4800   31.4601 C.2     1  UNL1        0.0675
     15 C         -30.0080   -0.5115   31.7059 C.3     1  UNL1        0.0529
@<TRIPOS>BOND
     1     1     2    2
     2     2     3    1
     3     3     4    1
     4     4     5    1
     5     2    11    1
     6    10    11    1
     7     1    12    1
     8    12    13    1
     9    13    14    2
    10    14    15    1
    11     5     6   ar
    12     6     7   ar
    13     7     8   ar
    14     8     9   ar
    15     9    10   ar
    16    10     5   ar
