@<TRIPOS>MOLECULE
No_4175-gen_results/8p0m/2024-11-26-14-13-15/
 28 30 0 0 0
SMALL
GASTEIGER

@<TRIPOS>ATOM
      1 C         -28.0162   -0.8135   28.8779 C.ar    1  UNL1        0.0046
      2 C         -27.0636   -0.1189   28.6079 C.ar    1  UNL1        0.0001
      3 C         -25.7647   -0.3897   29.0360 C.ar    1  UNL1        0.0000
      4 C         -25.5296   -1.5302   29.9014 C.ar    1  UNL1        0.0001
      5 C         -26.6888   -2.2893   30.1810 C.ar    1  UNL1        0.0046
      6 C         -27.8727   -1.9508   29.7373 C.ar    1  UNL1        0.0554
      7 C         -24.5491    0.4100   28.7341 C.ar    1  UNL1        0.0000
      8 C         -24.4789    1.1871   27.6843 C.ar    1  UNL1        0.0000
      9 C         -23.2716    1.8973   27.3731 C.ar    1  UNL1        0.0000
     10 C         -22.1063    1.7032   28.0412 C.ar    1  UNL1        0.0000
     11 C         -23.3188    0.1792   29.4669 C.ar    1  UNL1        0.0000
     12 C         -22.1165    0.8402   29.1011 C.ar    1  UNL1        0.0000
     13 C         -29.0352   -2.7858   30.1613 C.2     1  UNL1        0.2691
     14 O         -28.9637   -4.0092   30.2226 O.2     1  UNL1       -0.2680
     15 N         -30.1839   -2.1796   30.5229 N.am    1  UNL1       -0.1711
     16 C         -31.3440   -2.9578   30.9326 C.2     1  UNL1        0.1258
     17 C         -31.3445   -3.7452   31.8114 C.2     1  UNL1        0.0126
     18 C         -30.2874   -3.6777   32.7580 C.3     1  UNL1        0.1223
     19 CL        -29.7243   -4.9780   33.7072 Cl      1  UNL1       -0.1085
     20 C         -32.4410   -1.7992   31.0795 C.2     1  UNL1        0.2841
     21 N         -32.7008   -1.0211   30.1869 N.am    1  UNL1       -0.1743
     22 C         -32.5482   -1.0778   29.0000 C.ar    1  UNL1        0.0737
     23 C         -32.5900    0.1103   28.1383 C.ar    1  UNL1        0.0166
     24 C         -32.4217    0.1465   26.8239 C.ar    1  UNL1        0.0013
     25 C         -32.1199   -1.1042   26.1708 C.ar    1  UNL1        0.0001
     26 C         -32.0652   -2.2800   26.8978 C.ar    1  UNL1        0.0013
     27 C         -32.2311   -2.2252   28.2536 C.ar    1  UNL1        0.0166
     28 O         -33.0870   -1.8270   32.1819 O.2     1  UNL1       -0.2666
@<TRIPOS>BOND
     1     3     7    1
     2     6    13    1
     3    13    14    2
     4    13    15   am
     5    15    16    1
     6    16    17    2
     7    17    18    1
     8    18    19    1
     9    16    20    1
    10    20    21   am
    11    21    22    1
    12    20    28    2
    13     7     8   ar
    14     8     9   ar
    15     9    10   ar
    16    10    12   ar
    17    12    11   ar
    18    11     7   ar
    19     1     2   ar
    20     2     3   ar
    21     3     4   ar
    22     4     5   ar
    23     5     6   ar
    24     6     1   ar
    25    22    23   ar
    26    23    24   ar
    27    24    25   ar
    28    25    26   ar
    29    26    27   ar
    30    27    22   ar
