@<TRIPOS>MOLECULE
No_4176-gen_results/8p0m/2024-11-26-14-13-15/
 19 21 0 0 0
SMALL
GASTEIGER

@<TRIPOS>ATOM
      1 C         -28.0162   -0.8135   28.8779 C.ar    1  UNL1       -0.0000
      2 C         -27.0636   -0.1189   28.6079 C.ar    1  UNL1       -0.0003
      3 C         -25.7923   -0.4302   29.0761 C.ar    1  UNL1       -0.0000
      4 C         -24.5456    0.3494   28.8225 C.ar    1  UNL1       -0.0003
      5 C         -23.2409    0.0217   29.3323 C.ar    1  UNL1       -0.0000
      6 C         -27.8820   -1.8995   29.8633 C.ar    1  UNL1       -0.0000
      7 C         -26.6706   -2.3272   30.3212 C.ar    1  UNL1       -0.0000
      8 C         -25.5433   -1.5852   29.9316 C.ar    1  UNL1       -0.0000
      9 C         -22.1918    0.8302   29.0004 C.ar    1  UNL1       -0.0000
     10 C         -22.1472    1.7783   28.0287 C.ar    1  UNL1       -0.0000
     11 C         -24.5322    1.3987   27.8163 C.ar    1  UNL1       -0.0040
     12 C         -25.7399    1.6952   27.1553 C.ar    1  UNL1       -0.0218
     13 C         -23.3709    2.0781   27.4138 C.ar    1  UNL1       -0.0003
     14 C         -27.0657    0.9903   27.5858 C.ar    1  UNL1       -0.0040
     15 C         -28.1164    1.9603   27.9623 C.2     1  UNL1       -0.0003
     16 C         -25.8787    2.6627   26.1483 C.3     1  UNL1        0.0310
     17 C         -29.2409    1.7575   28.1962 C.2     1  UNL1       -0.0000
     18 C         -30.2226    2.7521   28.4958 C.2     1  UNL1       -0.0000
     19 C         -31.4857    2.5342   28.9320 C.2     1  UNL1       -0.0000
@<TRIPOS>BOND
     1    14    15    1
     2    12    16    1
     3    15    17    2
     4    17    18    1
     5    18    19    2
     6     4     5   ar
     7     5     9   ar
     8     9    10   ar
     9    10    13   ar
    10    13    11   ar
    11     1     2   ar
    12     3     8   ar
    13     8     7   ar
    14     7     6   ar
    15     6     1   ar
    16     2     3   ar
    17     3     4   ar
    18     4    11   ar
    19    11    12   ar
    20    12    14   ar
    21    14     2   ar
