@<TRIPOS>MOLECULE
No_4177-gen_results/8p0m/2024-11-26-14-13-15/
 14 15 0 0 0
SMALL
GASTEIGER

@<TRIPOS>ATOM
      1 C         -28.0162   -0.8135   28.8779 C.ar    1  UNL1        0.0031
      2 C         -27.0636   -0.1189   28.6079 C.ar    1  UNL1        0.0002
      3 C         -26.9716    0.7139   27.5060 C.ar    1  UNL1        0.0037
      4 C         -28.1053    0.7744   26.6421 C.ar    1  UNL1        0.0369
      5 C         -29.2008    0.1044   27.0527 C.ar    1  UNL1        0.1387
      6 C         -29.2096   -0.6029   28.1853 C.ar    1  UNL1        0.0369
      7 O         -30.2994    0.2279   26.2571 O.3     1  UNL1       -0.4714
      8 C         -25.7189   -0.2206   29.4011 C.ar    1  UNL1        0.0007
      9 C         -24.5693    0.1274   28.9001 C.ar    1  UNL1        0.0103
     10 C         -24.5868    1.0201   27.6932 C.ar    1  UNL1        0.0684
     11 C         -25.6916    1.2348   26.9867 C.ar    1  UNL1        0.0104
     12 C         -23.2517    1.6051   27.3252 C.1     1  UNL1        0.1004
     13 N         -22.4855    2.4130   27.5548 N.1     1  UNL1       -0.1908
     14 C         -30.3454   -0.4536   25.1431 C.3     1  UNL1        0.2525
@<TRIPOS>BOND
     1     5     7    1
     2    10    12    1
     3    12    13    3
     4     7    14    1
     5     1     2   ar
     6     3     4   ar
     7     4     5   ar
     8     5     6   ar
     9     6     1   ar
    10     2     3   ar
    11     3    11   ar
    12    11    10   ar
    13    10     9   ar
    14     9     8   ar
    15     8     2   ar
