@<TRIPOS>MOLECULE
No_4178-gen_results/8p0m/2024-11-26-14-13-15/
 14 15 0 0 0
SMALL
GASTEIGER

@<TRIPOS>ATOM
      1 F         -28.0727   -1.2542   28.5316 F       1  UNL1       -0.2041
      2 C         -27.3591   -0.3792   28.7224 C.ar    1  UNL1        0.1410
      3 C         -27.7014    0.7608   29.1249 C.ar    1  UNL1        0.0297
      4 C         -25.8844   -0.6918   28.4374 C.ar    1  UNL1        0.0410
      5 C         -24.9212    0.3779   28.6013 C.ar    1  UNL1        0.0599
      6 C         -26.7628    1.7840   29.2611 C.ar    1  UNL1        0.0031
      7 C         -25.3840    1.6194   29.0028 C.ar    1  UNL1        0.0115
      8 CL        -23.2882    0.1388   28.3300 Cl      1  UNL1       -0.0822
      9 C         -27.0955    3.2098   29.7002 C.ar    1  UNL1        0.0001
     10 C         -27.8676    3.9249   29.0637 C.ar    1  UNL1        0.0000
     11 C         -28.1727    5.3194   29.4705 C.ar    1  UNL1        0.0000
     12 C         -27.5762    5.8274   30.6105 C.ar    1  UNL1        0.0000
     13 C         -26.4064    3.7323   30.8840 C.ar    1  UNL1        0.0000
     14 C         -26.6583    5.0215   31.3260 C.ar    1  UNL1        0.0000
@<TRIPOS>BOND
     1     1     2    1
     2     5     8    1
     3     6     9    1
     4     2     3   ar
     5     3     6   ar
     6     6     7   ar
     7     7     5   ar
     8     5     4   ar
     9     4     2   ar
    10     9    10   ar
    11    10    11   ar
    12    11    12   ar
    13    12    14   ar
    14    14    13   ar
    15    13     9   ar
