@<TRIPOS>MOLECULE
No_4179-gen_results/8p0m/2024-11-26-14-13-15/
 11 11 0 0 0
SMALL
GASTEIGER

@<TRIPOS>ATOM
      1 C         -28.0162   -0.8135   28.8779 C.3     1  UNL1        0.1386
      2 C         -27.0636   -0.1189   28.6079 C.ar    1  UNL1       -0.0006
      3 C         -26.8756    1.1325   28.9134 C.ar    1  UNL1       -0.0017
      4 C         -25.6883    1.9515   28.5672 C.ar    1  UNL1        0.0111
      5 C         -24.6394    1.2834   27.8753 C.ar    1  UNL1        0.0577
      6 C         -24.8068   -0.0513   27.6040 C.ar    1  UNL1        0.0111
      7 C         -25.9019   -0.7670   27.9511 C.ar    1  UNL1       -0.0017
      8 N         -29.1472   -0.2191   28.9761 N.pl3   1  UNL1       -0.2315
      9 CL        -23.2337    2.0937   27.4494 Cl      1  UNL1       -0.0822
     10 C         -30.1608   -0.7126   29.7070 C.2     1  UNL1        0.0805
     11 C         -31.4643   -0.2427   29.5389 C.2     1  UNL1        0.0188
@<TRIPOS>BOND
     1     1     8    1
     2     5     9    1
     3     8    10    1
     4    10    11    2
     5     1     2    1
     6     2     3   ar
     7     3     4   ar
     8     4     5   ar
     9     5     6   ar
    10     6     7   ar
    11     7     2   ar
