@<TRIPOS>MOLECULE
No_418-gen_results/8p0m/2024-11-26-14-13-15/
 25 27 0 0 0
SMALL
GASTEIGER

@<TRIPOS>ATOM
      1 C         -28.0162   -0.8135   28.8779 C.ar    1  UNL1       -0.0001
      2 C         -28.4690   -0.7850   29.8287 C.ar    1  UNL1        0.0711
      3 C         -26.5042   -0.7777   28.8766 C.ar    1  UNL1       -0.0178
      4 C         -25.8103   -0.8531   30.1028 C.ar    1  UNL1       -0.0039
      5 C         -27.9906   -0.8916   31.2257 C.ar    1  UNL1        0.0038
      6 C         -26.6042   -0.8676   31.2652 C.ar    1  UNL1       -0.0004
      7 C         -30.0739   -0.8360   29.8615 C.3     1  UNL1        0.4186
      8 F         -30.5916   -1.8281   30.0957 F       1  UNL1       -0.1659
      9 F         -30.4130   -0.3874   28.6120 F       1  UNL1       -0.1659
     10 F         -30.5351    0.1554   30.6423 F       1  UNL1       -0.1659
     11 C         -25.6286   -0.7158   27.6753 C.3     1  UNL1        0.0527
     12 C         -25.2380    0.6549   27.3319 C.ar    1  UNL1       -0.0134
     13 C         -25.5444    1.1810   26.1306 C.ar    1  UNL1        0.0499
     14 C         -24.4084    1.4416   28.1903 C.ar    1  UNL1       -0.0038
     15 C         -23.8188    2.5841   27.6948 C.ar    1  UNL1       -0.0003
     16 C         -25.0178    2.3409   25.6299 C.ar    1  UNL1        0.0042
     17 C         -24.1342    3.1075   26.4750 C.ar    1  UNL1        0.0001
     18 C         -26.4294    0.4761   25.2131 C.2     1  UNL1        0.2487
     19 N         -27.7442    0.4298   25.2737 N.am    1  UNL1       -0.2761
     20 C         -28.5649   -0.1380   24.4276 C.3     1  UNL1        0.0937
     21 C         -29.9173    0.1928   24.4928 C.3     1  UNL1        0.0216
     22 C         -28.4369    1.5770   25.9302 C.3     1  UNL1        0.0937
     23 C         -29.7537    1.5908   25.8920 C.3     1  UNL1        0.0216
     24 C         -30.5381    1.0351   25.2172 C.3     1  UNL1        0.0035
     25 O         -25.8558   -0.3793   24.4283 O.2     1  UNL1       -0.2699
@<TRIPOS>BOND
     1     2     7    1
     2     7     8    1
     3     7     9    1
     4     7    10    1
     5     3    11    1
     6    11    12    1
     7    13    18    1
     8    18    19   am
     9    19    20    1
    10    19    22    1
    11    21    24    1
    12    23    24    1
    13    18    25    2
    14    20    21    1
    15    23    22    1
    16     1     2   ar
    17     2     5   ar
    18     5     6   ar
    19     6     4   ar
    20     4     3   ar
    21     3     1   ar
    22    12    13   ar
    23    13    16   ar
    24    16    17   ar
    25    17    15   ar
    26    15    14   ar
    27    14    12   ar
