@<TRIPOS>MOLECULE
No_4180-gen_results/8p0m/2024-11-26-14-13-15/
 14 15 0 0 0
SMALL
GASTEIGER

@<TRIPOS>ATOM
      1 C         -28.0162   -0.8135   28.8779 C.ar    1  UNL1        0.0001
      2 C         -27.0636   -0.1189   28.6079 C.ar    1  UNL1       -0.0002
      3 C         -26.9716    0.7139   27.5060 C.ar    1  UNL1       -0.0019
      4 C         -28.1053    0.7744   26.6421 C.ar    1  UNL1        0.0044
      5 C         -29.2041    0.1179   27.0477 C.ar    1  UNL1        0.0567
      6 C         -29.2127   -0.6088   28.1281 C.ar    1  UNL1        0.0046
      7 C         -30.4805    0.1928   26.3238 C.2     1  UNL1        0.2842
      8 N         -30.5368    0.1362   25.1332 N.am    1  UNL1       -0.0837
      9 O         -31.5884    0.2297   26.9352 O.2     1  UNL1       -0.2667
     10 C         -25.6847    1.4038   27.0911 C.2     1  UNL1        0.0036
     11 C         -24.5441    1.0653   27.7328 C.2     1  UNL1        0.0179
     12 C         -23.3252    1.8183   27.3671 C.2     1  UNL1        0.0933
     13 N         -23.4869    2.5787   26.2537 N.2     1  UNL1       -0.2641
     14 C         -25.3775    2.3338   26.0500 C.3     1  UNL1        0.1519
@<TRIPOS>BOND
     1     5     7    1
     2     7     8   am
     3     7     9    2
     4     3    10    1
     5    10    11    2
     6    11    12    1
     7    12    13    2
     8    10    14    1
     9    13    14    1
    10     1     2   ar
    11     2     3   ar
    12     3     4   ar
    13     4     5   ar
    14     5     6   ar
    15     6     1   ar
