@<TRIPOS>MOLECULE
No_4181-gen_results/8p0m/2024-11-26-14-13-15/
 27 29 0 0 0
SMALL
GASTEIGER

@<TRIPOS>ATOM
      1 C         -28.0162   -0.8135   28.8779 C.2     1  UNL1       -0.0081
      2 C         -27.0636   -0.1189   28.6079 C.2     1  UNL1       -0.0369
      3 C         -26.9716    0.7139   27.5060 C.3     1  UNL1        0.0850
      4 C         -25.8205    1.4909   27.1160 C.3     1  UNL1        0.0178
      5 C         -24.6562    1.4242   27.9180 C.3     1  UNL1        0.0680
      6 C         -24.6847    0.5901   29.0659 C.3     1  UNL1        0.0100
      7 C         -25.8099   -0.1265   29.3338 C.3     1  UNL1        0.0226
      8 C         -28.7093   -0.4588   30.1754 C.ar    1  UNL1       -0.0006
      9 C         -29.8413   -0.5172   30.3363 C.ar    1  UNL1       -0.0000
     10 C         -30.5309   -0.1456   31.6014 C.ar    1  UNL1       -0.0000
     11 C         -23.4600    2.1894   27.5849 C.3     1  UNL1        0.3184
     12 F         -22.9885    2.7588   28.5761 F       1  UNL1       -0.1984
     13 F         -23.1371    2.4866   26.4961 F       1  UNL1       -0.1984
     14 C         -29.7287    0.2557   32.6642 C.ar    1  UNL1       -0.0000
     15 C         -28.3540    0.2571   32.5069 C.ar    1  UNL1       -0.0000
     16 C         -27.8382   -0.0911   31.3400 C.ar    1  UNL1       -0.0000
     17 C         -28.1500    0.9133   26.6360 C.2     1  UNL1        0.1945
     18 N         -28.1844    0.7014   25.4570 N.am    1  UNL1       -0.1509
     19 F         -29.0432    1.7085   27.1120 F       1  UNL1       -0.1905
     20 C         -28.8180    0.2286   24.8228 C.2     1  UNL1        0.2706
     21 C         -30.1255   -0.0825   25.2389 C.ar    1  UNL1        0.0554
     22 C         -30.9945   -0.9406   24.4142 C.ar    1  UNL1        0.0046
     23 C         -32.2003   -1.4078   24.9308 C.ar    1  UNL1        0.0001
     24 C         -32.6785   -1.0404   26.1596 C.ar    1  UNL1        0.0000
     25 C         -31.8563   -0.1494   26.9106 C.ar    1  UNL1        0.0001
     26 C         -30.6929    0.2035   26.5149 C.ar    1  UNL1        0.0046
     27 O         -28.5966   -0.1593   23.6097 O.2     1  UNL1       -0.2680
@<TRIPOS>BOND
     1     1     2    2
     2     2     3    1
     3     3     4    1
     4     4     5    1
     5     5     6    1
     6     2     7    1
     7     6     7    1
     8     1     8    1
     9     5    11    1
    10    11    12    1
    11    11    13    1
    12     3    17    1
    13    17    18    2
    14    17    19    1
    15    18    20    1
    16    20    21    1
    17    20    27    2
    18     8     9   ar
    19     9    10   ar
    20    10    14   ar
    21    14    15   ar
    22    15    16   ar
    23    16     8   ar
    24    21    22   ar
    25    22    23   ar
    26    23    24   ar
    27    24    25   ar
    28    25    26   ar
    29    26    21   ar
