@<TRIPOS>MOLECULE
No_4183-gen_results/8p0m/2024-11-26-14-13-15/
 17 18 0 0 0
SMALL
GASTEIGER

@<TRIPOS>ATOM
      1 C         -28.0162   -0.8135   28.8779 C.ar    1  UNL1       -0.0009
      2 C         -28.4690   -0.7850   29.8287 C.ar    1  UNL1       -0.0002
      3 C         -27.0871    0.2903   28.6377 C.ar    1  UNL1        0.0214
      4 C         -26.9102    0.8486   27.4199 C.3     1  UNL1        0.2633
      5 C         -27.8863   -0.5049   31.0945 C.ar    1  UNL1       -0.0000
      6 C         -26.8583    0.4896   31.0361 C.ar    1  UNL1       -0.0002
      7 C         -26.4721    0.9027   29.7780 C.ar    1  UNL1       -0.0009
      8 C         -25.6318    0.7699   27.0485 C.ar    1  UNL1        0.0214
      9 C         -25.1502    1.4388   25.8495 C.ar    1  UNL1       -0.0009
     10 C         -23.7779    1.5005   25.5713 C.ar    1  UNL1       -0.0002
     11 C         -22.8488    1.3107   26.6200 C.ar    1  UNL1       -0.0000
     12 C         -23.3276    0.8344   27.8705 C.ar    1  UNL1       -0.0002
     13 C         -24.6382    0.5726   28.0771 C.ar    1  UNL1       -0.0009
     14 C         -27.6353    2.0372   27.1928 C.2     1  UNL1        0.4015
     15 F         -27.2921   -0.1447   26.4023 F       1  UNL1       -0.2193
     16 O         -27.3372    3.1845   27.5588 O.co2   1  UNL1       -0.2420
     17 O         -28.9371    1.9172   26.8374 O.co2   1  UNL1       -0.2420
@<TRIPOS>BOND
     1     3     4    1
     2     4     8    1
     3     4    14    1
     4     4    15    1
     5    14    16   ar
     6    14    17   ar
     7     8     9   ar
     8     9    10   ar
     9    10    11   ar
    10    11    12   ar
    11    12    13   ar
    12    13     8   ar
    13     1     2   ar
    14     2     5   ar
    15     5     6   ar
    16     6     7   ar
    17     7     3   ar
    18     3     1   ar
