@<TRIPOS>MOLECULE
No_4184-gen_results/8p0m/2024-11-26-14-13-15/
 26 28 0 0 0
SMALL
GASTEIGER

@<TRIPOS>ATOM
      1 C         -28.0162   -0.8135   28.8779 C.ar    1  UNL1        0.0006
      2 C         -28.4690   -0.7850   29.8287 C.ar    1  UNL1        0.0536
      3 C         -26.5455   -0.8762   28.8500 C.ar    1  UNL1       -0.0176
      4 C         -25.8041   -1.0324   30.0571 C.ar    1  UNL1       -0.0039
      5 C         -27.9437   -0.9869   31.2075 C.ar    1  UNL1        0.0045
      6 C         -26.5825   -1.0386   31.2231 C.ar    1  UNL1       -0.0002
      7 C         -30.0606   -0.7371   29.9024 C.2     1  UNL1        0.2528
      8 O         -30.7252   -1.5544   30.2697 O.2     1  UNL1       -0.2696
      9 N         -30.5245    0.5663   29.6971 N.am    1  UNL1       -0.2534
     10 C         -31.9302    0.7637   29.6237 C.3     1  UNL1        0.1203
     11 C         -29.6836    1.6912   29.3394 C.ar    1  UNL1        0.0542
     12 C         -29.6388    2.6436   30.3983 C.ar    1  UNL1        0.0149
     13 C         -29.3215    3.6648   30.3157 C.ar    1  UNL1        0.0013
     14 C         -28.6617    4.1388   29.0076 C.ar    1  UNL1       -0.0002
     15 C         -29.2035    1.9814   28.1161 C.ar    1  UNL1        0.0149
     16 C         -28.6266    3.2575   27.9527 C.ar    1  UNL1        0.0013
     17 C         -25.7015   -0.8161   27.6081 C.3     1  UNL1        0.0526
     18 C         -25.2942    0.5528   27.2786 C.ar    1  UNL1       -0.0178
     19 C         -24.1590    1.0191   27.8646 C.ar    1  UNL1       -0.0039
     20 C         -23.6166    2.2791   27.4367 C.ar    1  UNL1       -0.0003
     21 C         -25.9662    1.3776   26.4146 C.ar    1  UNL1       -0.0039
     22 C         -25.4916    2.5771   25.9697 C.ar    1  UNL1       -0.0003
     23 C         -24.3002    3.0964   26.5563 C.ar    1  UNL1       -0.0000
     24 C         -28.0387    5.4984   28.8451 C.2     1  UNL1       -0.0046
     25 C         -28.5987    6.5132   28.9659 C.2     1  UNL1       -0.0258
     26 C         -27.9356    7.8399   28.8359 C.3     1  UNL1        0.0307
@<TRIPOS>BOND
     1     2     7    1
     2     7     8    2
     3     7     9   am
     4     9    10    1
     5     9    11    1
     6     3    17    1
     7    17    18    1
     8    14    24    1
     9    24    25    2
    10    25    26    1
    11    11    12   ar
    12    12    13   ar
    13    13    14   ar
    14    14    16   ar
    15    16    15   ar
    16    15    11   ar
    17     1     2   ar
    18     2     5   ar
    19     5     6   ar
    20     6     4   ar
    21     4     3   ar
    22     3     1   ar
    23    18    19   ar
    24    19    20   ar
    25    20    23   ar
    26    23    22   ar
    27    22    21   ar
    28    21    18   ar
