@<TRIPOS>MOLECULE
No_4185-gen_results/8p0m/2024-11-26-14-13-15/
 24 27 0 0 0
SMALL
GASTEIGER

@<TRIPOS>ATOM
      1 C         -28.0162   -0.8135   28.8779 C.ar    1  UNL1        0.0013
      2 C         -28.4690   -0.7850   29.8287 C.ar    1  UNL1        0.0001
      3 C         -27.0871    0.2903   28.6377 C.ar    1  UNL1        0.0165
      4 C         -26.7676    1.0274   29.4716 C.ar    1  UNL1        0.0706
      5 C         -28.2764    0.0268   31.0145 C.ar    1  UNL1        0.0013
      6 C         -27.3287    1.0538   30.7535 C.ar    1  UNL1        0.0165
      7 N         -25.8185    2.0997   29.2484 N.pl3   1  UNL1       -0.2094
      8 C         -25.0705    2.2177   28.5021 C.ar    1  UNL1        0.1048
      9 C         -24.8319    3.3833   27.6354 C.ar    1  UNL1        0.1631
     10 C         -24.0667    1.1623   28.1715 C.ar    1  UNL1        0.0198
     11 C         -23.7047    0.2019   29.1211 C.ar    1  UNL1        0.0014
     12 C         -22.9702   -0.8860   28.8812 C.ar    1  UNL1        0.0000
     13 N         -25.4742    4.5066   27.9063 N.ar    1  UNL1       -0.2879
     14 N         -24.2353    3.3431   26.4057 N.ar    1  UNL1       -0.2251
     15 C         -26.0417    4.8505   29.0555 C.ar    1  UNL1        0.0815
     16 C         -23.3657    2.3350   26.1178 C.ar    1  UNL1        0.1006
     17 C         -23.1854    1.3125   27.0557 C.ar    1  UNL1        0.0221
     18 C         -24.0564    0.3520   30.5529 C.ar    1  UNL1        0.0000
     19 C         -23.7584   -0.6669   31.4898 C.ar    1  UNL1        0.0000
     20 C         -23.0668   -1.7666   31.1164 C.ar    1  UNL1        0.0000
     21 C         -22.7144   -1.9435   29.7795 C.ar    1  UNL1        0.0000
     22 C         -26.9074    6.1110   28.9394 C.ar    1  UNL1        0.0206
     23 C         -26.8534    6.6083   27.8071 C.ar    1  UNL1        0.0206
     24 C         -25.8770    5.5793   26.9848 C.ar    1  UNL1        0.0815
@<TRIPOS>BOND
     1     4     7    1
     2    10    11    1
     3     9    13    1
     4    13    15   ar
     5    15    22   ar
     6    22    23   ar
     7    13    24   ar
     8    23    24   ar
     9     7     8    1
    10     8     9   ar
    11     9    14   ar
    12    14    16   ar
    13    16    17   ar
    14    17    10   ar
    15    10     8   ar
    16     1     2   ar
    17     2     5   ar
    18     5     6   ar
    19     6     4   ar
    20     4     3   ar
    21     3     1   ar
    22    11    12   ar
    23    12    21   ar
    24    21    20   ar
    25    20    19   ar
    26    19    18   ar
    27    18    11   ar
