@<TRIPOS>MOLECULE
No_4186-gen_results/8p0m/2024-11-26-14-13-15/
 35 38 0 0 0
SMALL
GASTEIGER

@<TRIPOS>ATOM
      1 O         -28.1229   -1.3353   28.4874 O.2     1  UNL1       -0.2742
      2 C         -28.5208   -0.4363   29.0779 C.2     1  UNL1        0.2338
      3 C         -28.5894    0.5916   28.9464 C.3     1  UNL1        0.1119
      4 N         -28.7865   -0.8872   30.4874 N.am    1  UNL1       -0.2584
      5 C         -27.7841    1.2822   27.9869 C.ar    1  UNL1       -0.0131
      6 C         -26.4272    1.0397   27.9945 C.ar    1  UNL1       -0.0034
      7 C         -25.6366    1.3015   28.8292 C.ar    1  UNL1        0.0027
      8 C         -25.6662    2.3617   29.5902 C.ar    1  UNL1        0.0369
      9 C         -24.5873    2.6534   30.5760 C.ar    1  UNL1        0.1391
     10 C         -23.5939    1.7402   30.6987 C.ar    1  UNL1        0.0369
     11 C         -23.4228    0.6437   29.9517 C.ar    1  UNL1        0.0031
     12 C         -24.4444    0.3581   28.9889 C.ar    1  UNL1        0.0002
     13 C         -29.2649   -0.0693   31.5578 C.ar    1  UNL1        0.0538
     14 C         -26.0406    0.4439   26.6350 C.ar    1  UNL1       -0.0003
     15 C         -28.5676   -2.3263   30.9143 C.3     1  UNL1        0.0983
     16 C         -26.8450    0.5903   25.5091 C.ar    1  UNL1       -0.0000
     17 C         -28.3935    2.2438   27.1816 C.ar    1  UNL1       -0.0038
     18 C         -27.9797    1.4721   25.7067 C.ar    1  UNL1       -0.0003
     19 O         -24.6938    3.7456   31.3972 O.3     1  UNL1       -0.4706
     20 C         -25.1527    3.7343   32.6340 C.3     1  UNL1        0.2320
     21 C         -26.3350    4.5853   32.7265 C.ar    1  UNL1        0.0214
     22 C         -27.1645    4.2559   33.6562 C.ar    1  UNL1       -0.0007
     23 C         -28.4426    4.8923   33.7734 C.ar    1  UNL1        0.0000
     24 C         -28.7121    5.9753   32.9147 C.ar    1  UNL1        0.0066
     25 C         -27.7889    6.3094   31.9509 C.ar    1  UNL1        0.0796
     26 C         -26.5968    5.6238   31.8566 C.ar    1  UNL1        0.0059
     27 C         -28.0148    7.4151   30.9978 C.2     1  UNL1        0.3877
     28 O         -27.6931    7.4427   29.9692 O.co2   1  UNL1       -0.2406
     29 O         -28.3276    8.5926   31.6450 O.co2   1  UNL1       -0.2406
     30 C         -30.4837    0.4459   31.4733 C.ar    1  UNL1        0.0149
     31 C         -30.8053    1.4692   32.3762 C.ar    1  UNL1        0.0013
     32 C         -30.0752    1.5863   33.5762 C.ar    1  UNL1        0.0001
     33 C         -28.8395    0.9419   33.6663 C.ar    1  UNL1        0.0013
     34 C         -28.3783    0.1438   32.6734 C.ar    1  UNL1        0.0149
     35 C         -27.4348   -2.7594   30.6046 C.3     1  UNL1        0.0237
@<TRIPOS>BOND
     1     1     2    2
     2     2     3    1
     3     2     4   am
     4     3     5    1
     5     6     7    1
     6     4    13    1
     7     4    15    1
     8     9    19    1
     9    19    20    1
    10    20    21    1
    11    25    27    1
    12    27    28   ar
    13    27    29   ar
    14    15    35    1
    15     5     6   ar
    16     6    14   ar
    17    14    16   ar
    18    16    18   ar
    19    18    17   ar
    20    17     5   ar
    21    13    30   ar
    22    30    31   ar
    23    31    32   ar
    24    32    33   ar
    25    33    34   ar
    26    34    13   ar
    27     7     8   ar
    28     8     9   ar
    29     9    10   ar
    30    10    11   ar
    31    11    12   ar
    32    12     7   ar
    33    21    22   ar
    34    22    23   ar
    35    23    24   ar
    36    24    25   ar
    37    25    26   ar
    38    26    21   ar
