@<TRIPOS>MOLECULE
No_4187-gen_results/8p0m/2024-11-26-14-13-15/
 11 11 0 0 0
SMALL
GASTEIGER

@<TRIPOS>ATOM
      1 C         -28.0162   -0.8135   28.8779 C.ar    1  UNL1        0.0066
      2 C         -28.4690   -0.7850   29.8287 C.ar    1  UNL1        0.0346
      3 C         -26.5455   -0.8762   28.8500 C.ar    1  UNL1        0.0044
      4 C         -25.8041   -1.0324   30.0571 C.ar    1  UNL1        0.0715
      5 C         -27.9437   -0.9869   31.2075 C.ar    1  UNL1        0.0066
      6 C         -26.5825   -1.0386   31.2231 C.ar    1  UNL1        0.0044
      7 BR        -30.4103   -0.6110   29.6925 Br      1  UNL1       -0.0490
      8 C         -24.3622   -1.1384   30.0751 C.3     1  UNL1        0.4186
      9 F         -23.9704   -2.0221   30.6908 F       1  UNL1       -0.1659
     10 F         -23.8455    0.0257   30.6650 F       1  UNL1       -0.1659
     11 F         -23.8054   -1.1115   28.8497 F       1  UNL1       -0.1659
@<TRIPOS>BOND
     1     2     7    1
     2     4     8    1
     3     8     9    1
     4     8    10    1
     5     8    11    1
     6     1     2   ar
     7     2     5   ar
     8     5     6   ar
     9     6     4   ar
    10     4     3   ar
    11     3     1   ar
