@<TRIPOS>MOLECULE
No_4189-gen_results/8p0m/2024-11-26-14-13-15/
 14 14 0 0 0
SMALL
GASTEIGER

@<TRIPOS>ATOM
      1 C         -28.0162   -0.8135   28.8779 C.3     1  UNL1        0.4186
      2 C         -27.0636   -0.1189   28.6079 C.ar    1  UNL1        0.0723
      3 C         -27.0010    0.6913   27.4910 C.ar    1  UNL1        0.0041
      4 C         -25.8548    1.4825   27.0830 C.ar    1  UNL1        0.0074
      5 C         -24.6901    1.4526   27.8807 C.ar    1  UNL1        0.0903
      6 C         -24.7379    0.6010   29.0416 C.ar    1  UNL1        0.0640
      7 C         -25.8234   -0.1688   29.3887 C.ar    1  UNL1        0.0155
      8 F         -29.0018   -0.5559   28.2415 F       1  UNL1       -0.1659
      9 F         -28.3558   -0.6840   30.2688 F       1  UNL1       -0.1659
     10 C         -23.5136    2.2142   27.5784 C.2     1  UNL1        0.3886
     11 O         -22.4029    1.9937   28.1407 O.co2   1  UNL1       -0.2405
     12 O         -23.4192    2.7679   26.3312 O.co2   1  UNL1       -0.2405
     13 CL        -23.3254    0.4738   30.0394 Cl      1  UNL1       -0.0820
     14 F         -27.7077   -2.1221   28.8808 F       1  UNL1       -0.1659
@<TRIPOS>BOND
     1     1     2    1
     2     1     8    1
     3     1     9    1
     4     5    10    1
     5    10    11   ar
     6    10    12   ar
     7     6    13    1
     8     1    14    1
     9     2     3   ar
    10     3     4   ar
    11     4     5   ar
    12     5     6   ar
    13     6     7   ar
    14     7     2   ar
