@<TRIPOS>MOLECULE
No_419-gen_results/8p0m/2024-11-26-14-13-15/
 13 13 0 0 0
SMALL
GASTEIGER

@<TRIPOS>ATOM
      1 C         -28.0162   -0.8135   28.8779 C.3     1  UNL1        0.1386
      2 C         -27.0636   -0.1189   28.6079 C.ar    1  UNL1       -0.0007
      3 C         -26.9287    1.1713   29.0083 C.ar    1  UNL1       -0.0024
      4 C         -25.7702    2.0341   28.6884 C.ar    1  UNL1        0.0046
      5 C         -24.7141    1.4431   27.9188 C.ar    1  UNL1        0.0593
      6 C         -24.8590    0.0783   27.5836 C.ar    1  UNL1        0.0046
      7 C         -25.9647   -0.6606   27.9164 C.ar    1  UNL1       -0.0024
      8 N         -29.1778   -0.3051   28.9638 N.pl3   1  UNL1       -0.2315
      9 C         -30.1765   -0.9070   29.7369 C.2     1  UNL1        0.0805
     10 C         -23.5156    2.1616   27.5794 C.2     1  UNL1        0.2968
     11 N         -22.3984    1.6414   27.2171 N.2     1  UNL1       -0.1025
     12 O         -23.6433    3.4515   27.4581 O.2     1  UNL1       -0.2636
     13 C         -31.5242   -0.6416   29.5288 C.2     1  UNL1        0.0188
@<TRIPOS>BOND
     1     1     2    1
     2     1     8    1
     3     8     9    1
     4     5    10    1
     5    10    11    2
     6    10    12    1
     7     9    13    2
     8     2     3   ar
     9     3     4   ar
    10     4     5   ar
    11     5     6   ar
    12     6     7   ar
    13     7     2   ar
