@<TRIPOS>MOLECULE
No_4191-gen_results/8p0m/2024-11-26-14-13-15/
 20 21 0 0 0
SMALL
GASTEIGER

@<TRIPOS>ATOM
      1 O         -28.1229   -1.3353   28.4874 O.2     1  UNL1       -0.2742
      2 C         -27.4806   -0.4044   28.7094 C.2     1  UNL1        0.2338
      3 C         -26.3804   -0.0867   27.9394 C.3     1  UNL1        0.1119
      4 N         -27.6664    0.4468   29.8988 N.am    1  UNL1       -0.2566
      5 C         -25.1773   -0.4388   28.3946 C.ar    1  UNL1       -0.0131
      6 C         -23.9281   -0.2469   27.6677 C.ar    1  UNL1       -0.0038
      7 C         -22.6980   -0.4046   28.4363 C.ar    1  UNL1       -0.0003
      8 C         -22.7797   -1.1458   29.6708 C.ar    1  UNL1       -0.0000
      9 C         -23.9693   -1.4630   30.2503 C.ar    1  UNL1       -0.0003
     10 C         -25.1522   -1.1248   29.6547 C.ar    1  UNL1       -0.0038
     11 C         -27.0810    1.6754   30.1039 C.ar    1  UNL1        0.0541
     12 C         -27.1252    2.5397   29.1264 C.ar    1  UNL1        0.0215
     13 C         -26.1069    3.3869   29.0277 C.ar    1  UNL1        0.0810
     14 C         -25.2308    3.6493   30.1867 C.ar    1  UNL1        0.0067
     15 C         -25.2804    2.7492   31.2273 C.ar    1  UNL1        0.0015
     16 C         -26.1986    1.6548   31.1843 C.ar    1  UNL1        0.0149
     17 C         -28.9888    0.2866   30.4687 C.3     1  UNL1        0.1200
     18 C         -25.9773    4.5107   28.0184 C.2     1  UNL1        0.3878
     19 O         -25.0077    4.2936   27.2389 O.co2   1  UNL1       -0.2406
     20 O         -26.7901    5.3246   27.8219 O.co2   1  UNL1       -0.2406
@<TRIPOS>BOND
     1     1     2    2
     2     2     3    1
     3     2     4   am
     4     4    11    1
     5     4    17    1
     6    13    18    1
     7    18    19   ar
     8    18    20   ar
     9     3     5    1
    10    11    12   ar
    11    12    13   ar
    12    13    14   ar
    13    14    15   ar
    14    15    16   ar
    15    16    11   ar
    16     5     6   ar
    17     6     7   ar
    18     7     8   ar
    19     8     9   ar
    20     9    10   ar
    21    10     5   ar
