@<TRIPOS>MOLECULE
No_4192-gen_results/8p0m/2024-11-26-14-13-15/
 21 21 0 0 0
SMALL
GASTEIGER

@<TRIPOS>ATOM
      1 C         -28.0162   -0.8135   28.8779 C.ar    1  UNL1        0.0784
      2 C         -28.4690   -0.7850   29.8287 C.3     1  UNL1        0.3439
      3 C         -28.1960    0.3478   28.0550 C.ar    1  UNL1        0.0164
      4 C         -27.4421    0.5100   26.7946 C.ar    1  UNL1        0.0683
      5 C         -26.1689   -0.0794   26.6787 C.ar    1  UNL1        0.0712
      6 C         -25.7312   -0.9607   27.6875 C.ar    1  UNL1        0.0490
      7 C         -26.5043   -1.2222   28.7582 C.ar    1  UNL1        0.1407
      8 F         -29.6729   -0.4971   29.9081 F       1  UNL1       -0.1931
      9 F         -28.1882   -1.7131   30.8431 F       1  UNL1       -0.1931
     10 CL        -25.1343    0.2396   25.3745 Cl      1  UNL1       -0.0813
     11 CL        -27.9010    1.6024   25.5567 Cl      1  UNL1       -0.0814
     12 O         -25.9890   -2.1787   29.6053 O.3     1  UNL1       -0.4756
     13 C         -24.5915   -2.2061   29.7387 C.3     1  UNL1        0.2056
     14 C         -23.9419   -1.2908   30.6064 C.3     1  UNL1        0.0481
     15 C         -24.4096   -0.9885   31.8093 C.3     1  UNL1        0.0042
     16 C         -22.8171   -0.5610   30.0258 C.3     1  UNL1        0.0294
     17 C         -21.9139   -0.9249   29.2557 C.2     1  UNL1       -0.0295
     18 C         -20.9279   -0.0946   28.6811 C.2     1  UNL1       -0.0146
     19 C         -21.0849    0.9427   27.7489 C.3     1  UNL1        0.1310
     20 C         -22.3181    1.7736   27.7690 C.1     1  UNL1        0.0779
     21 N         -23.1743    2.2194   27.1783 N.1     1  UNL1       -0.1955
@<TRIPOS>BOND
     1     2     8    1
     2     2     9    1
     3     5    10    1
     4     4    11    1
     5     7    12    1
     6    12    13    1
     7    13    14    1
     8    14    15    1
     9    14    16    1
    10    16    17    1
    11    17    18    2
    12    18    19    1
    13    19    20    1
    14    20    21    3
    15     2     1    1
    16     1     3   ar
    17     3     4   ar
    18     4     5   ar
    19     5     6   ar
    20     6     7   ar
    21     7     1   ar
