@<TRIPOS>MOLECULE
No_4193-gen_results/8p0m/2024-11-26-14-13-15/
 12 13 0 0 0
SMALL
GASTEIGER

@<TRIPOS>ATOM
      1 C         -28.0162   -0.8135   28.8779 C.ar    1  UNL1       -0.0000
      2 C         -28.4690   -0.7850   29.8287 C.ar    1  UNL1       -0.0000
      3 C         -26.5455   -0.8762   28.8500 C.ar    1  UNL1       -0.0003
      4 C         -25.8041   -1.0324   30.0571 C.ar    1  UNL1       -0.0029
      5 C         -26.5373   -1.0386   31.2171 C.ar    1  UNL1       -0.0003
      6 C         -27.8843   -0.9532   31.1862 C.ar    1  UNL1       -0.0000
      7 C         -24.3655   -1.1134   30.0483 C.2     1  UNL1       -0.0077
      8 C         -23.6254   -0.9434   29.0230 C.2     1  UNL1       -0.0120
      9 C         -22.1628   -0.8291   29.0965 C.3     1  UNL1        0.0948
     10 C         -23.6191   -0.2385   31.0307 C.3     1  UNL1        0.1150
     11 N         -22.3043   -0.1859   30.8730 N.3     1  UNL1       -0.2103
     12 C         -21.5589   -0.2715   29.7173 C.3     1  UNL1        0.0236
@<TRIPOS>BOND
     1     4     7    1
     2     7     8    2
     3     8     9    1
     4     7    10    1
     5     9    11    1
     6    10    11    1
     7     9    12    1
     8     1     2   ar
     9     2     6   ar
    10     6     5   ar
    11     5     4   ar
    12     4     3   ar
    13     3     1   ar
