@<TRIPOS>MOLECULE
No_4194-gen_results/8p0m/2024-11-26-14-13-15/
 7 6 0 0 0
SMALL
GASTEIGER

@<TRIPOS>ATOM
      1 C         -28.0162   -0.8135   28.8779 C.2     1  UNL1       -0.0300
      2 C         -27.0636   -0.1190   28.6079 C.2     1  UNL1       -0.0260
      3 C         -26.8756    1.1325   28.9134 C.3     1  UNL1        0.0526
      4 C         -27.9014    1.8066   29.6436 C.2     1  UNL1       -0.0092
      5 C         -28.9449    1.0388   30.0360 C.2     1  UNL1        0.0640
      6 C         -29.0273   -0.2890   29.7051 C.3     1  UNL1        0.0304
      7 CL        -30.1894    1.7124   30.9603 Cl      1  UNL1       -0.0817
@<TRIPOS>BOND
     1     1     2    2
     2     2     3    1
     3     3     4    1
     4     4     5    2
     5     1     6    1
     6     5     7    1
