@<TRIPOS>MOLECULE
No_4195-gen_results/8p0m/2024-11-26-14-13-15/
 11 11 0 0 0
SMALL
GASTEIGER

@<TRIPOS>ATOM
      1 O         -28.1229   -1.3353   28.4874 O.2     1  UNL1       -0.2727
      2 C         -27.0637   -0.8242   28.8687 C.2     1  UNL1        0.2529
      3 C         -26.9592    0.0926   29.7582 C.3     1  UNL1        0.1917
      4 N         -25.8472   -1.5491   28.6589 N.am    1  UNL1       -0.2049
      5 C         -27.8673    0.9590   30.1109 C.2     1  UNL1        0.3979
      6 C         -24.5647   -1.1378   29.0392 C.3     1  UNL1        0.1152
      7 C         -24.4510   -0.0172   29.7492 C.3     1  UNL1        0.0245
      8 C         -25.5598    0.6710   30.1599 C.3     1  UNL1        0.0236
      9 N         -28.3852    0.9503   31.1854 N.2     1  UNL1        0.1923
     10 N         -28.5596    1.5918   29.1196 N.pl3   1  UNL1       -0.0263
     11 C         -29.6559    2.3544   29.4008 C.3     1  UNL1        0.3059
@<TRIPOS>BOND
     1     1     2    2
     2     2     3    1
     3     2     4   am
     4     3     5    1
     5     4     6    1
     6     3     8    1
     7     7     8    1
     8     5     9    2
     9     5    10    1
    10    10    11    1
    11     7     6    1
