@<TRIPOS>MOLECULE
No_4196-gen_results/8p0m/2024-11-26-14-13-15/
 13 14 0 0 0
SMALL
GASTEIGER

@<TRIPOS>ATOM
      1 C         -28.0162   -0.8135   28.8779 C.ar    1  UNL1        0.0000
      2 C         -28.4690   -0.7850   29.8287 C.ar    1  UNL1        0.0000
      3 C         -27.1356    0.2359   28.5352 C.ar    1  UNL1        0.0000
      4 C         -26.3351    0.2900   27.2835 C.ar    1  UNL1        0.0002
      5 C         -28.3692    0.1957   30.9236 C.ar    1  UNL1        0.0000
      6 C         -27.5158    1.2655   30.6540 C.ar    1  UNL1        0.0000
      7 C         -26.8411    1.2942   29.4761 C.ar    1  UNL1        0.0002
      8 C         -25.3614    0.7752   26.9672 C.ar    1  UNL1        0.0066
      9 C         -24.8304    1.7670   28.0167 C.ar    1  UNL1        0.0798
     10 C         -25.5667    2.0016   29.2020 C.ar    1  UNL1        0.0066
     11 C         -23.6195    2.6088   27.6650 C.2     1  UNL1        0.3878
     12 O         -22.9730    2.4244   26.6066 O.co2   1  UNL1       -0.2406
     13 O         -22.7774    2.7887   28.6061 O.co2   1  UNL1       -0.2406
@<TRIPOS>BOND
     1     9    11    1
     2    11    12   ar
     3    11    13   ar
     4     1     2   ar
     5     2     5   ar
     6     5     6   ar
     7     6     7   ar
     8     3     1   ar
     9     3     4   ar
    10     4     8   ar
    11     8     9   ar
    12     9    10   ar
    13    10     7   ar
    14     7     3   ar
