@<TRIPOS>MOLECULE
No_4197-gen_results/8p0m/2024-11-26-14-13-15/
 11 11 0 0 0
SMALL
GASTEIGER

@<TRIPOS>ATOM
      1 C         -28.0162   -0.8135   28.8779 C.ar    1  UNL1        0.0113
      2 C         -28.4690   -0.7850   29.8287 C.ar    1  UNL1        0.0577
      3 C         -26.5455   -0.8762   28.8500 C.ar    1  UNL1        0.0047
      4 C         -25.8041   -1.0324   30.0571 C.ar    1  UNL1        0.0715
      5 C         -27.9437   -0.9869   31.2075 C.ar    1  UNL1        0.0113
      6 C         -26.5825   -1.0386   31.2231 C.ar    1  UNL1        0.0047
      7 CL        -30.2809   -0.7232   29.8834 Cl      1  UNL1       -0.0822
      8 C         -24.3690   -1.1185   30.0640 C.3     1  UNL1        0.4186
      9 F         -23.8515    0.0061   30.5199 F       1  UNL1       -0.1659
     10 F         -23.7794   -1.2653   28.8563 F       1  UNL1       -0.1659
     11 F         -23.8889   -2.0965   30.9070 F       1  UNL1       -0.1659
@<TRIPOS>BOND
     1     2     7    1
     2     4     8    1
     3     8     9    1
     4     8    10    1
     5     8    11    1
     6     1     2   ar
     7     2     5   ar
     8     5     6   ar
     9     6     4   ar
    10     4     3   ar
    11     3     1   ar
