@<TRIPOS>MOLECULE
No_4198-gen_results/8p0m/2024-11-26-14-13-15/
 13 14 0 0 0
SMALL
GASTEIGER

@<TRIPOS>ATOM
      1 C         -28.0162   -0.8135   28.8779 C.ar    1  UNL1        0.0375
      2 C         -28.4690   -0.7850   29.8287 C.ar    1  UNL1        0.1453
      3 C         -26.5042   -0.7777   28.8766 C.ar    1  UNL1        0.0031
      4 C         -25.8103   -0.8531   30.1028 C.ar    1  UNL1        0.0002
      5 C         -27.9906   -0.8916   31.2257 C.ar    1  UNL1        0.0375
      6 C         -26.6042   -0.8676   31.2652 C.ar    1  UNL1        0.0031
      7 O         -29.9385   -0.8194   29.8358 O.3     1  UNL1       -0.4535
      8 C         -30.5356   -0.1119   28.9448 C.ar    1  UNL1        0.1453
      9 C         -31.4855    0.7958   29.2937 C.ar    1  UNL1        0.0375
     10 C         -32.1617    1.5442   28.3189 C.ar    1  UNL1        0.0031
     11 C         -31.8780    1.2627   26.9609 C.ar    1  UNL1        0.0002
     12 C         -30.9630    0.3321   26.5964 C.ar    1  UNL1        0.0031
     13 C         -30.2731   -0.3740   27.5664 C.ar    1  UNL1        0.0375
@<TRIPOS>BOND
     1     2     7    1
     2     7     8    1
     3     8     9   ar
     4     9    10   ar
     5    10    11   ar
     6    11    12   ar
     7    12    13   ar
     8    13     8   ar
     9     1     2   ar
    10     2     5   ar
    11     5     6   ar
    12     6     4   ar
    13     4     3   ar
    14     3     1   ar
