@<TRIPOS>MOLECULE
No_42-gen_results/8p0m/2024-11-26-14-13-15/
 33 35 0 0 0
SMALL
GASTEIGER

@<TRIPOS>ATOM
      1 O         -28.1229   -1.3353   28.4874 O.2     1  UNL1       -0.2728
      2 C         -27.4806   -0.4044   28.7094 C.2     1  UNL1        0.2463
      3 C         -26.3804   -0.0867   27.9394 C.3     1  UNL1        0.1621
      4 N         -27.8993    0.6459   29.6321 N.am    1  UNL1       -0.2775
      5 N         -25.2331   -0.5875   28.2500 N.ar    1  UNL1       -0.3196
      6 C         -24.8978   -1.6924   28.7297 C.ar    1  UNL1        0.0762
      7 C         -23.5314   -2.0560   29.0939 C.ar    1  UNL1        0.0201
      8 C         -23.9307    0.1071   27.9418 C.ar    1  UNL1        0.0602
      9 C         -22.8900   -0.7900   28.6593 C.ar    1  UNL1        0.0187
     10 C         -27.2645    1.9030   29.8632 C.3     1  UNL1        0.1025
     11 C         -27.5849    2.4311   30.8545 C.3     1  UNL1        0.0980
     12 C         -28.5798    2.1255   31.7371 C.3     1  UNL1        0.0126
     13 C         -29.1845    0.8993   31.5457 C.3     1  UNL1        0.0221
     14 C         -28.7992    0.0826   30.5354 C.3     1  UNL1        0.0935
     15 C         -26.6334    0.0159   26.4500 C.3     1  UNL1        0.0344
     16 C         -23.5921    1.3727   27.5454 C.2     1  UNL1        0.0158
     17 C         -22.3292    1.8153   27.3566 C.2     1  UNL1        0.0015
     18 C         -24.6305    2.2072   26.9830 C.2     1  UNL1        0.0014
     19 C         -24.3905    3.5152   26.5357 C.2     1  UNL1        0.0001
     20 C         -25.4287    4.3973   26.3126 C.ar    1  UNL1        0.0002
     21 C         -26.7342    3.8385   26.4465 C.ar    1  UNL1        0.0066
     22 C         -27.8032    4.6957   26.3322 C.ar    1  UNL1        0.0798
     23 C         -27.6054    6.0746   26.4366 C.ar    1  UNL1        0.0066
     24 C         -26.3399    6.6462   26.5209 C.ar    1  UNL1        0.0002
     25 C         -25.2405    5.8273   26.5246 C.ar    1  UNL1        0.0000
     26 C         -29.1670    4.1967   26.2580 C.2     1  UNL1        0.3878
     27 O         -29.4255    3.4339   25.4905 O.co2   1  UNL1       -0.2406
     28 O         -29.9089    4.2480   27.3926 O.co2   1  UNL1       -0.2406
     29 C         -27.0111    3.9147   31.0148 C.2     1  UNL1        0.2426
     30 O         -26.0887    4.2399   30.3556 O.2     1  UNL1       -0.2733
     31 N         -27.2294    4.5871   32.1718 N.am    1  UNL1       -0.2054
     32 C         -26.6014    5.8905   32.4363 C.3     1  UNL1        0.1152
     33 C         -25.9422    6.4559   31.5272 C.3     1  UNL1        0.0252
@<TRIPOS>BOND
     1     1     2    2
     2     2     3    1
     3     2     4   am
     4     3     5    1
     5     5     6   ar
     6     6     7   ar
     7     5     8   ar
     8     7     9   ar
     9     8     9   ar
    10     4    10    1
    11    11    12    1
    12     4    14    1
    13    13    14    1
    14     3    15    1
    15     8    16    1
    16    16    17    2
    17    16    18    1
    18    18    19    2
    19    19    20    1
    20    22    26    1
    21    26    27   ar
    22    26    28   ar
    23    11    29    1
    24    29    30    2
    25    29    31   am
    26    31    32    1
    27    32    33    1
    28    10    11    1
    29    12    13    1
    30    20    21   ar
    31    21    22   ar
    32    22    23   ar
    33    23    24   ar
    34    24    25   ar
    35    25    20   ar
