@<TRIPOS>MOLECULE
No_420-gen_results/8p0m/2024-11-26-14-13-15/
 28 31 0 0 0
SMALL
GASTEIGER

@<TRIPOS>ATOM
      1 O         -28.1229   -1.3353   28.4874 O.2     1  UNL1       -0.2723
      2 C         -27.4806   -0.4044   28.7094 C.2     1  UNL1        0.2575
      3 C         -27.1904    0.2460   29.5268 C.3     1  UNL1        0.1818
      4 N         -26.6021   -0.1576   27.5515 N.am    1  UNL1       -0.1602
      5 C         -25.6421    0.9031   27.5822 C.ar    1  UNL1        0.1520
      6 C         -25.5004    1.6142   28.7368 C.ar    1  UNL1        0.0124
      7 C         -26.2553    1.3158   29.8133 C.3     1  UNL1        0.0497
      8 N         -24.8956    1.1459   26.4881 N.ar    1  UNL1       -0.2112
      9 C         -23.8815    2.1227   26.6390 C.ar    1  UNL1        0.1711
     10 C         -23.6445    2.7856   27.7321 C.ar    1  UNL1        0.0374
     11 C         -24.4089    2.5903   28.7808 C.ar    1  UNL1        0.0015
     12 C         -28.0829   -0.0743   30.8641 C.2     1  UNL1        0.3302
     13 N         -22.9751    2.4906   25.6162 N.pl3   1  UNL1       -0.1072
     14 O         -27.6781   -0.4198   31.7899 O.2     1  UNL1       -0.2492
     15 O         -29.3352    0.2001   30.6196 O.3     1  UNL1       -0.4237
     16 C         -30.3174   -0.4619   31.3529 C.ar    1  UNL1        0.1515
     17 C         -31.2527   -0.8825   30.6747 C.ar    1  UNL1        0.0750
     18 C         -32.3083   -1.6222   31.3262 C.ar    1  UNL1        0.1483
     19 C         -32.2775   -1.7433   32.7626 C.ar    1  UNL1        0.0377
     20 C         -31.1732   -1.2087   33.3994 C.ar    1  UNL1        0.0063
     21 C         -30.1797   -0.5724   32.7280 C.ar    1  UNL1        0.0378
     22 O         -33.4132   -2.0794   30.6850 O.3     1  UNL1       -0.4534
     23 C         -33.4450   -2.4792   29.6005 C.ar    1  UNL1        0.1453
     24 C         -33.8185   -2.0190   28.7766 C.ar    1  UNL1        0.0375
     25 C         -32.7900   -3.8561   29.3878 C.ar    1  UNL1        0.0375
     26 C         -32.6685   -4.4136   28.1421 C.ar    1  UNL1        0.0031
     27 C         -33.7847   -2.4909   27.3048 C.ar    1  UNL1        0.0031
     28 C         -33.1951   -3.7048   27.0665 C.ar    1  UNL1        0.0002
@<TRIPOS>BOND
     1     1     2    2
     2     2     3    1
     3     2     4   am
     4     4     5    1
     5     6     7    1
     6     3    12    1
     7     9    13    1
     8    12    14    2
     9    12    15    1
    10    15    16    1
    11    18    22    1
    12    22    23    1
    13     3     7    1
    14     5     6   ar
    15     6    11   ar
    16    11    10   ar
    17    10     9   ar
    18     9     8   ar
    19     8     5   ar
    20    23    24   ar
    21    24    27   ar
    22    27    28   ar
    23    28    26   ar
    24    26    25   ar
    25    25    23   ar
    26    16    17   ar
    27    17    18   ar
    28    18    19   ar
    29    19    20   ar
    30    20    21   ar
    31    21    16   ar
