@<TRIPOS>MOLECULE
No_4200-gen_results/8p0m/2024-11-26-14-13-15/
 8 8 0 0 0
SMALL
GASTEIGER

@<TRIPOS>ATOM
      1 C         -28.0162   -0.8135   28.8779 C.ar    1  UNL1        0.0123
      2 C         -28.4690   -0.7850   29.8287 C.ar    1  UNL1        0.0577
      3 C         -26.5042   -0.7777   28.8766 C.ar    1  UNL1        0.0123
      4 C         -25.8103   -0.8531   30.1028 C.ar    1  UNL1        0.0577
      5 C         -27.9906   -0.8916   31.2257 C.ar    1  UNL1        0.0123
      6 C         -26.6042   -0.8676   31.2652 C.ar    1  UNL1        0.0123
      7 CL        -24.1648   -0.7915   30.1717 Cl      1  UNL1       -0.0822
      8 CL        -30.3253   -0.8413   29.8260 Cl      1  UNL1       -0.0822
@<TRIPOS>BOND
     1     4     7    1
     2     2     8    1
     3     1     2   ar
     4     2     5   ar
     5     5     6   ar
     6     6     4   ar
     7     4     3   ar
     8     3     1   ar
