@<TRIPOS>MOLECULE
No_4201-gen_results/8p0m/2024-11-26-14-13-15/
 18 18 0 0 0
SMALL
GASTEIGER

@<TRIPOS>ATOM
      1 F         -28.0727   -1.2542   28.5316 F       1  UNL1       -0.2252
      2 C         -27.0607   -0.6291   28.8721 C.3     1  UNL1        0.2597
      3 C         -26.1528   -1.1557   29.4537 C.3     1  UNL1        0.2064
      4 C         -24.8778   -0.5788   29.8639 C.3     1  UNL1        0.0614
      5 C         -24.7426    0.8273   29.4808 C.3     1  UNL1        0.1468
      6 C         -25.7883    1.3927   28.7628 C.3     1  UNL1        0.2312
      7 C         -26.9145    0.7309   28.4427 C.2     1  UNL1        0.2193
      8 F         -25.6039    2.6973   28.4244 F       1  UNL1       -0.2286
      9 O         -26.1897   -2.4943   29.9052 O.2     1  UNL1       -0.4696
     10 C         -25.3943   -3.4242   29.2283 C.2     1  UNL1        0.2182
     11 C         -24.2255   -2.9985   28.6941 C.2     1  UNL1        0.0471
     12 C         -25.8559   -4.7804   29.2943 C.2     1  UNL1        0.4211
     13 O         -26.9658   -4.9903   29.9207 O.co2   1  UNL1       -0.2371
     14 O         -25.2455   -5.6668   28.8215 O.co2   1  UNL1       -0.2371
     15 C         -23.5034    1.5225   29.8841 C.2     1  UNL1        0.3676
     16 O         -23.1429    1.4910   31.0122 O.co2   1  UNL1       -0.2456
     17 O         -22.8435    2.1154   28.9655 O.co2   1  UNL1       -0.2456
     18 O         -27.8877    1.3235   27.7321 O.2     1  UNL1       -0.2902
@<TRIPOS>BOND
     1     1     2    1
     2     3     4    1
     3     5     6    1
     4     2     7    1
     5     6     7    1
     6     6     8    1
     7     3     9    1
     8     9    10    1
     9    10    11    2
    10    10    12    1
    11    12    13   ar
    12    12    14   ar
    13     5    15    1
    14    15    16   ar
    15    15    17   ar
    16     7    18    2
    17     2     3    1
    18     4     5    1
