@<TRIPOS>MOLECULE
No_4202-gen_results/8p0m/2024-11-26-14-13-15/
 10 10 0 0 0
SMALL
GASTEIGER

@<TRIPOS>ATOM
      1 O         -28.1229   -1.3353   28.4874 O.2     1  UNL1       -0.2730
      2 C         -27.0637   -0.8242   28.8687 C.2     1  UNL1        0.2450
      3 C         -25.9464   -1.0396   28.8492 C.3     1  UNL1        0.0998
      4 C         -25.3522   -2.2524   28.5471 C.2     1  UNL1       -0.0219
      5 N         -27.2898    0.4084   29.7412 N.am    1  UNL1       -0.2052
      6 C         -26.3317    1.2563   30.1238 C.3     1  UNL1        0.1152
      7 C         -24.9948    0.8121   30.0126 C.3     1  UNL1        0.0243
      8 C         -24.7074   -0.3271   29.5111 C.3     1  UNL1        0.0153
      9 C         -24.0261   -2.7523   28.8671 C.2     1  UNL1       -0.0299
     10 C         -23.0188   -1.9817   29.2964 C.3     1  UNL1        0.0304
@<TRIPOS>BOND
     1     1     2    2
     2     2     3    1
     3     3     4    1
     4     2     5   am
     5     6     7    1
     6     3     8    1
     7     4     9    2
     8     9    10    1
     9     8     7    1
    10     6     5    1
