@<TRIPOS>MOLECULE
No_4203-gen_results/8p0m/2024-11-26-14-13-15/
 17 18 0 0 0
SMALL
GASTEIGER

@<TRIPOS>ATOM
      1 C         -28.0162   -0.8135   28.8779 C.ar    1  UNL1        0.0390
      2 C         -27.0636   -0.1190   28.6079 C.ar    1  UNL1        0.0031
      3 C         -26.8756    1.1325   28.9134 C.ar    1  UNL1        0.0000
      4 C         -25.6883    1.9515   28.5672 C.ar    1  UNL1        0.0039
      5 C         -24.6394    1.2834   27.8753 C.ar    1  UNL1        0.0714
      6 C         -24.8068   -0.0513   27.6040 C.ar    1  UNL1        0.0039
      7 C         -25.9019   -0.7670   27.9511 C.ar    1  UNL1        0.0000
      8 C         -28.0678   -1.4475   30.2707 C.ar    1  UNL1        0.0032
      9 C         -29.1713   -2.2907   30.6779 C.ar    1  UNL1        0.0002
     10 C         -23.4510    2.0020   27.4793 C.3     1  UNL1        0.4186
     11 F         -23.4290    2.5211   26.4427 F       1  UNL1       -0.1659
     12 F         -23.0286    2.8884   28.4753 F       1  UNL1       -0.1659
     13 F         -22.3202    1.1271   27.5193 F       1  UNL1       -0.1659
     14 C         -30.3530   -1.9339   30.1997 C.ar    1  UNL1        0.0033
     15 C         -30.5515   -1.0492   29.7677 C.ar    1  UNL1        0.0420
     16 C         -29.4437    0.0368   29.1228 C.ar    1  UNL1        0.1956
     17 O         -29.8258    0.6224   27.9253 O.3     1  UNL1       -0.2866
@<TRIPOS>BOND
     1     5    10    1
     2    10    11    1
     3    10    12    1
     4    10    13    1
     5    16    17    1
     6     1     2    1
     7     1     8   ar
     8     8     9   ar
     9     9    14   ar
    10    14    15   ar
    11    15    16   ar
    12    16     1   ar
    13     2     3   ar
    14     3     4   ar
    15     4     5   ar
    16     5     6   ar
    17     6     7   ar
    18     7     2   ar
