@<TRIPOS>MOLECULE
No_4205-gen_results/8p0m/2024-11-26-14-13-15/
 16 16 0 0 0
SMALL
GASTEIGER

@<TRIPOS>ATOM
      1 C         -28.0162   -0.8135   28.8779 C.3     1  UNL1        0.3411
      2 C         -27.0636   -0.1190   28.6079 C.ar    1  UNL1        0.0458
      3 C         -26.9287    1.1713   29.0083 C.ar    1  UNL1        0.0304
      4 C         -25.7702    2.0341   28.6884 C.ar    1  UNL1        0.1360
      5 C         -24.7141    1.4431   27.9188 C.ar    1  UNL1        0.0051
      6 C         -24.8590    0.0783   27.5836 C.ar    1  UNL1       -0.0022
      7 C         -25.9647   -0.6606   27.9164 C.ar    1  UNL1        0.0010
      8 F         -29.0591   -0.5087   28.2818 F       1  UNL1       -0.1933
      9 F         -27.9950   -1.8369   29.6552 F       1  UNL1       -0.1933
     10 C         -23.5400    2.1438   27.5689 C.3     1  UNL1        0.0302
     11 C         -22.2446    1.6810   27.5315 C.3     1  UNL1        0.0767
     12 C         -23.8257    3.3710   26.7953 C.3     1  UNL1        0.0049
     13 C         -21.7710    0.9092   28.6244 C.3     1  UNL1        0.3189
     14 F         -22.2126    0.9928   29.6910 F       1  UNL1       -0.1984
     15 F         -20.9690   -0.0589   28.3485 F       1  UNL1       -0.1984
     16 F         -25.7291    3.2459   29.0131 F       1  UNL1       -0.2045
@<TRIPOS>BOND
     1     1     2    1
     2     1     8    1
     3     1     9    1
     4     5    10    1
     5    10    11    1
     6    10    12    1
     7    11    13    1
     8    13    14    1
     9    13    15    1
    10     4    16    1
    11     2     3   ar
    12     3     4   ar
    13     4     5   ar
    14     5     6   ar
    15     6     7   ar
    16     7     2   ar
