@<TRIPOS>MOLECULE
No_4206-gen_results/8p0m/2024-11-26-14-13-15/
 16 18 0 0 0
SMALL
GASTEIGER

@<TRIPOS>ATOM
      1 F         -28.0727   -1.2542   28.5316 F       1  UNL1       -0.2042
      2 C         -27.0607   -0.6291   28.8721 C.ar    1  UNL1        0.1402
      3 C         -26.3579   -0.0711   28.0115 C.ar    1  UNL1        0.0309
      4 C         -25.0715    0.5530   28.2555 C.ar    1  UNL1        0.0175
      5 C         -24.5772    0.4803   29.5696 C.ar    1  UNL1        0.0706
      6 C         -25.3317   -0.2027   30.5060 C.ar    1  UNL1        0.0188
      7 C         -26.4956   -0.7357   30.1606 C.ar    1  UNL1        0.0310
      8 C         -24.2570    1.2519   27.2615 C.2     1  UNL1        0.0014
      9 C         -23.9865    2.3149   27.2246 C.2     1  UNL1        0.0013
     10 C         -24.4174    3.2321   28.3386 C.ar    1  UNL1        0.0153
     11 C         -25.0145    4.5701   27.9563 C.ar    1  UNL1        0.0013
     12 C         -25.5397    5.3816   28.9608 C.ar    1  UNL1        0.0001
     13 C         -25.7053    4.8675   30.2590 C.ar    1  UNL1        0.0013
     14 C         -25.2554    3.6105   30.5733 C.ar    1  UNL1        0.0165
     15 C         -24.6547    2.8079   29.6289 C.ar    1  UNL1        0.0704
     16 N         -24.5510    1.5133   29.9478 N.pl3   1  UNL1       -0.2125
@<TRIPOS>BOND
     1     1     2    1
     2     4     8    1
     3     8     9    2
     4     9    10    1
     5     5    16    1
     6    15    16    1
     7     2     3   ar
     8     3     4   ar
     9     4     5   ar
    10     5     6   ar
    11     6     7   ar
    12     7     2   ar
    13    10    11   ar
    14    11    12   ar
    15    12    13   ar
    16    13    14   ar
    17    14    15   ar
    18    15    10   ar
