@<TRIPOS>MOLECULE
No_4207-gen_results/8p0m/2024-11-26-14-13-15/
 23 24 0 0 0
SMALL
GASTEIGER

@<TRIPOS>ATOM
      1 C         -28.0162   -0.8135   28.8779 C.ar    1  UNL1        0.0030
      2 C         -28.4690   -0.7850   29.8287 C.ar    1  UNL1        0.0758
      3 C         -26.5042   -0.7777   28.8766 C.ar    1  UNL1       -0.0105
      4 C         -25.8103   -0.8531   30.1028 C.ar    1  UNL1       -0.0034
      5 C         -27.9906   -0.8916   31.2257 C.ar    1  UNL1        0.0064
      6 C         -26.6042   -0.8676   31.2652 C.ar    1  UNL1       -0.0001
      7 C         -30.0739   -0.8360   29.8615 C.2     1  UNL1        0.3479
      8 O         -30.6891   -1.6554   30.2229 O.2     1  UNL1       -0.2444
      9 O         -30.6062    0.2403   29.2675 O.3     1  UNL1       -0.3855
     10 C         -25.6543   -0.7139   27.6828 C.3     1  UNL1        0.0938
     11 BR        -24.6544    0.5618   27.5866 Br      1  UNL1       -0.0756
     12 C         -31.7823    0.2459   28.6407 C.2     1  UNL1        0.3868
     13 C         -32.0115    1.5090   28.0350 C.3     1  UNL1        0.3790
     14 O         -31.5234    2.5080   28.3692 O.3     1  UNL1       -0.3136
     15 F         -32.7845    1.5064   27.0169 F       1  UNL1       -0.1912
     16 O         -32.4621   -0.7091   28.6443 O.2     1  UNL1       -0.2436
     17 C         -30.7241    3.3310   27.6643 C.3     1  UNL1        0.1720
     18 C         -29.4642    3.4235   28.0094 C.ar    1  UNL1        0.0074
     19 C         -28.9685    3.7438   29.2232 C.ar    1  UNL1       -0.0019
     20 C         -27.5764    3.6555   29.6148 C.ar    1  UNL1       -0.0002
     21 C         -26.6553    3.4421   28.5462 C.ar    1  UNL1       -0.0000
     22 C         -27.0476    3.2453   27.2849 C.ar    1  UNL1       -0.0002
     23 C         -28.4104    3.1961   27.0153 C.ar    1  UNL1       -0.0019
@<TRIPOS>BOND
     1     2     7    1
     2     7     8    2
     3     7     9    1
     4     3    10    1
     5    10    11    1
     6     9    12    1
     7    12    13    1
     8    13    14    1
     9    13    15    1
    10    12    16    2
    11    14    17    1
    12    17    18    1
    13    18    19   ar
    14    19    20   ar
    15    20    21   ar
    16    21    22   ar
    17    22    23   ar
    18    23    18   ar
    19     1     2   ar
    20     2     5   ar
    21     5     6   ar
    22     6     4   ar
    23     4     3   ar
    24     3     1   ar
