@<TRIPOS>MOLECULE
No_4208-gen_results/8p0m/2024-11-26-14-13-15/
 11 11 0 0 0
SMALL
GASTEIGER

@<TRIPOS>ATOM
      1 C         -28.0162   -0.8135   28.8779 C.ar    1  UNL1        0.0111
      2 C         -28.4690   -0.7850   29.8287 C.ar    1  UNL1        0.0577
      3 C         -26.5042   -0.7777   28.8766 C.ar    1  UNL1       -0.0034
      4 C         -25.9500    0.1157   29.4052 C.ar    1  UNL1       -0.0217
      5 C         -28.1019   -0.1961   30.8907 C.ar    1  UNL1        0.0111
      6 C         -26.6922    0.3239   30.8776 C.ar    1  UNL1       -0.0034
      7 CL        -30.1913   -1.2775   29.9847 Cl      1  UNL1       -0.0822
      8 C         -24.5631    0.4345   29.5240 C.3     1  UNL1        0.0327
      9 C         -24.0921    1.2557   28.4357 C.3     1  UNL1        0.0536
     10 C         -24.5004    2.4976   28.3494 C.2     1  UNL1        0.0960
     11 N         -24.3183    3.1250   27.1257 N.2     1  UNL1       -0.1514
@<TRIPOS>BOND
     1     2     7    1
     2     4     8    1
     3     8     9    1
     4     9    10    1
     5    10    11    2
     6     1     2   ar
     7     2     5   ar
     8     5     6   ar
     9     6     4   ar
    10     4     3   ar
    11     3     1   ar
