@<TRIPOS>MOLECULE
No_4209-gen_results/8p0m/2024-11-26-14-13-15/
 21 24 0 0 0
SMALL
GASTEIGER

@<TRIPOS>ATOM
      1 C         -28.0162   -0.8135   28.8779 C.ar    1  UNL1        0.0031
      2 C         -27.0636   -0.1189   28.6079 C.ar    1  UNL1        0.0350
      3 C         -26.9716    0.7139   27.5060 C.ar    1  UNL1        0.0028
      4 C         -28.1053    0.7744   26.6421 C.ar    1  UNL1        0.0067
      5 C         -29.2041    0.1179   27.0477 C.ar    1  UNL1        0.0798
      6 C         -29.2127   -0.6088   28.1281 C.ar    1  UNL1        0.0067
      7 C         -25.7106    1.4518   27.1380 C.ar    1  UNL1       -0.0008
      8 C         -24.6052    0.9253   27.6902 C.ar    1  UNL1       -0.0016
      9 C         -24.6227    0.0600   28.8225 C.3     1  UNL1        0.0853
     10 C         -25.7269   -0.4734   29.2409 C.2     1  UNL1        0.1767
     11 C         -23.2726    1.6786   27.4284 C.ar    1  UNL1        0.0554
     12 N         -23.2122    2.7616   26.7043 N.ar    1  UNL1       -0.2485
     13 C         -21.9800    1.0680   27.6364 C.3     1  UNL1        0.0455
     14 C         -21.7544    0.0966   28.6196 C.3     1  UNL1        0.0071
     15 C         -23.1013   -0.5396   29.1098 C.3     1  UNL1        0.0125
     16 O         -25.6619   -1.5037   30.0190 O.2     1  UNL1       -0.2910
     17 C         -30.4477    0.3005   26.2431 C.2     1  UNL1        0.3878
     18 O         -31.4770    0.2473   26.6516 O.co2   1  UNL1       -0.2406
     19 O         -30.2382    0.2537   24.8669 O.co2   1  UNL1       -0.2406
     20 C         -25.8109    2.5223   26.1686 C.ar    1  UNL1        0.0204
     21 C         -24.4620    3.1931   26.0252 C.ar    1  UNL1        0.0984
@<TRIPOS>BOND
     1     3     7    1
     2     8     9    1
     3     2    10    1
     4     9    10    1
     5    11    13    1
     6    13    14    1
     7     9    15    1
     8    14    15    1
     9    10    16    2
    10     5    17    1
    11    17    18   ar
    12    17    19   ar
    13     1     2   ar
    14     2     3   ar
    15     3     4   ar
    16     4     5   ar
    17     5     6   ar
    18     6     1   ar
    19     7    20   ar
    20    20    21   ar
    21    21    12   ar
    22    12    11   ar
    23    11     8   ar
    24     8     7   ar
