@<TRIPOS>MOLECULE
No_421-gen_results/8p0m/2024-11-26-14-13-15/
 15 16 0 0 0
SMALL
GASTEIGER

@<TRIPOS>ATOM
      1 C         -28.0162   -0.8135   28.8779 C.ar    1  UNL1       -0.0039
      2 C         -28.4690   -0.7850   29.8287 C.ar    1  UNL1       -0.0003
      3 C         -28.1960    0.3478   28.0550 C.ar    1  UNL1       -0.0178
      4 C         -29.0191    1.3501   28.3782 C.ar    1  UNL1       -0.0039
      5 C         -29.6249    1.2683   29.6012 C.ar    1  UNL1       -0.0003
      6 C         -29.3791    0.1469   30.3923 C.ar    1  UNL1       -0.0000
      7 C         -27.4551    0.3822   26.7102 C.3     1  UNL1        0.0526
      8 C         -26.0156    0.4242   26.8243 C.ar    1  UNL1       -0.0178
      9 C         -25.2539    1.1682   25.9671 C.ar    1  UNL1       -0.0039
     10 C         -23.8754    1.3119   26.1282 C.ar    1  UNL1        0.0013
     11 C         -23.2129    0.8849   27.2842 C.ar    1  UNL1        0.0209
     12 C         -24.0022    0.1675   28.2288 C.ar    1  UNL1        0.0013
     13 C         -25.3440   -0.0044   28.0344 C.ar    1  UNL1       -0.0039
     14 C         -21.8509    1.2084   27.6002 C.2     1  UNL1        0.1221
     15 N         -21.2086    0.5330   28.5387 N.2     1  UNL1       -0.1464
@<TRIPOS>BOND
     1     3     7    1
     2     7     8    1
     3    11    14    1
     4    14    15    2
     5     1     2   ar
     6     2     6   ar
     7     6     5   ar
     8     5     4   ar
     9     4     3   ar
    10     3     1   ar
    11     8     9   ar
    12     9    10   ar
    13    10    11   ar
    14    11    12   ar
    15    12    13   ar
    16    13     8   ar
