@<TRIPOS>MOLECULE
No_4210-gen_results/8p0m/2024-11-26-14-13-15/
 27 29 0 0 0
SMALL
GASTEIGER

@<TRIPOS>ATOM
      1 C         -28.0162   -0.8135   28.8779 C.ar    1  UNL1        0.0111
      2 C         -28.4690   -0.7850   29.8287 C.ar    1  UNL1        0.0799
      3 C         -27.1356    0.2359   28.5352 C.ar    1  UNL1        0.0552
      4 C         -26.8745    1.2825   29.3982 C.ar    1  UNL1        0.0046
      5 C         -28.3613    0.1987   30.9244 C.ar    1  UNL1        0.0066
      6 C         -27.5277    1.2234   30.6356 C.ar    1  UNL1        0.0004
      7 C         -26.3987    0.2949   27.2279 C.2     1  UNL1        0.2648
      8 N         -25.1481    0.1287   27.3793 N.am    1  UNL1       -0.2013
      9 O         -26.9676    0.3869   26.1430 O.2     1  UNL1       -0.2684
     10 C         -24.2586    0.2550   26.1730 C.3     1  UNL1        0.1198
     11 C         -23.3759    1.3824   26.5159 C.3     1  UNL1        0.0440
     12 C         -22.3974    1.2258   27.4811 C.ar    1  UNL1       -0.0208
     13 C         -21.4698    2.2780   27.6619 C.ar    1  UNL1       -0.0042
     14 C         -22.5153    0.1869   28.4187 C.ar    1  UNL1       -0.0042
     15 C         -21.4361   -0.0562   29.3235 C.ar    1  UNL1       -0.0003
     16 C         -20.3506    1.8245   28.5094 C.ar    1  UNL1       -0.0003
     17 C         -20.4186    0.7876   29.3659 C.ar    1  UNL1       -0.0000
     18 C         -23.9502    2.7639   26.4007 C.3     1  UNL1        0.0065
     19 C         -29.4194   -1.9792   30.3428 C.2     1  UNL1        0.3878
     20 O         -29.9974   -1.8473   31.3859 O.co2   1  UNL1       -0.2406
     21 O         -29.3656   -3.0218   29.7091 O.co2   1  UNL1       -0.2406
     22 C         -27.3085    2.3454   31.6080 C.ar    1  UNL1        0.0000
     23 C         -27.5688    3.5347   31.4651 C.ar    1  UNL1        0.0000
     24 C         -27.2343    4.5649   32.3496 C.ar    1  UNL1        0.0000
     25 C         -26.5588    4.2232   33.5644 C.ar    1  UNL1        0.0000
     26 C         -26.1941    2.9180   33.7647 C.ar    1  UNL1        0.0000
     27 C         -26.4913    1.9352   32.8066 C.ar    1  UNL1        0.0000
@<TRIPOS>BOND
     1     3     7    1
     2     7     8   am
     3     7     9    2
     4     8    10    1
     5    10    11    1
     6    11    18    1
     7     2    19    1
     8    19    20   ar
     9    19    21   ar
    10     6    22    1
    11    11    12    1
    12    22    23   ar
    13    23    24   ar
    14    24    25   ar
    15    25    26   ar
    16    26    27   ar
    17    27    22   ar
    18     1     2   ar
    19     2     5   ar
    20     5     6   ar
    21     6     4   ar
    22     4     3   ar
    23     3     1   ar
    24    12    13   ar
    25    13    16   ar
    26    16    17   ar
    27    17    15   ar
    28    15    14   ar
    29    14    12   ar
