@<TRIPOS>MOLECULE
No_4213-gen_results/8p0m/2024-11-26-14-13-15/
 35 37 0 0 0
SMALL
GASTEIGER

@<TRIPOS>ATOM
      1 C         -28.0162   -0.8135   28.8779 C.ar    1  UNL1        0.0064
      2 C         -28.4690   -0.7850   29.8287 C.ar    1  UNL1        0.0759
      3 C         -28.1960    0.3478   28.0550 C.ar    1  UNL1        0.0004
      4 C         -29.0191    1.3501   28.3782 C.ar    1  UNL1        0.0066
      5 C         -29.4107    0.1803   30.3782 C.ar    1  UNL1        0.0130
      6 C         -29.6059    1.2495   29.6193 C.ar    1  UNL1        0.0800
      7 C         -27.4597    0.3802   26.7091 C.ar    1  UNL1       -0.0000
      8 C         -27.9298    0.5836   25.6804 C.ar    1  UNL1       -0.0000
      9 C         -27.5995    0.3985   24.6899 C.ar    1  UNL1       -0.0000
     10 C         -26.1547   -0.1147   24.4890 C.ar    1  UNL1       -0.0000
     11 C         -25.4641   -0.2852   25.6436 C.ar    1  UNL1       -0.0000
     12 C         -26.0936   -0.1258   26.8134 C.ar    1  UNL1       -0.0000
     13 C         -25.3306   -0.3999   28.0264 C.ar    1  UNL1        0.0039
     14 C         -24.8048    0.7030   28.7690 C.ar    1  UNL1        0.0714
     15 C         -24.0737    0.4786   29.9042 C.ar    1  UNL1        0.0039
     16 C         -23.6762   -0.8101   30.2760 C.ar    1  UNL1       -0.0001
     17 C         -24.9126   -1.6417   28.4601 C.ar    1  UNL1       -0.0001
     18 C         -24.1016   -1.8784   29.5358 C.ar    1  UNL1       -0.0000
     19 C         -25.2035    2.1425   28.5183 C.3     1  UNL1        0.4186
     20 F         -24.1249    2.7540   27.9581 F       1  UNL1       -0.1659
     21 F         -26.1479    2.2566   27.5723 F       1  UNL1       -0.1659
     22 F         -25.4712    2.8238   29.6338 F       1  UNL1       -0.1659
     23 C         -28.2812   -1.9956   30.9047 C.2     1  UNL1        0.3417
     24 O         -28.2467   -1.7643   31.9960 O.2     1  UNL1       -0.2449
     25 O         -28.0833   -3.1432   30.3135 O.3     1  UNL1       -0.4353
     26 C         -30.5125    2.4026   30.0573 C.2     1  UNL1        0.3878
     27 O         -31.0472    2.5250   31.0037 O.co2   1  UNL1       -0.2406
     28 O         -30.5529    3.3674   29.1589 O.co2   1  UNL1       -0.2406
     29 C         -28.6087   -4.2944   30.8976 C.3     1  UNL1        0.2929
     30 C         -29.9971   -4.5513   30.4688 C.2     1  UNL1        0.2704
     31 O         -30.3250   -4.3925   29.4290 O.2     1  UNL1       -0.2708
     32 N         -30.8640   -4.7038   31.4498 N.am    1  UNL1       -0.2748
     33 C         -30.6079   -4.8516   32.9128 C.3     1  UNL1        0.0936
     34 C         -32.2933   -4.9025   31.0351 C.3     1  UNL1        0.1150
     35 C         -30.4677   -6.0413   33.2225 C.3     1  UNL1        0.0233
@<TRIPOS>BOND
     1     3     7    1
     2    12    13    1
     3    14    19    1
     4    19    20    1
     5    19    21    1
     6    19    22    1
     7     2    23    1
     8    23    24    2
     9    23    25    1
    10     6    26    1
    11    26    27   ar
    12    26    28   ar
    13    25    29    1
    14    29    30    1
    15    30    31    2
    16    30    32   am
    17    32    33    1
    18    32    34    1
    19    33    35    1
    20    13    14   ar
    21    14    15   ar
    22    15    16   ar
    23    16    18   ar
    24    18    17   ar
    25    17    13   ar
    26     1     2   ar
    27     2     5   ar
    28     5     6   ar
    29     6     4   ar
    30     4     3   ar
    31     3     1   ar
    32     7     8   ar
    33     8     9   ar
    34     9    10   ar
    35    10    11   ar
    36    11    12   ar
    37    12     7   ar
