@<TRIPOS>MOLECULE
No_4214-gen_results/8p0m/2024-11-26-14-13-15/
 22 24 0 0 0
SMALL
GASTEIGER

@<TRIPOS>ATOM
      1 C         -28.0162   -0.8135   28.8779 C.3     1  UNL1        0.4186
      2 C         -27.0636   -0.1189   28.6079 C.ar    1  UNL1        0.0715
      3 C         -25.7923   -0.4302   29.0761 C.ar    1  UNL1        0.0047
      4 C         -24.5456    0.3494   28.8225 C.ar    1  UNL1        0.0106
      5 C         -24.6586    1.4196   27.8878 C.ar    1  UNL1        0.0576
      6 C         -25.9471    1.6811   27.3792 C.ar    1  UNL1        0.0113
      7 C         -27.0439    0.9739   27.6871 C.ar    1  UNL1        0.0047
      8 F         -28.9951   -0.6028   28.1730 F       1  UNL1       -0.1659
      9 F         -28.4117   -0.6162   30.2431 F       1  UNL1       -0.1659
     10 CL        -23.2627    2.2821   27.5478 Cl      1  UNL1       -0.0822
     11 C         -23.2536   -0.0500   29.3901 C.ar    1  UNL1        0.0030
     12 C         -22.1983   -0.2399   28.6772 C.ar    1  UNL1        0.0297
     13 C         -23.3632   -0.3356   30.8218 C.ar    1  UNL1        0.0002
     14 C         -20.9868   -0.7325   29.3544 C.ar    1  UNL1        0.1401
     15 C         -24.4762   -0.1046   31.6096 C.ar    1  UNL1        0.0000
     16 F         -19.9830   -0.7516   28.5232 F       1  UNL1       -0.2042
     17 C         -24.8558   -0.9553   32.6351 C.ar    1  UNL1        0.0000
     18 C         -23.6501   -1.5184   33.1995 C.ar    1  UNL1        0.0000
     19 C         -22.4807   -1.7431   32.5252 C.ar    1  UNL1        0.0001
     20 C         -22.3102   -1.1256   31.3021 C.ar    1  UNL1        0.0022
     21 C         -21.0744   -1.1678   30.5903 C.ar    1  UNL1        0.0296
     22 F         -27.7401   -2.1218   28.9196 F       1  UNL1       -0.1659
@<TRIPOS>BOND
     1     1     2    1
     2     1     8    1
     3     1     9    1
     4     5    10    1
     5     4    11    1
     6    14    16    1
     7     1    22    1
     8    13    15   ar
     9    15    17   ar
    10    17    18   ar
    11    18    19   ar
    12    19    20   ar
    13     2     3   ar
    14     3     4   ar
    15     4     5   ar
    16     5     6   ar
    17     6     7   ar
    18     7     2   ar
    19    11    12   ar
    20    12    14   ar
    21    14    21   ar
    22    21    20   ar
    23    20    13   ar
    24    13    11   ar
