@<TRIPOS>MOLECULE
No_4215-gen_results/8p0m/2024-11-26-14-13-15/
 13 13 0 0 0
SMALL
GASTEIGER

@<TRIPOS>ATOM
      1 C         -28.0162   -0.8135   28.8779 C.ar    1  UNL1       -0.0043
      2 C         -28.4690   -0.7850   29.8287 C.ar    1  UNL1       -0.0003
      3 C         -27.1356    0.2359   28.5352 C.ar    1  UNL1       -0.0218
      4 C         -26.8745    1.2825   29.3982 C.ar    1  UNL1       -0.0043
      5 C         -28.3613    0.1987   30.9244 C.ar    1  UNL1       -0.0000
      6 C         -27.5277    1.2234   30.6356 C.ar    1  UNL1       -0.0003
      7 C         -26.3987    0.2949   27.2279 C.3     1  UNL1        0.0310
      8 C         -26.9022    0.7280   26.2134 C.3     1  UNL1        0.0307
      9 C         -28.1750    1.2651   26.1756 C.2     1  UNL1       -0.0258
     10 C         -29.0823    0.9709   25.8134 C.2     1  UNL1       -0.0049
     11 C         -29.2644   -0.4323   25.3293 C.2     1  UNL1       -0.0049
     12 C         -29.9867   -0.5726   24.1218 C.2     1  UNL1       -0.0258
     13 C         -31.0144    0.3262   23.7893 C.3     1  UNL1        0.0307
@<TRIPOS>BOND
     1     3     7    1
     2     7     8    1
     3     8     9    1
     4     9    10    2
     5    10    11    1
     6    11    12    2
     7    12    13    1
     8     1     2   ar
     9     2     5   ar
    10     5     6   ar
    11     6     4   ar
    12     4     3   ar
    13     3     1   ar
