@<TRIPOS>MOLECULE
No_4216-gen_results/8p0m/2024-11-26-14-13-15/
 16 16 0 0 0
SMALL
GASTEIGER

@<TRIPOS>ATOM
      1 C         -28.0162   -0.8135   28.8779 C.ar    1  UNL1       -0.0003
      2 C         -28.4690   -0.7850   29.8287 C.ar    1  UNL1       -0.0000
      3 C         -28.1816    0.4277   28.1134 C.ar    1  UNL1       -0.0043
      4 C         -27.4498    0.6435   26.8500 C.2     1  UNL1       -0.0261
      5 C         -26.4529    0.9939   26.6681 C.2     1  UNL1       -0.0252
      6 C         -25.1812    0.8624   26.8165 C.2     1  UNL1        0.0044
      7 C         -24.2036    1.0464   27.4866 C.2     1  UNL1        0.0515
      8 C         -29.4367    0.0780   30.4436 C.ar    1  UNL1       -0.0000
      9 C         -23.2068    1.1720   27.8982 C.1     1  UNL1       -0.0292
     10 C         -29.6775    1.1885   29.7341 C.ar    1  UNL1       -0.0000
     11 C         -29.0585    1.3972   28.5508 C.ar    1  UNL1       -0.0003
     12 C         -22.2021    1.1261   28.2421 C.1     1  UNL1        0.1107
     13 C         -28.3615    0.1662   25.7144 C.3     1  UNL1        0.0260
     14 C         -29.4245    1.1132   25.3809 C.3     1  UNL1        0.0050
     15 C         -26.5190    2.6072   26.3696 C.3     1  UNL1        0.0307
     16 F         -21.1790    1.4650   27.7929 F       1  UNL1       -0.1429
@<TRIPOS>BOND
     1     3     4    1
     2     4     5    2
     3     5     6    1
     4     6     7    2
     5     7     9    1
     6     9    12    3
     7     4    13    1
     8    13    14    1
     9     5    15    1
    10    12    16    1
    11     1     2   ar
    12     2     8   ar
    13     8    10   ar
    14    10    11   ar
    15    11     3   ar
    16     3     1   ar
