@<TRIPOS>MOLECULE
No_4218-gen_results/8p0m/2024-11-26-14-13-15/
 15 17 0 0 0
SMALL
GASTEIGER

@<TRIPOS>ATOM
      1 C         -28.0162   -0.8135   28.8779 C.ar    1  UNL1        0.0029
      2 C         -27.0636   -0.1189   28.6079 C.ar    1  UNL1        0.0353
      3 C         -25.7647   -0.3897   29.0360 C.2     1  UNL1        0.1950
      4 C         -24.5516    0.4058   28.7646 C.ar    1  UNL1        0.0353
      5 C         -24.6957    1.4480   27.7988 C.ar    1  UNL1       -0.0147
      6 C         -23.5821    2.2166   27.4626 C.ar    1  UNL1       -0.0038
      7 C         -22.3295    1.8427   27.9661 C.ar    1  UNL1       -0.0003
      8 C         -22.1809    0.8284   28.8814 C.ar    1  UNL1        0.0001
      9 C         -23.3190    0.0774   29.2471 C.ar    1  UNL1        0.0029
     10 C         -29.3444   -0.3166   28.7168 C.ar    1  UNL1        0.0001
     11 C         -29.5122    0.7738   27.8782 C.ar    1  UNL1       -0.0003
     12 C         -28.4331    1.4575   27.4053 C.ar    1  UNL1       -0.0038
     13 C         -27.1461    1.1205   27.7815 C.ar    1  UNL1       -0.0147
     14 C         -25.9983    1.8258   27.3802 C.3     1  UNL1        0.0528
     15 O         -25.5358   -1.4898   29.7280 O.2     1  UNL1       -0.2866
@<TRIPOS>BOND
     1     2     3    1
     2     3     4    1
     3     5    14    1
     4    13    14    1
     5     3    15    2
     6     4     5   ar
     7     5     6   ar
     8     6     7   ar
     9     7     8   ar
    10     8     9   ar
    11     9     4   ar
    12     1     2   ar
    13     2    13   ar
    14    13    12   ar
    15    12    11   ar
    16    11    10   ar
    17    10     1   ar
