@<TRIPOS>MOLECULE
No_4219-gen_results/8p0m/2024-11-26-14-13-15/
 11 11 0 0 0
SMALL
GASTEIGER

@<TRIPOS>ATOM
      1 C         -28.0162   -0.8135   28.8779 C.3     1  UNL1        0.1131
      2 C         -27.0636   -0.1189   28.6079 C.ar    1  UNL1       -0.0130
      3 C         -27.0010    0.6913   27.4910 C.ar    1  UNL1       -0.0038
      4 C         -25.7770    1.0214   26.9135 C.ar    1  UNL1       -0.0003
      5 C         -24.5088    0.7364   27.5686 C.ar    1  UNL1       -0.0000
      6 C         -24.5930   -0.0361   28.7390 C.ar    1  UNL1       -0.0003
      7 C         -25.8114   -0.4771   29.1584 C.ar    1  UNL1       -0.0038
      8 C         -28.6413   -0.4024   30.1937 C.2     1  UNL1        0.2459
      9 N         -28.5035    0.6288   30.6408 N.am    1  UNL1       -0.2032
     10 C         -28.7634    0.9132   31.9453 C.3     1  UNL1        0.1385
     11 O         -28.9953   -1.4176   30.9839 O.2     1  UNL1       -0.2730
@<TRIPOS>BOND
     1     1     2    1
     2     1     8    1
     3     8     9   am
     4     9    10    1
     5     8    11    2
     6     2     3   ar
     7     3     4   ar
     8     4     5   ar
     9     5     6   ar
    10     6     7   ar
    11     7     2   ar
