@<TRIPOS>MOLECULE
No_422-gen_results/8p0m/2024-11-26-14-13-15/
 19 20 0 0 0
SMALL
GASTEIGER

@<TRIPOS>ATOM
      1 C         -28.0162   -0.8135   28.8779 C.ar    1  UNL1       -0.0040
      2 C         -28.4690   -0.7850   29.8287 C.ar    1  UNL1       -0.0003
      3 C         -28.1960    0.3478   28.0550 C.ar    1  UNL1       -0.0184
      4 C         -29.0191    1.3501   28.3782 C.ar    1  UNL1       -0.0040
      5 C         -29.4107    0.1803   30.3782 C.ar    1  UNL1       -0.0000
      6 C         -29.6059    1.2495   29.6193 C.ar    1  UNL1       -0.0003
      7 C         -27.4597    0.3802   26.7091 C.3     1  UNL1        0.0442
      8 C         -26.0094    0.3317   26.7236 C.3     1  UNL1        0.0124
      9 C         -25.3055    0.0239   27.8527 C.3     1  UNL1        0.0270
     10 C         -23.9153    0.1563   27.8949 C.ar    1  UNL1       -0.0222
     11 C         -23.1483   -0.2523   29.0524 C.ar    1  UNL1       -0.0043
     12 C         -21.7767    0.0855   29.0711 C.ar    1  UNL1       -0.0003
     13 C         -21.2022    0.9425   28.1427 C.ar    1  UNL1       -0.0000
     14 C         -22.0507    1.5804   27.2012 C.ar    1  UNL1       -0.0003
     15 C         -23.3659    1.2640   27.1513 C.ar    1  UNL1       -0.0043
     16 C         -28.2198    0.3781   25.5687 C.2     1  UNL1       -0.0266
     17 C         -25.4390   -0.0118   25.4053 C.3     1  UNL1        0.0010
     18 C         -29.2734    0.4411   25.3554 C.2     1  UNL1       -0.0300
     19 C         -29.9038    0.3287   24.0507 C.3     1  UNL1        0.0304
@<TRIPOS>BOND
     1     3     7    1
     2     7     8    1
     3     8     9    1
     4     7    16    1
     5     8    17    1
     6    16    18    2
     7    18    19    1
     8     9    10    1
     9     1     2   ar
    10     2     5   ar
    11     5     6   ar
    12     6     4   ar
    13     4     3   ar
    14     3     1   ar
    15    10    11   ar
    16    11    12   ar
    17    12    13   ar
    18    13    14   ar
    19    14    15   ar
    20    15    10   ar
