@<TRIPOS>MOLECULE
No_4221-gen_results/8p0m/2024-11-26-14-13-15/
 28 29 0 0 0
SMALL
GASTEIGER

@<TRIPOS>ATOM
      1 O         -28.1229   -1.3353   28.4874 O.2     1  UNL1       -0.2683
      2 C         -27.0637   -0.8242   28.8687 C.2     1  UNL1        0.2665
      3 N         -25.9773   -1.1378   28.8137 N.am    1  UNL1       -0.2749
      4 C         -25.5373   -2.3638   28.4229 C.3     1  UNL1        0.0938
      5 C         -27.1633    0.7053   29.5140 C.ar    1  UNL1        0.1319
      6 N         -27.3575    1.5184   28.9140 N.ar    1  UNL1       -0.2232
      7 C         -27.3382    2.6986   29.1007 C.ar    1  UNL1        0.1695
      8 C         -27.1609    3.1399   30.3278 C.ar    1  UNL1        0.0334
      9 C         -26.8023    0.6895   30.9486 C.ar    1  UNL1       -0.0039
     10 C         -26.6961    2.1174   31.3945 C.ar    1  UNL1       -0.0173
     11 C         -24.0497   -2.6469   29.1308 C.3     1  UNL1        0.0216
     12 C         -23.2623   -1.4934   29.1327 C.3     1  UNL1        0.0035
     13 C         -23.7449   -0.1667   29.1066 C.3     1  UNL1        0.0216
     14 C         -25.0401   -0.0472   29.0444 C.3     1  UNL1        0.0938
     15 N         -27.6261    3.6587   28.1873 N.pl3   1  UNL1       -0.1072
     16 C         -26.8266   -0.3571   31.8650 C.3     1  UNL1        0.0237
     17 C         -25.6326   -0.5105   32.6401 C.3     1  UNL1        0.0047
     18 C         -27.9485   -1.1356   31.9842 C.3     1  UNL1        0.0047
     19 C         -26.3372    2.5245   32.7430 C.3     1  UNL1        0.0521
     20 C         -27.1646    3.3697   33.4270 C.2     1  UNL1       -0.0214
     21 C         -28.0854    3.2104   33.8100 C.2     1  UNL1       -0.0042
     22 C         -28.7566    1.9300   33.8432 C.2     1  UNL1       -0.0003
     23 C         -29.8146    1.7257   33.9803 C.2     1  UNL1       -0.0000
     24 C         -30.3916    0.3859   33.8953 C.2     1  UNL1       -0.0000
     25 C         -31.1231   -0.0972   34.4168 C.2     1  UNL1       -0.0003
     26 C         -31.5090   -1.5083   34.2736 C.2     1  UNL1       -0.0046
     27 C         -30.8964   -2.1881   33.2789 C.2     1  UNL1       -0.0258
     28 C         -30.0444   -1.5805   32.4488 C.3     1  UNL1        0.0307
@<TRIPOS>BOND
     1     1     2    2
     2     2     3   am
     3     3     4    1
     4     2     5    1
     5    11    12    1
     6    12    13    1
     7     3    14    1
     8     7    15    1
     9     9    16    1
    10    16    17    1
    11    16    18    1
    12    10    19    1
    13    19    20    1
    14    20    21    2
    15    21    22    1
    16    22    23    2
    17    23    24    1
    18    24    25    2
    19    25    26    1
    20    26    27    2
    21    27    28    1
    22     4    11    1
    23    13    14    1
    24     5     6   ar
    25     6     7   ar
    26     7     8   ar
    27     8    10   ar
    28    10     9   ar
    29     9     5   ar
