@<TRIPOS>MOLECULE
No_4222-gen_results/8p0m/2024-11-26-14-13-15/
 30 31 0 0 0
SMALL
GASTEIGER

@<TRIPOS>ATOM
      1 C         -28.0162   -0.8135   28.8779 C.ar    1  UNL1        0.0043
      2 C         -27.0636   -0.1190   28.6079 C.ar    1  UNL1       -0.0037
      3 C         -25.7647   -0.3897   29.0360 C.ar    1  UNL1       -0.0143
      4 C         -25.5296   -1.5302   29.9014 C.ar    1  UNL1       -0.0037
      5 C         -26.6888   -2.2893   30.1810 C.ar    1  UNL1        0.0043
      6 C         -27.8727   -1.9508   29.7373 C.ar    1  UNL1        0.0554
      7 C         -24.5491    0.4100   28.7341 C.3     1  UNL1        0.0958
      8 C         -24.0931    1.3779   29.5761 C.2     1  UNL1        0.2342
      9 CL        -24.9550    1.8355   30.9163 Cl      1  UNL1       -0.0425
     10 O         -23.0476    2.1011   29.3182 O.2     1  UNL1       -0.2785
     11 C         -29.0501   -2.7836   30.1549 C.2     1  UNL1        0.2690
     12 N         -29.3460   -2.8475   31.4148 N.am    1  UNL1       -0.1754
     13 C         -30.5564   -2.5585   31.8102 C.ar    1  UNL1        0.0737
     14 C         -31.4255   -2.1368   31.1065 C.ar    1  UNL1        0.0168
     15 C         -30.8019   -2.7495   33.3195 C.ar    1  UNL1        0.0168
     16 C         -32.8201   -1.8069   31.5325 C.ar    1  UNL1        0.0079
     17 C         -32.1029   -2.4294   33.7697 C.ar    1  UNL1        0.0079
     18 C         -33.0529   -1.9600   32.9001 C.ar    1  UNL1        0.0799
     19 O         -29.5704   -3.5184   29.4692 O.2     1  UNL1       -0.2680
     20 C         -34.4125   -1.6219   33.3785 C.2     1  UNL1        0.3878
     21 O         -35.3367   -1.8998   33.1031 O.co2   1  UNL1       -0.2406
     22 O         -34.2499   -0.7675   34.5060 O.co2   1  UNL1       -0.2406
     23 C         -23.8816    0.2240   27.4655 C.3     1  UNL1        0.0174
     24 C         -24.0230    1.2591   26.4941 C.3     1  UNL1        0.0228
     25 C         -23.0128    2.2252   26.4757 C.3     1  UNL1        0.0047
     26 C         -25.0374    1.2395   25.5542 C.2     1  UNL1       -0.0265
     27 C         -25.3857    0.2554   24.8682 C.2     1  UNL1       -0.0049
     28 C         -26.6279    0.1229   24.1416 C.2     1  UNL1       -0.0049
     29 C         -27.5695    1.1994   24.4054 C.2     1  UNL1       -0.0258
     30 C         -27.2124    2.3170   25.2046 C.3     1  UNL1        0.0307
@<TRIPOS>BOND
     1     3     7    1
     2     7     8    1
     3     8     9    1
     4     8    10    2
     5     6    11    1
     6    11    12   am
     7    12    13    1
     8    11    19    2
     9    18    20    1
    10    20    21   ar
    11    20    22   ar
    12     7    23    1
    13    23    24    1
    14    24    25    1
    15    24    26    1
    16    26    27    2
    17    27    28    1
    18    28    29    2
    19    29    30    1
    20     1     2   ar
    21     2     3   ar
    22     3     4   ar
    23     4     5   ar
    24     5     6   ar
    25     6     1   ar
    26    13    14   ar
    27    14    16   ar
    28    16    18   ar
    29    18    17   ar
    30    17    15   ar
    31    15    13   ar
