@<TRIPOS>MOLECULE
No_4223-gen_results/8p0m/2024-11-26-14-13-15/
 11 11 0 0 0
SMALL
GASTEIGER

@<TRIPOS>ATOM
      1 C         -28.0162   -0.8135   28.8779 C.ar    1  UNL1       -0.0039
      2 C         -28.4690   -0.7850   29.8287 C.ar    1  UNL1       -0.0003
      3 C         -27.1356    0.2359   28.5352 C.ar    1  UNL1       -0.0168
      4 C         -26.8745    1.2825   29.3982 C.ar    1  UNL1       -0.0039
      5 C         -27.5070    1.2380   30.6295 C.ar    1  UNL1       -0.0003
      6 C         -28.3293    0.1745   30.9350 C.ar    1  UNL1       -0.0000
      7 C         -26.4077    0.3070   27.2259 C.3     1  UNL1        0.0655
      8 C         -26.8748    0.8389   26.2127 C.2     1  UNL1        0.0997
      9 C         -25.0813   -0.2884   27.1835 C.3     1  UNL1        0.0104
     10 N         -26.2550    0.6437   25.0031 N.2     1  UNL1       -0.1511
     11 C         -24.5136   -0.8579   28.4740 C.3     1  UNL1        0.0007
@<TRIPOS>BOND
     1     3     7    1
     2     7     8    1
     3     7     9    1
     4     8    10    2
     5     9    11    1
     6     1     2   ar
     7     2     6   ar
     8     6     5   ar
     9     5     4   ar
    10     4     3   ar
    11     3     1   ar
