@<TRIPOS>MOLECULE
No_4224-gen_results/8p0m/2024-11-26-14-13-15/
 35 37 0 0 0
SMALL
GASTEIGER

@<TRIPOS>ATOM
      1 C         -28.0162   -0.8135   28.8779 C.ar    1  UNL1       -0.0040
      2 C         -28.4690   -0.7850   29.8287 C.ar    1  UNL1       -0.0100
      3 C         -26.5042   -0.7777   28.8766 C.ar    1  UNL1       -0.0041
      4 C         -25.8103   -0.8531   30.1028 C.ar    1  UNL1       -0.0145
      5 C         -27.9906   -0.8916   31.2257 C.ar    1  UNL1       -0.0040
      6 C         -26.6042   -0.8676   31.2652 C.ar    1  UNL1       -0.0041
      7 C         -30.0739   -0.8360   29.8615 C.3     1  UNL1        0.1445
      8 P         -30.8171    0.4583   28.9240 P.3     1  UNL1        0.3766
      9 O         -29.9750    1.2703   28.5644 O.2     1  UNL1       -0.2550
     10 O         -31.8328    1.0030   29.8808 O.3     1  UNL1       -0.1394
     11 O         -31.5585   -0.3494   27.8116 O.3     1  UNL1       -0.2530
     12 C         -32.3751   -1.2297   27.8047 C.3     1  UNL1        0.3335
     13 C         -32.3457   -1.9289   26.5269 C.3     1  UNL1        0.2856
     14 C         -31.6943   -1.3785   25.4938 C.2     1  UNL1        0.2467
     15 O         -30.8003   -2.0585   24.9695 O.2     1  UNL1       -0.2853
     16 O         -33.7343   -2.1476   26.0363 O.3     1  UNL1       -0.2077
     17 O         -32.1087   -2.2320   28.8358 O.2     1  UNL1       -0.4419
     18 C         -24.3762   -0.8406   30.1414 C.3     1  UNL1        0.0955
     19 C         -23.8137    0.4675   29.9808 C.2     1  UNL1        0.1805
     20 C         -23.5182    0.9537   28.7254 C.ar    1  UNL1        0.0739
     21 C         -22.2892    0.9140   28.2887 C.ar    1  UNL1        0.1984
     22 C         -21.9552    1.5436   26.9822 C.ar    1  UNL1        0.0421
     23 C         -22.9957    2.1706   26.3009 C.ar    1  UNL1        0.0033
     24 C         -24.3892    1.7252   27.9005 C.ar    1  UNL1        0.0059
     25 C         -24.1455    2.2683   26.7819 C.ar    1  UNL1        0.0003
     26 O         -23.6911    1.2429   31.0449 O.2     1  UNL1       -0.2909
     27 C         -25.2052    3.0116   26.0284 C.ar    1  UNL1        0.0000
     28 C         -26.5073    3.1111   26.5759 C.ar    1  UNL1        0.0000
     29 C         -26.6783    3.0808   27.7585 C.ar    1  UNL1        0.0000
     30 C         -25.7235    2.1786   28.5984 C.ar    1  UNL1        0.0002
     31 O         -21.2913    0.2777   28.8775 O.3     1  UNL1       -0.2865
     32 C         -33.1645   -2.9019   29.3706 C.2     1  UNL1        0.2352
     33 C         -32.8538   -4.0350   29.9045 C.2     1  UNL1        0.3155
     34 F         -33.9165   -4.6046   30.3389 F       1  UNL1       -0.1686
     35 F         -32.3305   -4.9645   29.0031 F       1  UNL1       -0.1686
@<TRIPOS>BOND
     1     2     7    1
     2     7     8    1
     3     8     9    2
     4     8    10    1
     5     8    11    1
     6    11    12    1
     7    12    13    1
     8    13    14    1
     9    14    15    2
    10    13    16    1
    11    12    17    1
    12     4    18    1
    13    18    19    1
    14    19    20    1
    15    19    26    2
    16    21    31    1
    17    17    32    1
    18    32    33    2
    19    33    34    1
    20    33    35    1
    21    20    21   ar
    22    21    22   ar
    23    22    23   ar
    24    23    25   ar
    25    24    20   ar
    26    24    25   ar
    27    25    27   ar
    28    27    28   ar
    29    28    29   ar
    30    29    30   ar
    31    30    24   ar
    32     1     2   ar
    33     2     5   ar
    34     5     6   ar
    35     6     4   ar
    36     4     3   ar
    37     3     1   ar
