@<TRIPOS>MOLECULE
No_4225-gen_results/8p0m/2024-11-26-14-13-15/
 15 17 0 0 0
SMALL
GASTEIGER

@<TRIPOS>ATOM
      1 C         -28.0162   -0.8135   28.8779 C.ar    1  UNL1        0.0114
      2 C         -27.0636   -0.1189   28.6079 C.ar    1  UNL1        0.0009
      3 C         -25.7647   -0.3897   29.0360 C.ar    1  UNL1        0.0001
      4 C         -25.5296   -1.5302   29.9014 C.ar    1  UNL1        0.0008
      5 C         -26.6888   -2.2893   30.1810 C.ar    1  UNL1        0.0114
      6 C         -27.8727   -1.9508   29.7373 C.ar    1  UNL1        0.0577
      7 CL        -29.1941   -2.9228   30.2191 Cl      1  UNL1       -0.0822
      8 C         -24.5326    0.4193   28.7249 C.ar    1  UNL1        0.0000
      9 C         -23.3426    0.1084   29.1746 C.ar    1  UNL1        0.0000
     10 C         -22.2236    0.9007   28.8422 C.ar    1  UNL1        0.0000
     11 C         -20.9579    0.6906   28.9068 C.ar    1  UNL1        0.0000
     12 C         -20.7317   -0.7519   29.2315 C.ar    1  UNL1        0.0000
     13 C         -21.7653   -1.5933   29.4748 C.ar    1  UNL1        0.0000
     14 C         -23.0517   -1.2165   29.4148 C.ar    1  UNL1        0.0000
     15 C         -24.2203   -2.0256   30.1721 C.ar    1  UNL1        0.0000
@<TRIPOS>BOND
     1     6     7    1
     2     9    10   ar
     3    10    11   ar
     4    11    12   ar
     5    12    13   ar
     6    13    14   ar
     7     1     2   ar
     8     2     3   ar
     9     4     5   ar
    10     5     6   ar
    11     6     1   ar
    12     3     4   ar
    13     4    15   ar
    14    15    14   ar
    15    14     9   ar
    16     9     8   ar
    17     8     3   ar
