@<TRIPOS>MOLECULE
No_4227-gen_results/8p0m/2024-11-26-14-13-15/
 18 19 0 0 0
SMALL
GASTEIGER

@<TRIPOS>ATOM
      1 C         -28.0162   -0.8135   28.8779 C.ar    1  UNL1        0.0369
      2 C         -27.0636   -0.1189   28.6079 C.ar    1  UNL1        0.0031
      3 C         -25.7647   -0.3897   29.0360 C.ar    1  UNL1        0.0002
      4 C         -25.5296   -1.5302   29.9014 C.ar    1  UNL1        0.0031
      5 C         -26.6577   -2.2915   30.2035 C.ar    1  UNL1        0.0369
      6 C         -27.8548   -1.9555   29.7630 C.ar    1  UNL1        0.1387
      7 C         -24.5349    0.4128   28.7431 C.ar    1  UNL1        0.0000
      8 C         -24.4835    1.2431   27.7398 C.ar    1  UNL1        0.0000
      9 C         -23.2788    1.9376   27.4159 C.ar    1  UNL1        0.0000
     10 C         -22.0791    1.6509   28.0213 C.ar    1  UNL1        0.0000
     11 C         -23.2748    0.1108   29.4386 C.ar    1  UNL1        0.0000
     12 C         -22.0811    0.7712   29.0650 C.ar    1  UNL1        0.0000
     13 O         -28.9235   -2.7298   30.1344 O.3     1  UNL1       -0.4722
     14 C         -29.2735   -2.8098   31.4624 C.3     1  UNL1        0.2462
     15 C         -29.8998   -1.7730   31.9832 C.3     1  UNL1        0.2592
     16 C         -30.4168   -0.8716   31.2446 C.2     1  UNL1        0.2439
     17 O         -30.1871    0.2212   31.4474 O.2     1  UNL1       -0.2854
     18 O         -29.1027   -1.1639   32.9296 O.3     1  UNL1       -0.2106
@<TRIPOS>BOND
     1     3     7    1
     2     6    13    1
     3    13    14    1
     4    14    15    1
     5    15    16    1
     6    16    17    2
     7    15    18    1
     8     7     8   ar
     9     8     9   ar
    10     9    10   ar
    11    10    12   ar
    12    12    11   ar
    13    11     7   ar
    14     1     2   ar
    15     2     3   ar
    16     3     4   ar
    17     4     5   ar
    18     5     6   ar
    19     6     1   ar
