@<TRIPOS>MOLECULE
No_4228-gen_results/8p0m/2024-11-26-14-13-15/
 24 27 0 0 0
SMALL
GASTEIGER

@<TRIPOS>ATOM
      1 C         -28.0162   -0.8135   28.8779 C.ar    1  UNL1        0.0037
      2 C         -28.4690   -0.7850   29.8287 C.ar    1  UNL1        0.0002
      3 C         -27.1356    0.2359   28.5352 C.ar    1  UNL1        0.0430
      4 C         -26.8745    1.2825   29.3982 C.ar    1  UNL1        0.1932
      5 C         -28.3613    0.1987   30.9244 C.ar    1  UNL1        0.0038
      6 C         -27.5277    1.2234   30.6356 C.ar    1  UNL1        0.0466
      7 C         -26.3879    0.2914   27.2334 C.2     1  UNL1        0.0037
      8 C         -26.4937    0.9729   26.2859 C.2     1  UNL1        0.0004
      9 C         -27.4763    2.0646   26.3647 C.ar    1  UNL1        0.0073
     10 C         -28.1249    2.4658   25.1478 C.ar    1  UNL1        0.0002
     11 C         -29.0611    3.5279   25.1991 C.ar    1  UNL1        0.0000
     12 C         -29.3354    4.1583   26.4550 C.ar    1  UNL1        0.0002
     13 C         -28.6814    3.7126   27.5661 C.ar    1  UNL1        0.0075
     14 C         -27.8119    2.7610   27.5493 C.ar    1  UNL1        0.0859
     15 N         -25.9814    2.2682   29.0778 N.2     1  UNL1       -0.0366
     16 C         -26.9157    2.8241   28.6864 C.2     1  UNL1        0.3613
     17 N         -27.0849    4.0039   29.5323 N.pl3   1  UNL1       -0.0262
     18 C         -26.0604    4.6717   29.9329 C.3     1  UNL1        0.2778
     19 C         -26.4075    5.9916   30.5716 C.ar    1  UNL1        0.0285
     20 C         -26.5811    6.0199   31.8961 C.ar    1  UNL1       -0.0002
     21 C         -26.9188    7.2511   32.5678 C.ar    1  UNL1       -0.0002
     22 C         -26.5554    7.1319   29.7804 C.ar    1  UNL1       -0.0002
     23 C         -26.9181    8.3557   30.4529 C.ar    1  UNL1       -0.0002
     24 C         -27.0633    8.4017   31.8113 C.ar    1  UNL1       -0.0000
@<TRIPOS>BOND
     1     3     7    1
     2     7     8    2
     3     8     9    1
     4     4    15    1
     5    14    16    1
     6    15    16    2
     7    16    17    1
     8    17    18    1
     9    18    19    1
    10     9    10   ar
    11    10    11   ar
    12    11    12   ar
    13    12    13   ar
    14    13    14   ar
    15    14     9   ar
    16    19    20   ar
    17    20    21   ar
    18    21    24   ar
    19    24    23   ar
    20    23    22   ar
    21    22    19   ar
    22     1     2   ar
    23     2     5   ar
    24     5     6   ar
    25     6     4   ar
    26     4     3   ar
    27     3     1   ar
