@<TRIPOS>MOLECULE
No_4229-gen_results/8p0m/2024-11-26-14-13-15/
 13 14 0 0 0
SMALL
GASTEIGER

@<TRIPOS>ATOM
      1 C         -28.0162   -0.8135   28.8779 C.ar    1  UNL1       -0.0039
      2 C         -28.4690   -0.7850   29.8287 C.ar    1  UNL1       -0.0003
      3 C         -27.1356    0.2359   28.5352 C.ar    1  UNL1       -0.0178
      4 C         -26.3351    0.2900   27.2835 C.3     1  UNL1        0.0526
      5 C         -28.3692    0.1957   30.9236 C.ar    1  UNL1       -0.0000
      6 C         -27.5158    1.2655   30.6540 C.ar    1  UNL1       -0.0003
      7 C         -26.8411    1.2942   29.4761 C.ar    1  UNL1       -0.0039
      8 C         -25.3613    0.7751   26.9673 C.ar    1  UNL1       -0.0178
      9 C         -24.6558    0.7452   25.7260 C.ar    1  UNL1       -0.0039
     10 C         -23.4667    1.4075   25.4766 C.ar    1  UNL1       -0.0003
     11 C         -22.9380    2.2097   26.4932 C.ar    1  UNL1       -0.0000
     12 C         -24.5891    1.6360   27.9046 C.ar    1  UNL1       -0.0039
     13 C         -23.4063    2.2628   27.6830 C.ar    1  UNL1       -0.0003
@<TRIPOS>BOND
     1     3     4    1
     2     4     8    1
     3     1     2   ar
     4     2     5   ar
     5     5     6   ar
     6     6     7   ar
     7     7     3   ar
     8     3     1   ar
     9     8     9   ar
    10     9    10   ar
    11    10    11   ar
    12    11    13   ar
    13    13    12   ar
    14    12     8   ar
