@<TRIPOS>MOLECULE
No_4230-gen_results/8p0m/2024-11-26-14-13-15/
 35 38 0 0 0
SMALL
GASTEIGER

@<TRIPOS>ATOM
      1 C         -28.0162   -0.8135   28.8779 C.ar    1  UNL1        0.0375
      2 C         -27.0636   -0.1190   28.6079 C.ar    1  UNL1        0.0028
      3 C         -25.7923   -0.4302   29.0761 C.ar    1  UNL1       -0.0035
      4 C         -24.5456    0.3494   28.8225 C.ar    1  UNL1       -0.0190
      5 C         -23.2409    0.0217   29.3323 C.ar    1  UNL1       -0.0040
      6 C         -27.8820   -1.8995   29.8633 C.ar    1  UNL1        0.1453
      7 C         -26.6526   -2.3142   30.3138 C.ar    1  UNL1        0.0375
      8 C         -25.5153   -1.5607   29.9787 C.ar    1  UNL1        0.0027
      9 C         -23.2072   -1.2289   30.0311 C.ar    1  UNL1       -0.0003
     10 C         -24.2434   -1.9361   30.3879 C.ar    1  UNL1        0.0001
     11 C         -24.5886    1.5613   27.9544 C.3     1  UNL1        0.0377
     12 C         -24.8729    1.4209   26.6656 C.3     1  UNL1        0.0088
     13 C         -23.2341    2.3346   28.0747 C.3     1  UNL1        0.0088
     14 C         -25.5891    2.5601   28.6509 C.ar    1  UNL1       -0.0189
     15 C         -26.2900    3.3995   27.8043 C.ar    1  UNL1       -0.0040
     16 C         -25.7334    2.6877   30.0494 C.ar    1  UNL1        0.0006
     17 C         -26.8411    3.3258   30.6057 C.ar    1  UNL1        0.0551
     18 C         -27.4690    4.2376   29.8304 C.ar    1  UNL1        0.0046
     19 C         -27.3381    4.1912   28.4117 C.ar    1  UNL1       -0.0002
     20 O         -29.0127   -2.6260   30.1641 O.3     1  UNL1       -0.4533
     21 C         -30.0801   -2.0356   30.7147 C.ar    1  UNL1        0.1516
     22 C         -30.6517   -2.8033   31.6746 C.ar    1  UNL1        0.1142
     23 C         -31.7531   -2.2743   32.2665 C.ar    1  UNL1        0.0097
     24 C         -30.2526   -4.1027   32.0849 C.2     1  UNL1        0.3907
     25 C         -32.2236   -0.9826   32.0211 C.ar    1  UNL1        0.0004
     26 C         -31.5486   -0.2730   30.9969 C.ar    1  UNL1        0.0031
     27 C         -30.4483   -0.7638   30.3796 C.ar    1  UNL1        0.0377
     28 O         -29.1802   -4.5140   31.9236 O.co2   1  UNL1       -0.2404
     29 O         -31.1640   -4.8832   32.5309 O.co2   1  UNL1       -0.2404
     30 C         -26.9852    3.2820   32.0658 C.2     1  UNL1        0.2690
     31 N         -26.4667    3.9830   32.8282 N.am    1  UNL1       -0.1745
     32 O         -27.7586    2.2905   32.4877 O.2     1  UNL1       -0.2680
     33 C         -26.3698    4.2144   33.8673 C.2     1  UNL1        0.0844
     34 C         -26.9962    3.6169   34.8191 C.2     1  UNL1       -0.0079
     35 C         -28.2731    4.0908   35.1273 C.3     1  UNL1        0.0321
@<TRIPOS>BOND
     1     4    11    1
     2    11    12    1
     3    11    13    1
     4    11    14    1
     5     6    20    1
     6    20    21    1
     7    22    24    1
     8    24    28   ar
     9    24    29   ar
    10    17    30    1
    11    30    31   am
    12    30    32    2
    13    31    33    1
    14    33    34    2
    15    34    35    1
    16     1     2   ar
    17     2     3   ar
    18     8     7   ar
    19     7     6   ar
    20     6     1   ar
    21    21    22   ar
    22    22    23   ar
    23    23    25   ar
    24    25    26   ar
    25    26    27   ar
    26    27    21   ar
    27     3     4   ar
    28     4     5   ar
    29     5     9   ar
    30     9    10   ar
    31    10     8   ar
    32     8     3   ar
    33    14    15   ar
    34    15    19   ar
    35    19    18   ar
    36    18    17   ar
    37    17    16   ar
    38    16    14   ar
