@<TRIPOS>MOLECULE
No_4231-gen_results/8p0m/2024-11-26-14-13-15/
 5 4 0 0 0
SMALL
GASTEIGER

@<TRIPOS>ATOM
      1 F         -28.0727   -1.2542   28.5316 F       1  UNL1       -0.1558
      2 C         -27.0607   -0.6291   28.8721 C.3     1  UNL1        0.4770
      3 CL        -27.1422    0.5775   29.5805 Cl      1  UNL1       -0.0096
      4 F         -26.2506   -1.5798   29.6529 F       1  UNL1       -0.1558
      5 F         -26.2828   -0.4972   27.7325 F       1  UNL1       -0.1558
@<TRIPOS>BOND
     1     1     2    1
     2     2     3    1
     3     2     4    1
     4     2     5    1
