@<TRIPOS>MOLECULE
No_4232-gen_results/8p0m/2024-11-26-14-13-15/
 18 18 0 0 0
SMALL
GASTEIGER

@<TRIPOS>ATOM
      1 C         -28.0162   -0.8135   28.8779 C.2     1  UNL1        0.2495
      2 C         -27.0636   -0.1190   28.6079 C.ar    1  UNL1        0.0536
      3 C         -26.9287    1.1713   29.0083 C.ar    1  UNL1        0.0045
      4 C         -25.7702    2.0341   28.6884 C.ar    1  UNL1        0.0040
      5 C         -24.7141    1.4431   27.9188 C.ar    1  UNL1        0.0714
      6 C         -24.8590    0.0783   27.5836 C.ar    1  UNL1        0.0040
      7 C         -25.9647   -0.6606   27.9164 C.ar    1  UNL1        0.0045
      8 N         -27.9820   -1.6112   30.1028 N.am    1  UNL1       -0.2643
      9 C         -23.5351    2.1704   27.5550 C.3     1  UNL1        0.4186
     10 F         -22.6455    1.5740   27.1506 F       1  UNL1       -0.1659
     11 F         -23.0609    2.8934   28.6474 F       1  UNL1       -0.1659
     12 F         -23.8997    3.1900   26.7043 F       1  UNL1       -0.1659
     13 O         -29.2132   -0.3754   28.6958 O.2     1  UNL1       -0.2699
     14 C         -29.0345   -2.4694   30.6250 C.3     1  UNL1        0.2088
     15 C         -26.6855   -1.9883   30.7144 C.3     1  UNL1        0.1157
     16 C         -28.9202   -3.8224   30.3125 C.2     1  UNL1        0.3847
     17 O         -29.8220   -4.5902   30.6631 O.co2   1  UNL1       -0.2437
     18 O         -27.7211   -4.3953   30.1370 O.co2   1  UNL1       -0.2437
@<TRIPOS>BOND
     1     1     2    1
     2     1     8   am
     3     5     9    1
     4     9    10    1
     5     9    11    1
     6     9    12    1
     7     1    13    2
     8     8    14    1
     9     8    15    1
    10    14    16    1
    11    16    17   ar
    12    16    18   ar
    13     2     3   ar
    14     3     4   ar
    15     4     5   ar
    16     5     6   ar
    17     6     7   ar
    18     7     2   ar
