@<TRIPOS>MOLECULE
No_4233-gen_results/8p0m/2024-11-26-14-13-15/
 28 30 0 0 0
SMALL
GASTEIGER

@<TRIPOS>ATOM
      1 O         -28.1229   -1.3353   28.4874 O.2     1  UNL1       -0.2728
      2 C         -27.0637   -0.8242   28.8687 C.2     1  UNL1        0.2517
      3 C         -26.9592    0.0926   29.7582 C.3     1  UNL1        0.1776
      4 N         -25.8472   -1.5491   28.6589 N.am    1  UNL1       -0.2062
      5 C         -25.7222    0.7177   30.1925 C.3     1  UNL1        0.0313
      6 C         -24.5852   -1.0823   29.0632 C.3     1  UNL1        0.1057
      7 C         -24.5116    0.0345   29.8223 C.3     1  UNL1        0.0992
      8 C         -23.3616    0.7791   30.1306 C.2     1  UNL1        0.2426
      9 N         -22.1629    0.0670   29.7877 N.am    1  UNL1       -0.2053
     10 O         -23.2531    1.8075   30.7206 O.2     1  UNL1       -0.2733
     11 C         -28.2116    0.8429   30.1428 C.2     1  UNL1        0.3296
     12 O         -28.8968    0.3137   30.8785 O.2     1  UNL1       -0.2492
     13 O         -28.3583    1.9950   29.6374 O.3     1  UNL1       -0.4264
     14 C         -29.5337    2.5367   29.2955 C.2     1  UNL1        0.1477
     15 C         -29.5419    3.4087   28.4368 C.2     1  UNL1        0.0349
     16 C         -28.3190    3.9425   27.8740 C.ar    1  UNL1        0.0029
     17 C         -27.2381    3.9225   28.5914 C.ar    1  UNL1        0.0024
     18 C         -25.8547    4.4054   28.1555 C.ar    1  UNL1        0.0296
     19 C         -25.9024    5.5053   27.3650 C.ar    1  UNL1        0.1401
     20 C         -27.1308    5.7604   26.6594 C.ar    1  UNL1        0.0296
     21 C         -28.2829    5.1145   26.9024 C.ar    1  UNL1        0.0024
     22 F         -24.7976    6.0841   26.9895 F       1  UNL1       -0.2042
     23 C         -22.0885   -1.0816   29.0828 C.3     1  UNL1        0.1169
     24 C         -23.3516   -1.6821   28.6859 C.3     1  UNL1        0.0456
     25 C         -30.5470    1.4173   29.0406 C.3     1  UNL1        0.1763
     26 N         -31.4719    1.6192   28.4014 N.pl3   1  UNL1       -0.2282
     27 C         -32.1963    0.7729   27.6868 C.2     1  UNL1        0.0806
     28 C         -33.2384    1.1440   26.8859 C.2     1  UNL1        0.0188
@<TRIPOS>BOND
     1     1     2    2
     2     2     3    1
     3     2     4   am
     4     4     6    1
     5     5     7    1
     6     7     8    1
     7     8     9   am
     8     8    10    2
     9     3    11    1
    10    11    12    2
    11    11    13    1
    12    13    14    1
    13    14    15    2
    14    15    16    1
    15    19    22    1
    16     6    24    1
    17    23    24    1
    18    14    25    1
    19    25    26    1
    20    26    27    1
    21    27    28    2
    22     3     5    1
    23     7     6    1
    24    23     9    1
    25    16    17   ar
    26    17    18   ar
    27    18    19   ar
    28    19    20   ar
    29    20    21   ar
    30    21    16   ar
