@<TRIPOS>MOLECULE
No_4234-gen_results/8p0m/2024-11-26-14-13-15/
 11 11 0 0 0
SMALL
GASTEIGER

@<TRIPOS>ATOM
      1 C         -28.0162   -0.8135   28.8779 C.3     1  UNL1        0.1150
      2 C         -27.0636   -0.1189   28.6079 C.ar    1  UNL1       -0.0048
      3 C         -25.7923   -0.4302   29.0761 C.ar    1  UNL1       -0.0028
      4 C         -24.5456    0.3494   28.8225 C.ar    1  UNL1        0.0013
      5 C         -24.6586    1.4196   27.8878 C.ar    1  UNL1        0.0209
      6 C         -25.9471    1.6811   27.3792 C.ar    1  UNL1        0.0013
      7 C         -27.0439    0.9739   27.6871 C.ar    1  UNL1       -0.0028
      8 N         -29.1797   -0.1202   29.1288 N.3     1  UNL1       -0.2118
      9 C         -30.2095   -0.7652   29.7428 C.3     1  UNL1        0.1079
     10 C         -23.4456    2.1545   27.6087 C.2     1  UNL1        0.1221
     11 N         -22.2487    1.7329   28.0877 N.2     1  UNL1       -0.1464
@<TRIPOS>BOND
     1     1     2    1
     2     1     8    1
     3     8     9    1
     4     5    10    1
     5    10    11    2
     6     2     3   ar
     7     3     4   ar
     8     4     5   ar
     9     5     6   ar
    10     6     7   ar
    11     7     2   ar
