@<TRIPOS>MOLECULE
No_4235-gen_results/8p0m/2024-11-26-14-13-15/
 14 14 0 0 0
SMALL
GASTEIGER

@<TRIPOS>ATOM
      1 C         -28.0162   -0.8135   28.8779 C.2     1  UNL1        0.0772
      2 C         -27.0636   -0.1189   28.6079 C.2     1  UNL1       -0.0277
      3 C         -26.9716    0.7139   27.5060 C.3     1  UNL1        0.0236
      4 C         -25.8205    1.4909   27.1160 C.3     1  UNL1        0.0129
      5 C         -24.6562    1.4242   27.9180 C.3     1  UNL1        0.0958
      6 C         -24.6847    0.5901   29.0659 C.3     1  UNL1        0.0129
      7 C         -25.8099   -0.1265   29.3338 C.3     1  UNL1        0.0236
      8 N         -27.9662   -1.6794   30.0086 N.pl3   1  UNL1       -0.2105
      9 C         -23.4718    2.1970   27.6168 C.3     1  UNL1        0.3975
     10 F         -22.6206    1.6964   27.1259 F       1  UNL1       -0.1701
     11 F         -23.8553    3.3450   26.8896 F       1  UNL1       -0.1701
     12 F         -23.0138    2.7943   28.7646 F       1  UNL1       -0.1701
     13 C         -28.9948   -2.0584   30.7294 C.2     1  UNL1        0.0857
     14 C         -28.8865   -3.1880   31.6081 C.2     1  UNL1        0.0192
@<TRIPOS>BOND
     1     1     2    2
     2     2     3    1
     3     3     4    1
     4     4     5    1
     5     5     6    1
     6     2     7    1
     7     6     7    1
     8     1     8    1
     9     5     9    1
    10     9    10    1
    11     9    11    1
    12     9    12    1
    13     8    13    1
    14    13    14    2
