@<TRIPOS>MOLECULE
No_4236-gen_results/8p0m/2024-11-26-14-13-15/
 21 24 0 0 0
SMALL
GASTEIGER

@<TRIPOS>ATOM
      1 C         -28.0162   -0.8135   28.8779 C.ar    1  UNL1        0.0049
      2 C         -27.0636   -0.1189   28.6079 C.ar    1  UNL1        0.0107
      3 C         -25.7923   -0.4302   29.0761 C.ar    1  UNL1       -0.0016
      4 C         -24.5456    0.3494   28.8225 C.ar    1  UNL1       -0.0009
      5 C         -24.6586    1.4196   27.8878 C.ar    1  UNL1        0.0192
      6 C         -23.5403    2.1791   27.5500 C.ar    1  UNL1        0.1418
      7 C         -22.2925    1.7429   28.0473 C.ar    1  UNL1        0.0372
      8 C         -22.1712    0.7080   28.9284 C.ar    1  UNL1        0.0031
      9 C         -23.3345   -0.0624   29.3081 C.ar    1  UNL1       -0.0001
     10 C         -27.9466   -1.8823   29.8708 C.ar    1  UNL1        0.0795
     11 C         -26.7159   -2.3287   30.3060 C.ar    1  UNL1        0.0066
     12 C         -25.5921   -1.5643   29.9672 C.ar    1  UNL1       -0.0000
     13 C         -29.1228   -2.6879   30.2451 C.2     1  UNL1        0.3877
     14 O         -30.2167   -2.1838   30.2274 O.co2   1  UNL1       -0.2406
     15 O         -28.9144   -3.7356   31.0268 O.co2   1  UNL1       -0.2406
     16 O         -23.6467    3.1736   26.6958 O.3     1  UNL1       -0.4511
     17 C         -24.9839    3.1832   26.0958 C.2     1  UNL1        0.1753
     18 C         -25.8091    1.7549   27.2708 C.3     1  UNL1        0.0872
     19 C         -25.9412    2.7664   26.3909 C.2     1  UNL1        0.0217
     20 C         -27.0393    0.9642   27.6825 C.3     1  UNL1        0.1914
     21 F         -28.2031    1.2461   27.1289 F       1  UNL1       -0.2317
@<TRIPOS>BOND
     1     3     4    1
     2    10    13    1
     3    13    14   ar
     4    13    15   ar
     5     6    16    1
     6    16    17    1
     7     5    18    1
     8    17    19    2
     9    18    19    1
    10     2    20    1
    11    18    20    1
    12    20    21    1
    13     1     2   ar
    14     2     3   ar
    15     3    12   ar
    16    12    11   ar
    17    11    10   ar
    18    10     1   ar
    19     4     5   ar
    20     5     6   ar
    21     6     7   ar
    22     7     8   ar
    23     8     9   ar
    24     9     4   ar
