@<TRIPOS>MOLECULE
No_4237-gen_results/8p0m/2024-11-26-14-13-15/
 22 23 0 0 0
SMALL
GASTEIGER

@<TRIPOS>ATOM
      1 C         -28.0162   -0.8135   28.8779 C.ar    1  UNL1        0.0399
      2 C         -28.4690   -0.7850   29.8287 C.ar    1  UNL1        0.1478
      3 C         -28.1816    0.4277   28.1134 C.ar    1  UNL1        0.0349
      4 C         -27.4498    0.6435   26.8500 C.ar    1  UNL1        0.0306
      5 C         -26.4529    0.9939   26.6681 C.ar    1  UNL1        0.0137
      6 C         -25.5831    0.4816   25.6005 C.ar    1  UNL1        0.0578
      7 C         -29.4401    0.0830   30.4451 C.ar    1  UNL1        0.0694
      8 C         -29.6515    1.2097   29.7516 C.ar    1  UNL1        0.1704
      9 C         -29.0257    1.4242   28.5721 C.ar    1  UNL1        0.1676
     10 C         -26.2346   -0.2065   24.5732 C.ar    1  UNL1        0.0137
     11 C         -28.0155   -0.1032   25.6676 C.ar    1  UNL1        0.1402
     12 C         -27.4065   -0.4485   24.6409 C.ar    1  UNL1        0.0305
     13 CL        -23.9262    0.9703   25.5042 Cl      1  UNL1       -0.0822
     14 F         -29.4037   -0.4653   25.8354 F       1  UNL1       -0.2042
     15 F         -29.2161    2.4574   27.8606 F       1  UNL1       -0.2018
     16 F         -30.4718    2.1612   30.1867 F       1  UNL1       -0.2017
     17 O         -28.2986   -2.0182   30.6727 O.3     1  UNL1       -0.4503
     18 C         -27.5869   -3.0023   30.1597 C.2     1  UNL1        0.1795
     19 C         -26.2708   -2.7983   29.8337 C.2     1  UNL1        0.0403
     20 C         -25.5677   -1.5856   29.8937 C.2     1  UNL1       -0.0013
     21 C         -24.2290   -1.5091   29.4707 C.2     1  UNL1       -0.0257
     22 C         -23.6673   -2.6978   28.9381 C.3     1  UNL1        0.0307
@<TRIPOS>BOND
     1     3     4    1
     2     6    13    1
     3    11    14    1
     4     9    15    1
     5     8    16    1
     6     2    17    1
     7    17    18    1
     8    18    19    2
     9    19    20    1
    10    20    21    2
    11    21    22    1
    12     4     5   ar
    13     5     6   ar
    14     6    10   ar
    15    10    12   ar
    16    12    11   ar
    17    11     4   ar
    18     1     2   ar
    19     2     7   ar
    20     7     8   ar
    21     8     9   ar
    22     9     3   ar
    23     3     1   ar
