@<TRIPOS>MOLECULE
No_4238-gen_results/8p0m/2024-11-26-14-13-15/
 33 34 0 0 0
SMALL
GASTEIGER

@<TRIPOS>ATOM
      1 F         -28.0727   -1.2542   28.5316 F       1  UNL1       -0.2032
      2 C         -27.3591   -0.3792   28.7224 C.ar    1  UNL1        0.1535
      3 C         -27.7014    0.7608   29.1249 C.ar    1  UNL1        0.0852
      4 C         -25.8844   -0.6918   28.4374 C.ar    1  UNL1        0.0676
      5 C         -24.9212    0.3779   28.6013 C.ar    1  UNL1        0.1614
      6 C         -26.6914    1.8696   29.2705 C.ar    1  UNL1        0.0167
      7 C         -25.3451    1.6252   29.0013 C.ar    1  UNL1        0.0381
      8 N         -23.6043    0.1786   28.3700 N.pl3   1  UNL1       -0.0633
      9 C         -22.7382   -0.3988   29.2924 C.cat   1  UNL1        0.4997
     10 N         -21.4554   -0.4603   28.9403 N.pl3   1  UNL1        0.1321
     11 N         -23.1928   -0.8976   30.4091 N.pl3   1  UNL1       -0.0924
     12 C         -24.4242   -0.8891   30.8625 C.3     1  UNL1        0.1859
     13 C         -24.4696   -0.2992   32.3462 C.3     1  UNL1        0.0693
     14 C         -25.1878    0.9517   32.4988 C.ar    1  UNL1       -0.0201
     15 C         -24.8447    1.9399   31.8511 C.ar    1  UNL1        0.0022
     16 C         -25.4275    3.3089   32.2244 C.ar    1  UNL1        0.0794
     17 C         -26.3416    3.3371   33.2401 C.ar    1  UNL1        0.0063
     18 C         -26.0735    1.0587   33.6493 C.ar    1  UNL1        0.0034
     19 C         -26.6240    2.2529   33.9663 C.ar    1  UNL1       -0.0020
     20 C         -24.8416   -2.3941   31.1799 C.3     1  UNL1        0.0554
     21 CL        -29.2735    0.9400   29.6448 Cl      1  UNL1       -0.0799
     22 C         -25.0245    4.5419   31.4591 C.2     1  UNL1        0.3877
     23 O         -24.1925    5.1729   32.1427 O.co2   1  UNL1       -0.2406
     24 O         -25.4206    4.8303   30.4451 O.co2   1  UNL1       -0.2406
     25 C         -25.9544   -2.7238   30.1477 C.3     1  UNL1        0.1176
     26 C         -25.6872   -4.1266   29.6788 C.2     1  UNL1        0.3650
     27 O         -26.7448   -4.9476   29.7406 O.co2   1  UNL1       -0.2457
     28 O         -24.6789   -4.4348   29.0362 O.co2   1  UNL1       -0.2457
     29 C         -26.4395   -0.1920   34.3923 C.3     1  UNL1        0.1683
     30 O         -27.2688    0.0922   35.2870 O.3     1  UNL1       -0.3477
     31 C         -28.2420   -0.7650   35.4948 C.3     1  UNL1        0.1601
     32 C         -28.6262   -1.3306   34.2608 C.3     1  UNL1        0.1268
     33 CL        -27.7994   -1.0794   32.9270 Cl      1  UNL1       -0.1110
@<TRIPOS>BOND
     1     1     2    1
     2     5     8    1
     3     8     9    1
     4     9    10    2
     5     9    11    1
     6    11    12    1
     7    12    13    1
     8    13    14    1
     9    12    20    1
    10     3    21    1
    11    16    22    1
    12    22    23   ar
    13    22    24   ar
    14    20    25    1
    15    25    26    1
    16    26    27   ar
    17    26    28   ar
    18    18    29    1
    19    29    30    1
    20    30    31    1
    21    31    32    1
    22    32    33    1
    23     2     3   ar
    24     3     6   ar
    25     6     7   ar
    26     7     5   ar
    27     5     4   ar
    28     4     2   ar
    29    14    15   ar
    30    15    16   ar
    31    16    17   ar
    32    17    19   ar
    33    19    18   ar
    34    18    14   ar
