@<TRIPOS>MOLECULE
No_4239-gen_results/8p0m/2024-11-26-14-13-15/
 25 26 0 0 0
SMALL
GASTEIGER

@<TRIPOS>ATOM
      1 C         -28.0162   -0.8135   28.8779 C.ar    1  UNL1        0.0065
      2 C         -28.4690   -0.7850   29.8287 C.ar    1  UNL1        0.0762
      3 C         -28.1960    0.3478   28.0550 C.ar    1  UNL1        0.0006
      4 C         -29.0191    1.3501   28.3782 C.ar    1  UNL1        0.0066
      5 C         -29.4107    0.1803   30.3782 C.ar    1  UNL1        0.0130
      6 C         -29.6059    1.2495   29.6193 C.ar    1  UNL1        0.0800
      7 C         -27.4478    0.3799   26.7122 C.ar    1  UNL1        0.0064
      8 C         -27.8571    0.8148   25.7030 C.ar    1  UNL1        0.0798
      9 C         -27.0630    0.7577   24.4548 C.ar    1  UNL1        0.0066
     10 C         -25.9840    0.5694   26.7882 C.ar    1  UNL1        0.0002
     11 C         -25.0935    0.6154   25.7476 C.ar    1  UNL1        0.0000
     12 C         -25.6972    0.7249   24.4995 C.ar    1  UNL1        0.0002
     13 C         -30.5586    2.3600   30.0144 C.2     1  UNL1        0.3878
     14 O         -31.1819    2.9766   29.3520 O.co2   1  UNL1       -0.2406
     15 O         -30.4916    2.5511   31.3773 O.co2   1  UNL1       -0.2406
     16 C         -29.3509    0.8415   25.3018 C.2     1  UNL1        0.3878
     17 O         -30.1195   -0.0130   24.9509 O.co2   1  UNL1       -0.2406
     18 O         -29.8725    2.1197   25.3495 O.co2   1  UNL1       -0.2406
     19 C         -28.3108   -2.0393   30.8424 C.2     1  UNL1        0.3458
     20 O         -28.9420   -2.8354   30.9392 O.3     1  UNL1       -0.4179
     21 O         -27.5648   -1.5690   31.9171 O.2     1  UNL1       -0.2445
     22 C         -29.7254   -3.3226   31.7021 C.2     1  UNL1        0.1831
     23 C         -29.9861   -4.6330   31.5469 C.2     1  UNL1        0.0408
     24 C         -29.8007   -5.2564   30.2853 C.2     1  UNL1        0.0032
     25 C         -29.3508   -4.4114   29.3250 C.2     1  UNL1        0.0001
@<TRIPOS>BOND
     1     3     7    1
     2     6    13    1
     3    13    14   ar
     4    13    15   ar
     5     8    16    1
     6    16    17   ar
     7    16    18   ar
     8     2    19    1
     9    19    20    1
    10    19    21    2
    11    20    22    1
    12    22    23    2
    13    23    24    1
    14    24    25    2
    15     1     2   ar
    16     2     5   ar
    17     5     6   ar
    18     6     4   ar
    19     4     3   ar
    20     3     1   ar
    21     7     8   ar
    22     8     9   ar
    23     9    12   ar
    24    12    11   ar
    25    11    10   ar
    26    10     7   ar
