@<TRIPOS>MOLECULE
No_424-gen_results/8p0m/2024-11-26-14-13-15/
 16 18 0 0 0
SMALL
GASTEIGER

@<TRIPOS>ATOM
      1 C         -28.0162   -0.8135   28.8779 C.ar    1  UNL1        0.0000
      2 C         -27.0636   -0.1189   28.6079 C.ar    1  UNL1        0.0000
      3 C         -26.9716    0.7139   27.5060 C.ar    1  UNL1        0.0000
      4 C         -28.1053    0.7744   26.6421 C.ar    1  UNL1        0.0000
      5 C         -29.2041    0.1179   27.0477 C.ar    1  UNL1        0.0000
      6 C         -29.2127   -0.6088   28.1281 C.ar    1  UNL1        0.0000
      7 C         -25.7106    1.4519   27.1380 C.ar    1  UNL1        0.0000
      8 C         -24.6052    0.9253   27.6902 C.ar    1  UNL1        0.0016
      9 C         -24.5938    0.0936   28.8218 C.ar    1  UNL1        0.0000
     10 C         -25.7077   -0.4530   29.2468 C.ar    1  UNL1        0.0000
     11 C         -23.2701    1.6921   27.4122 C.ar    1  UNL1        0.0210
     12 C         -23.2737    2.8188   26.6554 C.ar    1  UNL1        0.0016
     13 C         -24.5501    3.2071   25.9779 C.ar    1  UNL1        0.0000
     14 C         -25.7268    2.5015   26.2821 C.ar    1  UNL1        0.0000
     15 C         -22.0064    1.3302   28.0742 C.2     1  UNL1        0.1221
     16 N         -21.9654    0.2548   28.8862 N.2     1  UNL1       -0.1464
@<TRIPOS>BOND
     1    11    15    1
     2    15    16    2
     3     1     2   ar
     4     3     4   ar
     5     4     5   ar
     6     5     6   ar
     7     6     1   ar
     8     8    11   ar
     9    11    12   ar
    10    12    13   ar
    11    13    14   ar
    12    14     7   ar
    13     2     3   ar
    14     3     7   ar
    15     7     8   ar
    16     8     9   ar
    17     9    10   ar
    18    10     2   ar
