@<TRIPOS>MOLECULE
No_4240-gen_results/8p0m/2024-11-26-14-13-15/
 23 24 0 0 0
SMALL
GASTEIGER

@<TRIPOS>ATOM
      1 C         -28.0162   -0.8135   28.8779 C.ar    1  UNL1        0.0114
      2 C         -28.4690   -0.7850   29.8287 C.ar    1  UNL1        0.0008
      3 C         -28.1960    0.3478   28.0550 C.ar    1  UNL1        0.0577
      4 C         -29.0191    1.3501   28.3782 C.ar    1  UNL1        0.0114
      5 C         -29.4107    0.1803   30.3782 C.ar    1  UNL1       -0.0006
      6 C         -29.6059    1.2495   29.6193 C.ar    1  UNL1        0.0008
      7 CL        -27.3467    0.3759   26.5145 Cl      1  UNL1       -0.0822
      8 C         -30.1606    0.1144   31.6913 C.2     1  UNL1       -0.0082
      9 C         -29.3916    0.0207   32.7641 C.2     1  UNL1       -0.0395
     10 C         -30.0469   -0.1104   34.0931 C.3     1  UNL1        0.0267
     11 C         -27.9644    0.0354   32.7800 C.3     1  UNL1        0.0483
     12 C         -27.1219    0.2474   32.0090 C.ar    1  UNL1       -0.0181
     13 C         -26.5619    1.5485   31.8518 C.ar    1  UNL1       -0.0043
     14 C         -25.5542    1.9044   31.2876 C.ar    1  UNL1       -0.0041
     15 C         -24.7571    0.9445   30.5657 C.ar    1  UNL1       -0.0130
     16 C         -25.1715   -0.3546   30.6681 C.ar    1  UNL1       -0.0041
     17 C         -26.2840   -0.7039   31.3986 C.ar    1  UNL1       -0.0043
     18 C         -23.5985    1.3414   29.7471 C.3     1  UNL1        0.1134
     19 C         -23.8570    2.0115   28.5148 C.2     1  UNL1        0.2497
     20 N         -22.9114    1.9169   27.5925 N.am    1  UNL1       -0.1823
     21 C         -23.1528    2.3220   26.2889 C.2     1  UNL1        0.0626
     22 C         -24.4490    2.8712   26.0136 C.3     1  UNL1        0.0504
     23 O         -25.0125    2.5046   28.1273 O.2     1  UNL1       -0.2726
@<TRIPOS>BOND
     1     3     7    1
     2     5     8    1
     3     8     9    2
     4     9    10    1
     5     9    11    1
     6    11    12    1
     7    15    18    1
     8    18    19    1
     9    19    20    1
    10    20    21    2
    11    21    22    1
    12    19    23    2
    13    12    13   ar
    14    13    14   ar
    15    14    15   ar
    16    15    16   ar
    17    16    17   ar
    18    17    12   ar
    19     1     2   ar
    20     2     5   ar
    21     5     6   ar
    22     6     4   ar
    23     4     3   ar
    24     3     1   ar
