@<TRIPOS>MOLECULE
No_4241-gen_results/8p0m/2024-11-26-14-13-15/
 10 10 0 0 0
SMALL
GASTEIGER

@<TRIPOS>ATOM
      1 C         -28.0162   -0.8135   28.8779 C.ar    1  UNL1       -0.0026
      2 C         -28.4690   -0.7850   29.8287 C.ar    1  UNL1       -0.0007
      3 C         -26.5042   -0.7777   28.8766 C.ar    1  UNL1       -0.0003
      4 C         -25.8103   -0.8531   30.1028 C.ar    1  UNL1       -0.0000
      5 C         -30.0136   -0.8410   29.8508 C.3     1  UNL1        0.1386
      6 C         -26.5670   -0.8850   31.2517 C.ar    1  UNL1       -0.0003
      7 C         -27.9411   -0.9069   31.1850 C.ar    1  UNL1       -0.0026
      8 N         -30.6475   -0.1344   28.9948 N.pl3   1  UNL1       -0.2315
      9 C         -31.5638    0.3537   28.8508 C.2     1  UNL1        0.0805
     10 C         -32.0176    1.0196   27.6157 C.2     1  UNL1        0.0188
@<TRIPOS>BOND
     1     2     5    1
     2     5     8    1
     3     8     9    1
     4     9    10    2
     5     1     2   ar
     6     2     7   ar
     7     7     6   ar
     8     6     4   ar
     9     4     3   ar
    10     3     1   ar
