@<TRIPOS>MOLECULE
No_4245-gen_results/8p0m/2024-11-26-14-13-15/
 11 12 0 0 0
SMALL
GASTEIGER

@<TRIPOS>ATOM
      1 C         -28.0162   -0.8135   28.8779 C.ar    1  UNL1       -0.0040
      2 C         -28.4690   -0.7850   29.8287 C.ar    1  UNL1       -0.0003
      3 C         -28.1960    0.3478   28.0550 C.ar    1  UNL1       -0.0003
      4 C         -27.4421    0.5100   26.7946 C.ar    1  UNL1       -0.0000
      5 C         -26.1689   -0.0794   26.6787 C.ar    1  UNL1       -0.0003
      6 C         -25.7312   -0.9607   27.6875 C.ar    1  UNL1       -0.0043
      7 C         -26.5043   -1.2222   28.7582 C.ar    1  UNL1       -0.0218
      8 C         -29.6530   -0.2892   30.1660 C.ar    1  UNL1       -0.0000
      9 C         -30.0958    0.7019   29.2325 C.ar    1  UNL1       -0.0000
     10 C         -29.3946    1.0067   28.0841 C.ar    1  UNL1       -0.0000
     11 C         -26.0332   -2.0435   29.8498 C.3     1  UNL1        0.0310
@<TRIPOS>BOND
     1     7    11    1
     2     1     2   ar
     3     2     8   ar
     4     8     9   ar
     5     9    10   ar
     6    10     3   ar
     7     1     3   ar
     8     3     4   ar
     9     4     5   ar
    10     5     6   ar
    11     6     7   ar
    12     7     1   ar
