@<TRIPOS>MOLECULE
No_4246-gen_results/8p0m/2024-11-26-14-13-15/
 12 13 0 0 0
SMALL
GASTEIGER

@<TRIPOS>ATOM
      1 O         -28.1229   -1.3353   28.4874 O.2     1  UNL1       -0.2957
      2 C         -27.0637   -0.8242   28.8687 C.2     1  UNL1        0.1553
      3 C         -25.9464   -1.0396   28.8492 C.3     1  UNL1        0.0904
      4 C         -24.7602   -0.1562   29.1644 C.ar    1  UNL1       -0.0191
      5 C         -23.3890   -0.4550   29.0162 C.ar    1  UNL1       -0.0084
      6 C         -27.2727    0.6766   29.5669 C.3     1  UNL1        0.0695
      7 C         -26.2729    1.5233   29.8668 C.3     1  UNL1        0.0338
      8 C         -24.9824    1.1601   29.6992 C.ar    1  UNL1       -0.0253
      9 C         -22.3645    0.4772   28.9546 C.ar    1  UNL1       -0.0222
     10 C         -22.6986    1.7723   29.2345 C.ar    1  UNL1       -0.0046
     11 C         -23.9010    2.1121   29.7434 C.ar    1  UNL1       -0.0049
     12 C         -20.9970    0.0883   28.6444 C.3     1  UNL1        0.0310
@<TRIPOS>BOND
     1     1     2    2
     2     2     3    1
     3     3     4    1
     4     2     6    1
     5     7     8    1
     6     9    12    1
     7     7     6    1
     8     4     5   ar
     9     5     9   ar
    10     9    10   ar
    11    10    11   ar
    12    11     8   ar
    13     8     4   ar
