@<TRIPOS>MOLECULE
No_4248-gen_results/8p0m/2024-11-26-14-13-15/
 15 17 0 0 0
SMALL
GASTEIGER

@<TRIPOS>ATOM
      1 C         -28.0162   -0.8135   28.8779 C.ar    1  UNL1        0.0190
      2 C         -27.0636   -0.1190   28.6079 C.ar    1  UNL1        0.0132
      3 C         -26.9716    0.7139   27.5060 C.3     1  UNL1        0.1876
      4 C         -25.8205    1.4909   27.1160 C.3     1  UNL1        0.0662
      5 C         -24.8579    1.3421   27.6008 C.ar    1  UNL1       -0.0190
      6 C         -24.6224    0.5295   28.8144 C.ar    1  UNL1       -0.0026
      7 C         -23.3412    0.3976   29.5010 C.ar    1  UNL1       -0.0003
      8 C         -25.7444   -0.2202   29.2289 C.ar    1  UNL1        0.0175
      9 C         -22.1653    0.5045   28.7887 C.ar    1  UNL1       -0.0000
     10 C         -27.9906   -1.2970   30.3511 C.ar    1  UNL1        0.0986
     11 N         -26.8091   -1.5910   30.9449 N.ar    1  UNL1       -0.2423
     12 C         -25.6894   -0.8486   30.5155 C.ar    1  UNL1        0.0986
     13 C         -22.0808    1.4069   27.7279 C.ar    1  UNL1       -0.0003
     14 C         -23.4414    1.9151   27.0328 C.ar    1  UNL1       -0.0042
     15 F         -28.1355    0.7973   26.8110 F       1  UNL1       -0.2321
@<TRIPOS>BOND
     1     2     3    1
     2     3     4    1
     3     4     5    1
     4     6     8    1
     5     3    15    1
     6     1     2   ar
     7     2     8   ar
     8     8    12   ar
     9    12    11   ar
    10    11    10   ar
    11    10     1   ar
    12     5     6   ar
    13     6     7   ar
    14     7     9   ar
    15     9    13   ar
    16    13    14   ar
    17    14     5   ar
