@<TRIPOS>MOLECULE
No_4249-gen_results/8p0m/2024-11-26-14-13-15/
 20 21 0 0 0
SMALL
GASTEIGER

@<TRIPOS>ATOM
      1 C         -28.0162   -0.8135   28.8779 C.ar    1  UNL1        0.0025
      2 C         -27.0636   -0.1189   28.6079 C.ar    1  UNL1        0.0065
      3 C         -26.9716    0.7139   27.5060 C.ar    1  UNL1        0.0026
      4 C         -28.1053    0.7744   26.6421 C.ar    1  UNL1        0.0296
      5 C         -29.2041    0.1179   27.0477 C.ar    1  UNL1        0.1401
      6 C         -29.2127   -0.6088   28.1281 C.ar    1  UNL1        0.0296
      7 C         -25.7106    1.4518   27.1380 C.ar    1  UNL1        0.0046
      8 C         -24.6052    0.9253   27.6902 C.ar    1  UNL1        0.0541
      9 C         -24.5938    0.0936   28.8218 C.ar    1  UNL1        0.0111
     10 C         -25.7077   -0.4530   29.2468 C.ar    1  UNL1        0.0799
     11 C         -23.2701    1.6921   27.4122 C.2     1  UNL1        0.2528
     12 N         -22.1196    1.1734   27.8460 N.am    1  UNL1       -0.2522
     13 O         -23.2616    2.7178   26.6718 O.2     1  UNL1       -0.2696
     14 C         -20.7940    1.7992   27.5768 C.3     1  UNL1        0.1204
     15 C         -25.6406   -1.4869   30.2884 C.2     1  UNL1        0.3878
     16 O         -25.3434   -1.1228   31.3315 O.co2   1  UNL1       -0.2406
     17 O         -26.0750   -2.6583   29.9542 O.co2   1  UNL1       -0.2406
     18 F         -30.3057    0.2682   26.3401 F       1  UNL1       -0.2042
     19 C         -22.0210    0.0576   28.7418 C.2     1  UNL1        0.0679
     20 C         -22.6165   -0.3851   29.5345 C.2     1  UNL1        0.0175
@<TRIPOS>BOND
     1     8    11    1
     2    11    12   am
     3    11    13    2
     4    12    14    1
     5    10    15    1
     6    15    16   ar
     7    15    17   ar
     8     5    18    1
     9    12    19    1
    10    19    20    2
    11     1     2   ar
    12     3     4   ar
    13     4     5   ar
    14     5     6   ar
    15     6     1   ar
    16     2     3   ar
    17     3     7   ar
    18     7     8   ar
    19     8     9   ar
    20     9    10   ar
    21    10     2   ar
