@<TRIPOS>MOLECULE
No_425-gen_results/8p0m/2024-11-26-14-13-15/
 15 15 0 0 0
SMALL
GASTEIGER

@<TRIPOS>ATOM
      1 C         -28.0162   -0.8135   28.8779 C.ar    1  UNL1        0.0047
      2 C         -28.4690   -0.7850   29.8287 C.ar    1  UNL1        0.0033
      3 C         -28.1960    0.3478   28.0550 C.ar    1  UNL1        0.0566
      4 C         -29.0191    1.3501   28.3782 C.ar    1  UNL1        0.0420
      5 C         -29.6249    1.2683   29.6012 C.ar    1  UNL1        0.1456
      6 C         -29.3821    0.1816   30.4004 C.ar    1  UNL1        0.0375
      7 C         -27.4497    0.3750   26.7070 C.2     1  UNL1        0.2492
      8 O         -26.4574    0.2602   26.6417 O.2     1  UNL1       -0.2699
      9 N         -28.3104    0.3005   25.5503 N.am    1  UNL1       -0.2726
     10 C         -29.6990    0.4348   25.5765 C.3     1  UNL1        0.1152
     11 C         -27.6466    0.2404   24.2878 C.3     1  UNL1        0.1152
     12 O         -30.4305    2.2656   30.0055 O.3     1  UNL1       -0.4508
     13 C         -30.1791    2.9260   31.0864 C.2     1  UNL1        0.1750
     14 C         -30.3726    4.1885   31.1738 C.2     1  UNL1        0.0148
     15 C         -30.0784    4.9339   32.3664 C.3     1  UNL1        0.0341
@<TRIPOS>BOND
     1     3     7    1
     2     7     8    2
     3     7     9   am
     4     9    10    1
     5     9    11    1
     6     5    12    1
     7    12    13    1
     8    13    14    2
     9    14    15    1
    10     1     2   ar
    11     2     6   ar
    12     6     5   ar
    13     5     4   ar
    14     4     3   ar
    15     3     1   ar
