@<TRIPOS>MOLECULE
No_4250-gen_results/8p0m/2024-11-26-14-13-15/
 26 28 0 0 0
SMALL
GASTEIGER

@<TRIPOS>ATOM
      1 C         -28.0162   -0.8135   28.8779 C.ar    1  UNL1        0.0369
      2 C         -27.0636   -0.1189   28.6079 C.ar    1  UNL1        0.0031
      3 C         -25.7647   -0.3897   29.0360 C.ar    1  UNL1        0.0002
      4 C         -25.5296   -1.5302   29.9014 C.ar    1  UNL1        0.0031
      5 C         -26.6888   -2.2893   30.1810 C.ar    1  UNL1        0.0369
      6 C         -27.8727   -1.9508   29.7373 C.ar    1  UNL1        0.1387
      7 O         -28.9304   -2.7298   30.1154 O.3     1  UNL1       -0.4714
      8 C         -24.4178    0.2270   28.7824 C.ar    1  UNL1        0.0000
      9 C         -24.3425    1.2461   27.8468 C.ar    1  UNL1        0.0000
     10 C         -23.0535    1.8186   27.5739 C.ar    1  UNL1        0.0000
     11 C         -21.8625    1.2945   28.1724 C.ar    1  UNL1        0.0000
     12 C         -23.2178   -0.2537   29.3103 C.ar    1  UNL1        0.0000
     13 C         -21.9535    0.2987   29.0069 C.ar    1  UNL1        0.0000
     14 C         -28.7912   -3.9922   30.6444 C.3     1  UNL1        0.2525
     15 C         -28.8386   -4.9816   29.8553 C.3     1  UNL1        0.2525
     16 O         -30.0802   -5.0585   29.3553 O.3     1  UNL1       -0.4717
     17 C         -31.0570   -5.7278   29.9587 C.ar    1  UNL1        0.1351
     18 C         -31.9356   -6.1464   29.1595 C.ar    1  UNL1        0.0189
     19 C         -33.0304   -6.9118   29.6116 C.ar    1  UNL1       -0.0009
     20 C         -33.1852   -7.0560   31.0158 C.ar    1  UNL1       -0.0001
     21 C         -32.2221   -6.5361   31.8241 C.ar    1  UNL1        0.0031
     22 C         -31.1241   -5.8616   31.3475 C.ar    1  UNL1        0.0366
     23 C         -31.9038   -6.0557   27.6676 C.3     1  UNL1        0.0901
     24 C         -31.6471   -7.0601   26.9052 C.3     1  UNL1        0.0131
     25 C         -32.0666   -4.7319   27.1413 C.2     1  UNL1        0.2114
     26 O         -31.7156   -3.7337   27.7178 O.2     1  UNL1       -0.2879
@<TRIPOS>BOND
     1     6     7    1
     2     3     8    1
     3     7    14    1
     4    14    15    1
     5    15    16    1
     6    16    17    1
     7    18    23    1
     8    23    24    1
     9    23    25    1
    10    25    26    2
    11    17    18   ar
    12    18    19   ar
    13    19    20   ar
    14    20    21   ar
    15    21    22   ar
    16    22    17   ar
    17     1     2   ar
    18     2     3   ar
    19     3     4   ar
    20     4     5   ar
    21     5     6   ar
    22     6     1   ar
    23     8     9   ar
    24     9    10   ar
    25    10    11   ar
    26    11    13   ar
    27    13    12   ar
    28    12     8   ar
