@<TRIPOS>MOLECULE
No_4251-gen_results/8p0m/2024-11-26-14-13-15/
 15 16 0 0 0
SMALL
GASTEIGER

@<TRIPOS>ATOM
      1 C         -28.0162   -0.8135   28.8779 C.ar    1  UNL1        0.0191
      2 C         -28.4690   -0.7850   29.8287 C.ar    1  UNL1        0.0810
      3 C         -27.0871    0.2903   28.6377 C.ar    1  UNL1        0.0015
      4 C         -26.7676    1.0274   29.4716 C.ar    1  UNL1        0.0001
      5 C         -28.2764    0.0268   31.0145 C.ar    1  UNL1        0.0191
      6 C         -27.3287    1.0538   30.7535 C.ar    1  UNL1        0.0015
      7 C         -25.7516    2.1742   29.2500 C.ar    1  UNL1        0.0000
      8 C         -25.3424    2.8864   29.9134 C.ar    1  UNL1        0.0000
      9 C         -25.3889    2.3820   27.7623 C.ar    1  UNL1        0.0000
     10 C         -24.4000    3.3398   27.4412 C.ar    1  UNL1        0.0000
     11 C         -24.3773    4.0581   29.7262 C.ar    1  UNL1        0.0000
     12 C         -23.9797    4.2176   28.4308 C.ar    1  UNL1        0.0000
     13 N         -29.4327   -1.9126   30.2012 N.2     1  UNL1       -0.2485
     14 C         -30.4860   -1.8457   30.5480 C.2     1  UNL1        0.0728
     15 C         -31.2658   -3.1037   30.8131 C.3     1  UNL1        0.0534
@<TRIPOS>BOND
     1     4     7    1
     2     2    13    1
     3    13    14    2
     4    14    15    1
     5     7     8   ar
     6     8    11   ar
     7    11    12   ar
     8    12    10   ar
     9    10     9   ar
    10     9     7   ar
    11     1     2   ar
    12     2     5   ar
    13     5     6   ar
    14     6     4   ar
    15     4     3   ar
    16     3     1   ar
