@<TRIPOS>MOLECULE
No_4252-gen_results/8p0m/2024-11-26-14-13-15/
 25 28 0 0 0
SMALL
GASTEIGER

@<TRIPOS>ATOM
      1 C         -28.0162   -0.8135   28.8779 C.ar    1  UNL1        0.0338
      2 C         -28.4690   -0.7850   29.8287 C.3     1  UNL1        0.1484
      3 C         -28.1816    0.4277   28.1134 C.ar    1  UNL1        0.0716
      4 C         -27.0280    0.9338   27.5279 C.ar    1  UNL1        0.0035
      5 CL        -30.0361   -0.8321   30.1662 Cl      1  UNL1       -0.1061
      6 C         -25.8426    0.1966   27.5898 C.ar    1  UNL1       -0.0010
      7 C         -25.6329   -0.8778   28.4484 C.ar    1  UNL1        0.0159
      8 C         -26.6496   -1.2541   28.9772 C.ar    1  UNL1        0.1321
      9 C         -27.7954   -1.8635   30.8927 C.3     1  UNL1        0.2260
     10 O         -26.5707   -2.0522   30.2674 O.3     1  UNL1       -0.4744
     11 C         -24.2748   -1.4830   28.5154 C.3     1  UNL1        0.0557
     12 C         -23.1691   -0.5477   28.9313 C.ar    1  UNL1       -0.0177
     13 C         -23.1326    0.0496   29.9863 C.ar    1  UNL1       -0.0039
     14 C         -23.1776    1.1633   30.2412 C.ar    1  UNL1       -0.0003
     15 C         -23.5324    2.0760   29.1691 C.ar    1  UNL1       -0.0000
     16 C         -24.2270    3.2646   29.3639 C.ar    1  UNL1       -0.0000
     17 C         -24.6928    3.9924   28.2068 C.ar    1  UNL1       -0.0000
     18 C         -24.2226    3.5356   26.9314 C.ar    1  UNL1       -0.0000
     19 C         -23.3441    2.4702   26.8556 C.ar    1  UNL1       -0.0000
     20 C         -23.0348    1.7512   27.9307 C.ar    1  UNL1       -0.0003
     21 C         -22.6692    0.1122   27.7962 C.ar    1  UNL1       -0.0039
     22 C         -29.4211    1.0423   27.8312 C.3     1  UNL1        0.4184
     23 F         -29.7422    1.9158   28.7007 F       1  UNL1       -0.1659
     24 F         -29.2967    1.7573   26.6424 F       1  UNL1       -0.1659
     25 F         -30.3197    0.1348   27.5942 F       1  UNL1       -0.1659
@<TRIPOS>BOND
     1     1     2    1
     2     2     5    1
     3     2     9    1
     4     8    10    1
     5     9    10    1
     6     7    11    1
     7    11    12    1
     8     3    22    1
     9    22    23    1
    10    22    24    1
    11    22    25    1
    12    12    13   ar
    13    13    14   ar
    14    14    15   ar
    15    20    21   ar
    16    21    12   ar
    17     1     3   ar
    18     3     4   ar
    19     4     6   ar
    20     6     7   ar
    21     7     8   ar
    22     8     1   ar
    23    15    16   ar
    24    16    17   ar
    25    17    18   ar
    26    18    19   ar
    27    19    20   ar
    28    20    15   ar
