@<TRIPOS>MOLECULE
No_4253-gen_results/8p0m/2024-11-26-14-13-15/
 12 13 0 0 0
SMALL
GASTEIGER

@<TRIPOS>ATOM
      1 O         -28.1229   -1.3353   28.4874 O.2     1  UNL1       -0.2745
      2 C         -27.4806   -0.4044   28.7094 C.2     1  UNL1        0.2304
      3 C         -26.3804   -0.0867   27.9394 C.3     1  UNL1        0.1113
      4 N         -27.4232    0.1749   30.0549 N.am    1  UNL1       -0.2734
      5 C         -25.4065    0.7421   28.2860 C.ar    1  UNL1       -0.0154
      6 C         -24.3010    1.1589   27.4854 C.ar    1  UNL1       -0.0040
      7 C         -23.1648    1.6162   28.0527 C.ar    1  UNL1       -0.0003
      8 C         -23.0775    1.6723   29.4941 C.ar    1  UNL1       -0.0003
      9 C         -24.0753    1.2307   30.3125 C.ar    1  UNL1       -0.0029
     10 C         -25.1734    0.6548   29.7033 C.ar    1  UNL1       -0.0058
     11 C         -26.2962    0.4357   30.6032 C.3     1  UNL1        0.1199
     12 C         -28.5821    1.0401   30.1163 C.3     1  UNL1        0.1152
@<TRIPOS>BOND
     1     1     2    2
     2     2     3    1
     3     2     4   am
     4     3     5    1
     5     4    11    1
     6    10    11    1
     7     4    12    1
     8     5     6   ar
     9     6     7   ar
    10     7     8   ar
    11     8     9   ar
    12     9    10   ar
    13    10     5   ar
