@<TRIPOS>MOLECULE
No_4255-gen_results/8p0m/2024-11-26-14-13-15/
 35 38 0 0 0
SMALL
GASTEIGER

@<TRIPOS>ATOM
      1 C         -28.0162   -0.8135   28.8779 C.ar    1  UNL1        0.0520
      2 C         -27.0636   -0.1189   28.6079 C.ar    1  UNL1        0.1463
      3 C         -26.9287    1.1713   29.0083 C.ar    1  UNL1        0.0407
      4 C         -27.9560    1.7411   29.7840 C.ar    1  UNL1        0.0415
      5 C         -29.0569   -0.3271   29.7466 C.ar    1  UNL1        0.0951
      6 C         -28.9828    0.9722   30.1516 C.ar    1  UNL1        0.1559
      7 O         -25.9911   -0.6119   27.8566 O.3     1  UNL1       -0.4534
      8 C         -24.9038   -1.1483   28.5775 C.ar    1  UNL1        0.1482
      9 C         -23.7733   -0.9238   28.7488 C.ar    1  UNL1        0.0703
     10 C         -25.2670   -2.5528   29.1249 C.ar    1  UNL1        0.0376
     11 C         -22.7926   -1.5184   29.4729 C.ar    1  UNL1        0.0061
     12 C         -24.3844   -3.2811   29.7863 C.ar    1  UNL1        0.0031
     13 C         -23.1235   -2.7642   30.0154 C.ar    1  UNL1        0.0003
     14 CL        -30.2154   -1.4866   30.2046 Cl      1  UNL1       -0.0790
     15 C         -23.2797    0.4785   28.1338 C.ar    1  UNL1        0.1669
     16 N         -22.9425    1.4741   28.5904 N.ar    1  UNL1       -0.2219
     17 N         -23.5941    0.6390   26.7615 N.ar    1  UNL1       -0.2070
     18 C         -23.2929    1.9057   26.4315 C.ar    1  UNL1        0.1904
     19 C         -22.8216    2.4374   27.6526 C.ar    1  UNL1        0.1381
     20 O         -30.0413    1.4417   30.9394 O.3     1  UNL1       -0.4525
     21 N         -23.3956    2.4419   25.2815 N.pl3   1  UNL1       -0.1055
     22 C         -29.9841    1.4047   32.2112 C.ar    1  UNL1        0.1484
     23 C         -31.0189    0.9400   32.8748 C.ar    1  UNL1        0.0744
     24 C         -30.9734    0.8680   34.3465 C.ar    1  UNL1        0.1421
     25 C         -28.8428    1.8248   32.9707 C.ar    1  UNL1        0.0377
     26 C         -28.7588    1.7882   34.3385 C.ar    1  UNL1        0.0062
     27 C         -29.8544    1.3262   35.0506 C.ar    1  UNL1        0.0371
     28 O         -32.0875    0.4476   35.0204 O.3     1  UNL1       -0.4705
     29 C         -32.5707    1.0279   36.0353 C.3     1  UNL1        0.2318
     30 C         -33.2633    2.1197   35.9233 C.2     1  UNL1        0.0207
     31 C         -33.9933    2.4537   34.8673 C.2     1  UNL1       -0.0009
     32 C         -34.6840    3.6985   34.7130 C.2     1  UNL1       -0.0002
     33 C         -35.3768    4.0919   33.5506 C.2     1  UNL1       -0.0000
     34 C         -34.5558    4.6372   35.8952 C.2     1  UNL1       -0.0000
     35 C         -33.8540    4.2732   36.9816 C.2     1  UNL1       -0.0000
@<TRIPOS>BOND
     1     2     7    1
     2     7     8    1
     3     5    14    1
     4     9    15    1
     5    15    16   ar
     6    15    17   ar
     7    17    18   ar
     8    16    19   ar
     9    18    19   ar
    10     6    20    1
    11    18    21    1
    12    20    22    1
    13    24    28    1
    14    28    29    1
    15    29    30    1
    16    30    31    2
    17    31    32    1
    18    32    33    2
    19    32    34    1
    20    34    35    2
    21     8     9   ar
    22     9    11   ar
    23    11    13   ar
    24    13    12   ar
    25    12    10   ar
    26    10     8   ar
    27     1     2   ar
    28     2     3   ar
    29     3     4   ar
    30     4     6   ar
    31     6     5   ar
    32     5     1   ar
    33    22    23   ar
    34    23    24   ar
    35    24    27   ar
    36    27    26   ar
    37    26    25   ar
    38    25    22   ar
