@<TRIPOS>MOLECULE
No_4256-gen_results/8p0m/2024-11-26-14-13-15/
 35 38 0 0 0
SMALL
GASTEIGER

@<TRIPOS>ATOM
      1 C         -28.0162   -0.8135   28.8779 C.ar    1  UNL1       -0.0039
      2 C         -28.4690   -0.7850   29.8287 C.ar    1  UNL1       -0.0006
      3 C         -28.1816    0.4277   28.1134 C.ar    1  UNL1       -0.0160
      4 C         -27.4498    0.6435   26.8500 C.3     1  UNL1        0.0772
      5 C         -26.4529    0.9939   26.6681 C.ar    1  UNL1       -0.0162
      6 C         -25.1812    0.8624   26.8165 C.ar    1  UNL1        0.0001
      7 C         -24.2036    1.0464   27.4866 C.ar    1  UNL1        0.1182
      8 C         -29.4367    0.0780   30.4436 C.ar    1  UNL1       -0.0022
      9 C         -23.2068    1.1720   27.8982 C.1     1  UNL1       -0.0454
     10 C         -29.6775    1.1885   29.7341 C.ar    1  UNL1        0.0040
     11 C         -29.0585    1.3972   28.5508 C.ar    1  UNL1       -0.0060
     12 C         -21.9757    1.0627   28.5527 C.1     1  UNL1       -0.0839
     13 C         -28.3630    0.1968   25.7087 C.3     1  UNL1        0.1732
     14 F         -28.3368   -0.8662   25.3353 F       1  UNL1       -0.2362
     15 C         -29.1975    1.2440   25.1420 C.3     1  UNL1        0.0623
     16 C         -20.9788    0.5646   29.3288 C.3     1  UNL1        0.0904
     17 C         -29.3253    2.3320   25.4775 C.ar    1  UNL1       -0.0194
     18 C         -30.0404    3.3023   25.3311 C.ar    1  UNL1       -0.0042
     19 C         -29.9761    4.7436   25.7191 C.ar    1  UNL1       -0.0003
     20 C         -28.8842    4.9872   26.5965 C.ar    1  UNL1       -0.0000
     21 C         -27.8958    4.1206   26.8209 C.ar    1  UNL1       -0.0003
     22 C         -28.0292    2.8363   26.3534 C.ar    1  UNL1       -0.0027
     23 C         -26.8735    2.1409   26.6581 C.ar    1  UNL1        0.0150
     24 C         -25.5988    2.8137   26.9397 C.ar    1  UNL1        0.0992
     25 C         -30.6693    2.2460   30.2597 C.3     1  UNL1        0.1687
     26 N         -30.3905    3.0563   31.1047 N.am    1  UNL1       -0.1952
     27 P         -32.1578    2.3234   29.4745 P.3     1  UNL1        0.1410
     28 O         -32.2872    3.3977   28.9004 O.2     1  UNL1       -0.4581
     29 O         -33.1051    2.2002   30.6918 O.3     1  UNL1       -0.3558
     30 O         -32.2774    1.0807   28.6366 O.3     1  UNL1       -0.3558
     31 N         -24.7212    2.3248   27.8662 N.ar    1  UNL1       -0.2359
     32 C         -24.7234    0.0844   25.3848 C.3     1  UNL1        0.0329
     33 C         -29.5555    3.7789   31.5081 C.2     1  UNL1        0.2425
     34 O         -28.4022    3.7044   31.0467 O.2     1  UNL1       -0.2733
     35 C         -29.7340    4.8589   32.5266 C.3     1  UNL1        0.0964
@<TRIPOS>BOND
     1     3     4    1
     2     7     9    1
     3     9    12    3
     4     4    13    1
     5    13    14    1
     6    13    15    1
     7    12    16    1
     8    22    23    1
     9    10    25    1
    10    25    26    1
    11    25    27    1
    12    27    28    2
    13    27    29    1
    14    27    30    1
    15     6    32    1
    16    26    33   am
    17    33    34    2
    18    33    35    1
    19     4     5    1
    20    15    17    1
    21    17    18   ar
    22    18    19   ar
    23    19    20   ar
    24    20    21   ar
    25    21    22   ar
    26    22    17   ar
    27     5     6   ar
    28     6     7   ar
    29     7    31   ar
    30    31    24   ar
    31    24    23   ar
    32    23     5   ar
    33     1     2   ar
    34     2     8   ar
    35     8    10   ar
    36    10    11   ar
    37    11     3   ar
    38     3     1   ar
