@<TRIPOS>MOLECULE
No_4257-gen_results/8p0m/2024-11-26-14-13-15/
 34 36 0 0 0
SMALL
GASTEIGER

@<TRIPOS>ATOM
      1 C         -28.0162   -0.8135   28.8779 C.ar    1  UNL1        0.0103
      2 C         -28.4690   -0.7850   29.8287 C.ar    1  UNL1        0.0756
      3 C         -27.1356    0.2359   28.5352 C.ar    1  UNL1        0.0716
      4 C         -26.8050    1.0509   29.2763 C.ar    1  UNL1        0.0039
      5 C         -28.2372    0.1503   30.9300 C.ar    1  UNL1        0.0064
      6 C         -27.3522    1.1239   30.6071 C.ar    1  UNL1        0.0002
      7 C         -26.4705    0.1962   27.1308 C.3     1  UNL1        0.4186
      8 F         -26.0501    1.3795   26.9401 F       1  UNL1       -0.1659
      9 F         -25.4632   -0.6737   27.0814 F       1  UNL1       -0.1659
     10 F         -27.3401   -0.0543   26.1229 F       1  UNL1       -0.1659
     11 C         -29.4418   -1.9633   30.3596 C.2     1  UNL1        0.3413
     12 O         -30.4635   -1.8714   30.0386 O.2     1  UNL1       -0.2449
     13 O         -28.9475   -2.9513   31.0603 O.3     1  UNL1       -0.4426
     14 C         -26.9847    2.2071   31.5642 C.ar    1  UNL1        0.0000
     15 C         -26.0493    2.8258   31.5241 C.ar    1  UNL1        0.0002
     16 C         -25.5219    3.8046   32.0798 C.ar    1  UNL1        0.0066
     17 C         -26.3160    4.4700   33.0888 C.ar    1  UNL1        0.0798
     18 C         -27.5850    3.8281   33.2393 C.ar    1  UNL1        0.0066
     19 C         -27.9746    2.7660   32.4873 C.ar    1  UNL1        0.0002
     20 C         -25.8477    5.6190   33.8617 C.2     1  UNL1        0.3878
     21 O         -26.4729    6.6800   33.5850 O.co2   1  UNL1       -0.2406
     22 O         -25.1513    5.4679   34.8801 O.co2   1  UNL1       -0.2406
     23 C         -29.3323   -4.2639   30.7574 C.3     1  UNL1        0.2417
     24 C         -28.7191   -5.2590   31.3296 C.3     1  UNL1        0.1919
     25 BR        -29.9539   -6.5550   32.1174 Br      1  UNL1       -0.0538
     26 N         -27.8356   -5.9669   30.3136 N.pl3   1  UNL1       -0.2227
     27 C         -27.0145   -4.9113   29.7160 C.2     1  UNL1        0.0812
     28 C         -25.5970   -4.8259   30.0138 C.2     1  UNL1        0.0190
     29 C         -24.8405   -3.8968   29.1877 C.ar    1  UNL1        0.0205
     30 C         -23.5702   -3.9672   28.8661 C.ar    1  UNL1        0.0032
     31 C         -23.1512   -2.7166   28.1293 C.ar    1  UNL1        0.0207
     32 C         -25.5209   -2.5980   28.9012 C.ar    1  UNL1        0.0989
     33 C         -23.6530   -1.5315   28.4098 C.ar    1  UNL1        0.0989
     34 N         -24.8983   -1.5083   28.7269 N.ar    1  UNL1       -0.2423
@<TRIPOS>BOND
     1     3     7    1
     2     7     8    1
     3     7     9    1
     4     7    10    1
     5     2    11    1
     6    11    12    2
     7    11    13    1
     8     6    14    1
     9    17    20    1
    10    20    21   ar
    11    20    22   ar
    12    13    23    1
    13    23    24    1
    14    24    25    1
    15    24    26    1
    16    26    27    1
    17    27    28    2
    18    28    29    1
    19    14    15   ar
    20    15    16   ar
    21    16    17   ar
    22    17    18   ar
    23    18    19   ar
    24    19    14   ar
    25    29    30   ar
    26    30    31   ar
    27    31    33   ar
    28    33    34   ar
    29    34    32   ar
    30    32    29   ar
    31     1     2   ar
    32     2     5   ar
    33     5     6   ar
    34     6     4   ar
    35     4     3   ar
    36     3     1   ar
