@<TRIPOS>MOLECULE
No_4258-gen_results/8p0m/2024-11-26-14-13-15/
 12 12 0 0 0
SMALL
GASTEIGER

@<TRIPOS>ATOM
      1 N         -28.0544   -1.0498   28.7246 N.ar    1  UNL1       -0.2274
      2 C         -27.7460   -0.0733   29.0098 C.ar    1  UNL1        0.1518
      3 C         -27.5562    0.3369   30.3393 C.ar    1  UNL1        0.0361
      4 C         -27.8558   -0.5867   31.3709 C.ar    1  UNL1        0.0045
      5 C         -28.2477   -1.8503   30.9650 C.ar    1  UNL1        0.0208
      6 C         -28.3271   -2.1308   29.6397 C.ar    1  UNL1        0.1004
      7 N         -27.4155    0.8771   28.0581 N.pl3   1  UNL1       -0.1928
      8 C         -27.2368    1.8726   27.8371 C.2     1  UNL1        0.0873
      9 C         -26.4086    2.7304   27.5652 C.2     1  UNL1        0.0175
     10 C         -26.4895    4.1824   27.4166 C.2     1  UNL1       -0.0032
     11 C         -25.4182    5.0454   27.1732 C.2     1  UNL1       -0.0257
     12 C         -24.1503    4.4729   26.8881 C.3     1  UNL1        0.0307
@<TRIPOS>BOND
     1     2     7    1
     2     7     8    1
     3     8     9    2
     4     9    10    1
     5    10    11    2
     6    11    12    1
     7     1     2   ar
     8     2     3   ar
     9     3     4   ar
    10     4     5   ar
    11     5     6   ar
    12     6     1   ar
