@<TRIPOS>MOLECULE
No_4259-gen_results/8p0m/2024-11-26-14-13-15/
 10 10 0 0 0
SMALL
GASTEIGER

@<TRIPOS>ATOM
      1 O         -28.1229   -1.3353   28.4874 O.2     1  UNL1       -0.2713
      2 C         -27.4806   -0.4044   28.7094 C.2     1  UNL1        0.2652
      3 C         -26.3804   -0.0867   27.9394 C.3     1  UNL1        0.1148
      4 N         -27.4232    0.1749   30.0549 N.am    1  UNL1       -0.0875
      5 C         -25.8482    1.0048   27.9942 C.ar    1  UNL1       -0.0130
      6 C         -24.7250    1.4898   27.1703 C.ar    1  UNL1       -0.0038
      7 C         -24.0238    2.3807   27.2609 C.ar    1  UNL1       -0.0003
      8 C         -24.3489    3.3259   28.3248 C.ar    1  UNL1       -0.0000
      9 C         -25.3812    3.0510   29.2008 C.ar    1  UNL1       -0.0003
     10 C         -26.0619    1.8744   29.0755 C.ar    1  UNL1       -0.0038
@<TRIPOS>BOND
     1     1     2    2
     2     2     3    1
     3     2     4   am
     4     3     5    1
     5     5     6   ar
     6     6     7   ar
     7     7     8   ar
     8     8     9   ar
     9     9    10   ar
    10    10     5   ar
