@<TRIPOS>MOLECULE
No_426-gen_results/8p0m/2024-11-26-14-13-15/
 13 14 0 0 0
SMALL
GASTEIGER

@<TRIPOS>ATOM
      1 C         -28.0162   -0.8135   28.8779 C.ar    1  UNL1        0.0030
      2 C         -27.0636   -0.1189   28.6079 C.ar    1  UNL1        0.0347
      3 C         -25.7647   -0.3897   29.0360 C.ar    1  UNL1        0.1452
      4 C         -25.5296   -1.5302   29.9014 C.ar    1  UNL1        0.0375
      5 C         -26.6577   -2.2915   30.2035 C.ar    1  UNL1        0.0031
      6 C         -27.8548   -1.9555   29.7630 C.ar    1  UNL1        0.0002
      7 O         -24.6574    0.3796   28.7741 O.3     1  UNL1       -0.4538
      8 C         -24.6054    1.3226   27.8663 C.2     1  UNL1        0.1411
      9 C         -23.3465    1.9118   27.7723 C.2     1  UNL1        0.0113
     10 C         -25.6234    1.6706   27.0396 C.2     1  UNL1        0.0373
     11 C         -22.2233    1.6344   28.6267 C.3     1  UNL1        0.0292
     12 C         -26.8277    0.9598   27.4797 C.2     1  UNL1        0.0062
     13 C         -22.3603    0.5160   29.4226 C.3     1  UNL1        0.0051
@<TRIPOS>BOND
     1     3     7    1
     2     7     8    1
     3     8     9    2
     4     8    10    1
     5     9    11    1
     6     2    12    1
     7    10    12    2
     8    11    13    1
     9     1     2   ar
    10     2     3   ar
    11     3     4   ar
    12     4     5   ar
    13     5     6   ar
    14     6     1   ar
