@<TRIPOS>MOLECULE
No_4260-gen_results/8p0m/2024-11-26-14-13-15/
 26 27 0 0 0
SMALL
GASTEIGER

@<TRIPOS>ATOM
      1 C         -28.0162   -0.8135   28.8779 C.ar    1  UNL1        0.0441
      2 C         -27.0636   -0.1189   28.6079 C.ar    1  UNL1        0.0887
      3 C         -25.7647   -0.3897   29.0360 C.ar    1  UNL1        0.0372
      4 C         -25.5296   -1.5302   29.9014 C.ar    1  UNL1       -0.0124
      5 C         -26.6577   -2.2915   30.2035 C.ar    1  UNL1        0.0333
      6 C         -27.8548   -1.9555   29.7630 C.ar    1  UNL1        0.1441
      7 BR        -24.4087    0.8072   28.6592 Br      1  UNL1       -0.0491
      8 O         -28.9107   -2.7891   30.1095 O.3     1  UNL1       -0.4255
      9 C         -28.7387   -4.0255   30.6525 C.3     1  UNL1        0.4815
     10 C         -30.0030   -4.5608   31.2190 C.3     1  UNL1        0.4233
     11 CL        -31.2099   -4.3884   30.5506 Cl      1  UNL1       -0.0377
     12 F         -29.9946   -4.0674   32.5287 F       1  UNL1       -0.1762
     13 F         -29.6702   -5.9041   31.3006 F       1  UNL1       -0.1762
     14 C         -24.1299   -1.8049   30.2962 C.3     1  UNL1        0.0316
     15 C         -23.5415   -0.9719   31.3871 C.3     1  UNL1        0.0310
     16 C         -27.2672    1.0539   27.6521 C.2     1  UNL1        0.3883
     17 O         -27.4320    0.8122   26.4387 O.co2   1  UNL1       -0.2405
     18 O         -27.2988    2.2115   28.0764 O.co2   1  UNL1       -0.2405
     19 F         -27.6874   -4.0066   31.4759 F       1  UNL1       -0.1570
     20 F         -28.2953   -4.7532   29.5472 F       1  UNL1       -0.1570
     21 C         -24.4716   -0.2184   32.0238 C.ar    1  UNL1       -0.0218
     22 C         -24.9565   -0.6879   33.2729 C.ar    1  UNL1       -0.0043
     23 C         -25.9472    0.0457   34.0079 C.ar    1  UNL1       -0.0003
     24 C         -26.4306    1.2378   33.5056 C.ar    1  UNL1       -0.0000
     25 C         -25.8368    1.7348   32.2922 C.ar    1  UNL1       -0.0003
     26 C         -24.8924    1.0663   31.6420 C.ar    1  UNL1       -0.0043
@<TRIPOS>BOND
     1     3     7    1
     2     6     8    1
     3     8     9    1
     4     9    10    1
     5    10    11    1
     6    10    12    1
     7    10    13    1
     8     4    14    1
     9    14    15    1
    10     2    16    1
    11    16    17   ar
    12    16    18   ar
    13     9    19    1
    14     9    20    1
    15    15    21    1
    16     1     2   ar
    17     2     3   ar
    18     3     4   ar
    19     4     5   ar
    20     5     6   ar
    21     6     1   ar
    22    21    22   ar
    23    22    23   ar
    24    23    24   ar
    25    24    25   ar
    26    25    26   ar
    27    26    21   ar
