@<TRIPOS>MOLECULE
No_4261-gen_results/8p0m/2024-11-26-14-13-15/
 21 22 0 0 0
SMALL
GASTEIGER

@<TRIPOS>ATOM
      1 C         -28.0162   -0.8135   28.8779 C.3     1  UNL1        0.3439
      2 C         -27.0636   -0.1189   28.6079 C.ar    1  UNL1        0.0791
      3 C         -27.0010    0.6913   27.4910 C.ar    1  UNL1        0.1506
      4 C         -25.8548    1.4825   27.0830 C.ar    1  UNL1        0.0497
      5 C         -24.6901    1.4526   27.8807 C.ar    1  UNL1        0.0712
      6 C         -24.7379    0.6010   29.0416 C.ar    1  UNL1        0.0683
      7 C         -25.8234   -0.1688   29.3887 C.ar    1  UNL1        0.0164
      8 F         -27.8182   -1.9960   29.2551 F       1  UNL1       -0.1931
      9 F         -29.2114   -0.4631   28.7491 F       1  UNL1       -0.1931
     10 CL        -23.3299    2.3465   27.5301 Cl      1  UNL1       -0.0813
     11 CL        -23.2580    0.5226   30.0008 Cl      1  UNL1       -0.0814
     12 O         -28.0292    0.7701   26.6616 O.3     1  UNL1       -0.4240
     13 C         -28.6860    1.8310   26.5081 C.2     1  UNL1        0.3259
     14 C         -29.3639    1.8908   25.3689 C.3     1  UNL1        0.1363
     15 C         -30.5921    1.2205   25.5097 C.ar    1  UNL1       -0.0111
     16 C         -31.0738    0.7764   26.3348 C.ar    1  UNL1       -0.0037
     17 C         -32.3613   -0.0364   26.4293 C.ar    1  UNL1       -0.0003
     18 C         -32.8815   -0.2861   25.1583 C.ar    1  UNL1       -0.0000
     19 C         -32.3105    0.1380   23.9789 C.ar    1  UNL1       -0.0003
     20 C         -31.2100    0.8990   24.0738 C.ar    1  UNL1       -0.0037
     21 O         -28.6799    2.8171   27.3628 O.2     1  UNL1       -0.2493
@<TRIPOS>BOND
     1     1     2    1
     2     1     8    1
     3     1     9    1
     4     5    10    1
     5     6    11    1
     6     3    12    1
     7    12    13    1
     8    13    14    1
     9    14    15    1
    10    13    21    2
    11    15    16   ar
    12    16    17   ar
    13    17    18   ar
    14    18    19   ar
    15    19    20   ar
    16    20    15   ar
    17     2     3   ar
    18     3     4   ar
    19     4     5   ar
    20     5     6   ar
    21     6     7   ar
    22     7     2   ar
