@<TRIPOS>MOLECULE
No_4262-gen_results/8p0m/2024-11-26-14-13-15/
 11 11 0 0 0
SMALL
GASTEIGER

@<TRIPOS>ATOM
      1 F         -28.0727   -1.2542   28.5316 F       1  UNL1       -0.1668
      2 C         -27.3591   -0.3792   28.7224 C.3     1  UNL1        0.4293
      3 F         -26.9761   -0.0935   27.6617 F       1  UNL1       -0.1668
      4 C         -26.1757   -0.7134   29.6462 C.3     1  UNL1        0.2405
      5 F         -27.9854    0.7096   29.2930 F       1  UNL1       -0.1668
      6 N         -25.9051    0.0253   30.6180 N.2     1  UNL1       -0.2489
      7 C         -24.8918   -0.0194   31.2821 C.2     1  UNL1        0.0944
      8 C         -25.3153   -1.7732   29.3874 C.3     1  UNL1        0.0726
      9 C         -24.1704   -2.0254   30.1543 C.2     1  UNL1       -0.0210
     10 C         -23.9401   -1.0868   31.1853 C.2     1  UNL1        0.0158
     11 CL        -26.5529   -1.1272   30.5208 Cl      1  UNL1       -0.0822
@<TRIPOS>BOND
     1     1     2    1
     2     2     3    1
     3     2     4    1
     4     2     5    1
     5     4     6    1
     6     6     7    2
     7     4     8    1
     8     8     9    1
     9     7    10    1
    10     9    10    2
    11     4    11    1
