@<TRIPOS>MOLECULE
No_4263-gen_results/8p0m/2024-11-26-14-13-15/
 17 18 0 0 0
SMALL
GASTEIGER

@<TRIPOS>ATOM
      1 C         -28.0162   -0.8135   28.8779 C.ar    1  UNL1       -0.0040
      2 C         -27.0636   -0.1189   28.6079 C.ar    1  UNL1       -0.0184
      3 C         -26.9287    1.1713   29.0083 C.ar    1  UNL1       -0.0040
      4 C         -27.9560    1.7411   29.7840 C.ar    1  UNL1       -0.0003
      5 C         -29.0569   -0.3271   29.7466 C.ar    1  UNL1       -0.0003
      6 C         -28.9828    0.9722   30.1516 C.ar    1  UNL1       -0.0000
      7 C         -25.8907   -0.6263   27.7857 C.3     1  UNL1        0.0446
      8 C         -25.4633    0.1123   26.6815 C.2     1  UNL1       -0.0440
      9 C         -25.0310   -1.6701   28.2406 C.3     1  UNL1        0.0351
     10 C         -24.3963   -1.7192   29.4773 C.2     1  UNL1       -0.0166
     11 C         -23.7183   -0.9814   30.0604 C.2     1  UNL1        0.0447
     12 C         -23.1588    0.2483   29.3850 C.1     1  UNL1       -0.0641
     13 C         -22.5908    0.7998   28.7187 C.1     1  UNL1       -0.0861
     14 C         -22.0566    1.8340   27.8990 C.3     1  UNL1        0.0810
     15 C         -24.7137    1.2182   26.7060 C.2     1  UNL1       -0.0332
     16 C         -23.2008    1.9818   26.6806 C.3     1  UNL1        0.0393
     17 C         -26.1108   -0.0422   25.4075 C.3     1  UNL1        0.0264
@<TRIPOS>BOND
     1     2     7    1
     2     7     8    1
     3     7     9    1
     4     9    10    1
     5    10    11    2
     6    11    12    1
     7    12    13    3
     8    13    14    1
     9     8    15    2
    10    14    16    1
    11    15    16    1
    12     8    17    1
    13     1     2   ar
    14     2     3   ar
    15     3     4   ar
    16     4     6   ar
    17     6     5   ar
    18     5     1   ar
