@<TRIPOS>MOLECULE
No_4264-gen_results/8p0m/2024-11-26-14-13-15/
 10 10 0 0 0
SMALL
GASTEIGER

@<TRIPOS>ATOM
      1 C         -28.0162   -0.8135   28.8779 C.ar    1  UNL1        0.0550
      2 C         -27.0636   -0.1190   28.6079 C.ar    1  UNL1        0.0046
      3 C         -27.0010    0.6913   27.4910 C.ar    1  UNL1        0.0001
      4 C         -28.1373    0.7363   26.6350 C.ar    1  UNL1        0.0000
      5 C         -29.2360    0.0765   27.0690 C.ar    1  UNL1        0.0001
      6 C         -29.2177   -0.6429   28.1747 C.ar    1  UNL1        0.0046
      7 C         -28.0030   -1.6604   30.1266 C.2     1  UNL1        0.2648
      8 O         -27.1218   -2.5017   30.2445 O.2     1  UNL1       -0.2684
      9 N         -29.0108   -1.6366   31.0273 N.am    1  UNL1       -0.1998
     10 C         -29.0563   -2.5982   32.1039 C.3     1  UNL1        0.1388
@<TRIPOS>BOND
     1     1     7    1
     2     7     8    2
     3     7     9   am
     4     9    10    1
     5     1     2   ar
     6     2     3   ar
     7     3     4   ar
     8     4     5   ar
     9     5     6   ar
    10     6     1   ar
