@<TRIPOS>MOLECULE
No_4265-gen_results/8p0m/2024-11-26-14-13-15/
 33 35 0 0 0
SMALL
GASTEIGER

@<TRIPOS>ATOM
      1 C         -28.0162   -0.8135   28.8779 C.ar    1  UNL1        0.0370
      2 C         -28.4690   -0.7850   29.8287 C.ar    1  UNL1        0.1445
      3 C         -27.1356    0.2359   28.5352 C.ar    1  UNL1        0.0043
      4 C         -26.8745    1.2825   29.3982 C.ar    1  UNL1        0.0001
      5 C         -28.3613    0.1987   30.9244 C.ar    1  UNL1        0.0371
      6 C         -27.5277    1.2234   30.6356 C.ar    1  UNL1        0.0031
      7 C         -26.3987    0.2949   27.2279 C.2     1  UNL1        0.0437
      8 C         -25.0392    0.2356   27.3538 C.2     1  UNL1        0.0014
      9 C         -24.4371    0.0058   28.5831 C.ar    1  UNL1        0.0076
     10 C         -23.2757    0.6118   28.9810 C.ar    1  UNL1        0.0975
     11 C         -22.4573    0.1290   30.0522 C.ar    1  UNL1        0.0080
     12 C         -23.0915   -0.7307   30.9485 C.ar    1  UNL1        0.0003
     13 C         -24.7873   -1.0051   29.5819 C.ar    1  UNL1        0.0002
     14 C         -24.1045   -1.3675   30.6512 C.ar    1  UNL1        0.0000
     15 C         -27.1033    0.4735   26.0534 C.3     1  UNL1        0.3410
     16 F         -26.4642    0.1443   25.0520 F       1  UNL1       -0.1933
     17 F         -28.2706    0.7693   25.9742 F       1  UNL1       -0.1933
     18 C         -22.6157    1.6787   28.1061 C.2     1  UNL1        0.4766
     19 N         -22.1169    2.7530   28.5010 N.pl3   1  UNL1        0.2047
     20 N         -22.8039    1.6217   26.7946 N.pl3   1  UNL1        0.2047
     21 O         -29.4002   -1.8341   30.2736 O.3     1  UNL1       -0.4239
     22 C         -29.1387   -2.9898   30.7570 C.3     1  UNL1        0.4816
     23 C         -29.8533   -4.0622   30.1834 C.2     1  UNL1        0.3318
     24 O         -30.0257   -4.2610   29.1028 O.2     1  UNL1       -0.2646
     25 N         -30.1371   -5.1229   31.1697 N.am    1  UNL1       -0.2458
     26 C         -30.7596   -6.0002   31.0654 C.3     1  UNL1        0.0962
     27 C         -30.7218   -7.0729   32.0107 C.3     1  UNL1        0.0217
     28 C         -29.9050   -6.9329   33.1663 C.3     1  UNL1        0.0064
     29 C         -29.1289   -5.8078   33.2484 C.3     1  UNL1        0.0568
     30 C         -29.1143   -4.9297   32.3000 C.3     1  UNL1        0.2396
     31 F         -28.6315   -3.7281   32.1835 F       1  UNL1       -0.2148
     32 F         -27.8377   -2.9511   30.1539 F       1  UNL1       -0.1550
     33 F         -30.1371   -2.3752   31.7166 F       1  UNL1       -0.1550
@<TRIPOS>BOND
     1     3     7    1
     2     7     8    2
     3     8     9    1
     4     7    15    1
     5    15    16    1
     6    15    17    1
     7    10    18    1
     8    18    19    2
     9    18    20    1
    10     2    21    1
    11    21    22    1
    12    22    23    1
    13    23    24    2
    14    23    25   am
    15    25    26    1
    16    27    28    1
    17    25    30    1
    18    29    30    1
    19    30    31    1
    20    22    32    1
    21    22    33    1
    22    26    27    1
    23    28    29    1
    24     1     2   ar
    25     2     5   ar
    26     5     6   ar
    27     6     4   ar
    28     4     3   ar
    29     3     1   ar
    30     9    10   ar
    31    10    11   ar
    32    11    12   ar
    33    12    14   ar
    34    14    13   ar
    35    13     9   ar
