@<TRIPOS>MOLECULE
No_4266-gen_results/8p0m/2024-11-26-14-13-15/
 17 18 0 0 0
SMALL
GASTEIGER

@<TRIPOS>ATOM
      1 C         -28.0162   -0.8135   28.8779 C.3     1  UNL1        0.4348
      2 C         -27.0636   -0.1189   28.6079 C.ar    1  UNL1        0.1526
      3 N         -25.8176   -0.3427   29.0487 N.ar    1  UNL1       -0.2413
      4 C         -24.6757    0.3814   28.7496 C.ar    1  UNL1        0.0825
      5 C         -23.3317    0.0231   29.2052 C.ar    1  UNL1        0.0344
      6 C         -27.1812    0.9682   27.6388 C.ar    1  UNL1        0.0231
      7 C         -26.0788    1.7596   27.1955 C.ar    1  UNL1        0.0030
      8 C         -24.7013    1.4434   27.7655 C.ar    1  UNL1        0.0192
      9 C         -23.1407   -0.9126   30.1707 C.ar    1  UNL1        0.0905
     10 C         -22.2123    0.6751   28.6117 C.ar    1  UNL1        0.0028
     11 C         -20.9244    0.1457   28.9622 C.ar    1  UNL1        0.0001
     12 N         -24.1701   -1.4459   30.8346 N.pl3   1  UNL1       -0.1280
     13 C         -20.8697   -1.0242   29.7244 C.ar    1  UNL1        0.0014
     14 C         -21.8614   -1.4278   30.4905 C.ar    1  UNL1        0.0181
     15 F         -28.4421   -0.3351   30.0676 F       1  UNL1       -0.1644
     16 F         -27.5919   -2.1138   29.2095 F       1  UNL1       -0.1644
     17 F         -29.0450   -0.8369   28.0967 F       1  UNL1       -0.1644
@<TRIPOS>BOND
     1     1     2    1
     2     4     5    1
     3     9    12    1
     4     1    15    1
     5     1    16    1
     6     1    17    1
     7     2     3   ar
     8     3     4   ar
     9     4     8   ar
    10     8     7   ar
    11     7     6   ar
    12     6     2   ar
    13     5     9   ar
    14     9    14   ar
    15    14    13   ar
    16    13    11   ar
    17    11    10   ar
    18    10     5   ar
