@<TRIPOS>MOLECULE
No_4269-gen_results/8p0m/2024-11-26-14-13-15/
 16 16 0 0 0
SMALL
GASTEIGER

@<TRIPOS>ATOM
      1 C         -28.0162   -0.8135   28.8779 C.ar    1  UNL1        0.0104
      2 C         -28.4690   -0.7850   29.8287 C.ar    1  UNL1        0.0795
      3 C         -27.0871    0.2903   28.6377 C.ar    1  UNL1        0.0714
      4 C         -26.2516    0.4114   27.4223 C.3     1  UNL1        0.4186
      5 C         -28.3913    0.1041   30.9805 C.ar    1  UNL1        0.0062
      6 C         -27.5332    1.1666   30.7866 C.ar    1  UNL1        0.0257
      7 C         -26.8281    1.2557   29.6454 C.ar    1  UNL1        0.0035
      8 F         -26.2894   -0.3207   26.7007 F       1  UNL1       -0.1659
      9 F         -24.9065    0.6297   27.8498 F       1  UNL1       -0.1659
     10 F         -26.5253    1.7003   26.8049 F       1  UNL1       -0.1659
     11 C         -29.4614   -2.0180   30.2134 C.2     1  UNL1        0.3877
     12 O         -30.4920   -1.8765   29.8137 O.co2   1  UNL1       -0.2406
     13 O         -29.1353   -2.8183   31.1894 O.co2   1  UNL1       -0.2406
     14 C         -27.3108    2.1765   31.8467 C.3     1  UNL1        0.2619
     15 CL        -27.5402    3.3813   31.7456 Cl      1  UNL1       -0.0719
     16 F         -26.8457    1.5355   32.9659 F       1  UNL1       -0.2143
@<TRIPOS>BOND
     1     3     4    1
     2     4     8    1
     3     4     9    1
     4     4    10    1
     5     2    11    1
     6    11    12   ar
     7    11    13   ar
     8     6    14    1
     9    14    15    1
    10    14    16    1
    11     1     2   ar
    12     2     5   ar
    13     5     6   ar
    14     6     7   ar
    15     7     3   ar
    16     3     1   ar
