@<TRIPOS>MOLECULE
No_427-gen_results/8p0m/2024-11-26-14-13-15/
 18 19 0 0 0
SMALL
GASTEIGER

@<TRIPOS>ATOM
      1 C         -28.0162   -0.8135   28.8779 C.ar    1  UNL1       -0.0041
      2 C         -28.4690   -0.7850   29.8287 C.ar    1  UNL1       -0.0003
      3 C         -28.1960    0.3478   28.0550 C.ar    1  UNL1       -0.0182
      4 C         -29.0191    1.3501   28.3782 C.ar    1  UNL1       -0.0041
      5 C         -29.4107    0.1803   30.3782 C.ar    1  UNL1       -0.0000
      6 C         -29.6059    1.2495   29.6193 C.ar    1  UNL1       -0.0003
      7 C         -27.4598    0.3802   26.7091 C.3     1  UNL1        0.0720
      8 C         -26.0095    0.3317   26.7236 C.3     1  UNL1        0.0325
      9 C         -25.2570    1.3161   27.3387 C.2     1  UNL1       -0.0182
     10 C         -23.8757    1.1200   27.5503 C.2     1  UNL1        0.0136
     11 C         -23.0019    2.2258   27.5778 C.2     1  UNL1        0.0929
     12 N         -23.6017    3.3985   27.5337 N.2     1  UNL1       -0.2644
     13 C         -25.1011    2.7962   26.7018 C.3     1  UNL1        0.1477
     14 C         -28.1348    0.5146   25.5291 C.3     1  UNL1        0.1972
     15 F         -27.6892   -0.1972   24.5963 F       1  UNL1       -0.2218
     16 N         -29.5672    0.3176   25.6176 N.3     1  UNL1       -0.1889
     17 C         -27.9920    2.0273   25.0028 C.3     1  UNL1        0.0542
     18 C         -30.5252    0.6527   24.7900 C.3     1  UNL1        0.1102
@<TRIPOS>BOND
     1     3     7    1
     2     7     8    1
     3     8     9    1
     4     9    10    2
     5    10    11    1
     6    11    12    2
     7     9    13    1
     8    12    13    1
     9     7    14    1
    10    14    15    1
    11    14    16    1
    12    14    17    1
    13    16    18    1
    14     1     2   ar
    15     2     5   ar
    16     5     6   ar
    17     6     4   ar
    18     4     3   ar
    19     3     1   ar
