@<TRIPOS>MOLECULE
No_4270-gen_results/8p0m/2024-11-26-14-13-15/
 31 33 0 0 0
SMALL
GASTEIGER

@<TRIPOS>ATOM
      1 C         -28.0162   -0.8135   28.8779 C.ar    1  UNL1        0.0039
      2 C         -27.0636   -0.1189   28.6079 C.ar    1  UNL1       -0.0001
      3 C         -25.7923   -0.4302   29.0761 C.ar    1  UNL1       -0.0000
      4 C         -25.5756   -1.5654   29.9363 C.ar    1  UNL1       -0.0001
      5 C         -26.7354   -2.3004   30.2173 C.ar    1  UNL1        0.0039
      6 C         -27.9184   -1.9537   29.7629 C.ar    1  UNL1        0.0714
      7 C         -27.1057    1.1023   27.7593 C.ar    1  UNL1       -0.0001
      8 C         -27.8576    1.5309   27.2156 C.ar    1  UNL1       -0.0000
      9 C         -28.0991    2.2992   26.4301 C.ar    1  UNL1       -0.0001
     10 C         -26.9543    3.1837   26.0254 C.ar    1  UNL1        0.0039
     11 C         -25.7574    2.8807   26.5755 C.ar    1  UNL1        0.0714
     12 C         -25.7339    1.7924   27.4542 C.ar    1  UNL1        0.0039
     13 C         -29.0894   -2.7408   30.1817 C.3     1  UNL1        0.4186
     14 F         -29.4289   -2.6156   31.2105 F       1  UNL1       -0.1659
     15 F         -29.7794   -2.7296   29.2267 F       1  UNL1       -0.1659
     16 C         -24.5135    3.5934   26.2997 C.3     1  UNL1        0.4186
     17 F         -23.4934    3.0221   26.2965 F       1  UNL1       -0.1659
     18 F         -24.3170    4.6223   27.3712 F       1  UNL1       -0.1659
     19 F         -24.6332    4.4305   25.2086 F       1  UNL1       -0.1659
     20 F         -28.5016   -4.0909   30.1611 F       1  UNL1       -0.1659
     21 C         -29.3270    2.7723   25.6513 C.ar    1  UNL1       -0.0000
     22 C         -30.3071    3.4425   26.3450 C.ar    1  UNL1       -0.0003
     23 C         -31.5542    3.8219   25.7184 C.ar    1  UNL1       -0.0023
     24 C         -31.7677    3.4251   24.3815 C.ar    1  UNL1        0.0020
     25 C         -30.7760    2.7170   23.7028 C.ar    1  UNL1       -0.0023
     26 C         -29.5625    2.3947   24.3219 C.ar    1  UNL1       -0.0003
     27 C         -32.9391    3.6660   23.5136 C.3     1  UNL1        0.1519
     28 N         -33.7528    4.6504   23.8658 N.2     1  UNL1       -0.2641
     29 C         -34.1954    4.9060   24.8846 C.2     1  UNL1        0.0935
     30 C         -35.6140    5.2216   25.0500 C.2     1  UNL1        0.0202
     31 C         -36.3424    5.4838   23.9798 C.2     1  UNL1        0.0016
@<TRIPOS>BOND
     1     2     7    1
     2     6    13    1
     3    13    14    1
     4    13    15    1
     5    11    16    1
     6    16    17    1
     7    16    18    1
     8    16    19    1
     9    13    20    1
    10     9    21    1
    11    24    27    1
    12    27    28    1
    13    28    29    2
    14    29    30    1
    15    30    31    2
    16     1     2   ar
    17     2     3   ar
    18     3     4   ar
    19     4     5   ar
    20     5     6   ar
    21     6     1   ar
    22     7     8   ar
    23     8     9   ar
    24     9    10   ar
    25    10    11   ar
    26    11    12   ar
    27    12     7   ar
    28    21    22   ar
    29    22    23   ar
    30    23    24   ar
    31    24    25   ar
    32    25    26   ar
    33    26    21   ar
