@<TRIPOS>MOLECULE
No_4271-gen_results/8p0m/2024-11-26-14-13-15/
 26 27 0 0 0
SMALL
GASTEIGER

@<TRIPOS>ATOM
      1 C         -28.0162   -0.8135   28.8779 C.3     1  UNL1        0.1539
      2 C         -27.0636   -0.1189   28.6079 C.ar    1  UNL1        0.0021
      3 C         -26.9716    0.7139   27.5060 C.ar    1  UNL1       -0.0019
      4 C         -25.8206    1.4910   27.1160 C.ar    1  UNL1        0.0063
      5 C         -24.6562    1.4242   27.9180 C.ar    1  UNL1        0.0798
      6 C         -24.6847    0.5901   29.0659 C.ar    1  UNL1        0.0063
      7 C         -25.8099   -0.1265   29.3338 C.ar    1  UNL1       -0.0021
      8 N         -27.9680   -1.6901   30.0059 N.2     1  UNL1       -0.2429
      9 C         -23.4715    2.1888   27.6131 C.2     1  UNL1        0.3878
     10 O         -23.2745    2.6995   26.5020 O.co2   1  UNL1       -0.2406
     11 O         -22.3512    1.9908   28.3525 O.co2   1  UNL1       -0.2406
     12 C         -29.0623   -2.3572   30.4773 C.2     1  UNL1        0.1949
     13 C         -28.8342   -3.5602   31.3601 C.3     1  UNL1        0.0767
     14 C         -29.4124   -4.6791   30.8466 C.3     1  UNL1        0.0146
     15 C         -30.8675   -4.7251   30.9541 C.3     1  UNL1        0.0728
     16 C         -31.4900   -3.5740   30.2502 C.3     1  UNL1        0.3186
     17 F         -29.9949   -1.5429   30.7916 F       1  UNL1       -0.1885
     18 F         -30.8644   -2.7670   29.8181 F       1  UNL1       -0.1984
     19 F         -32.6749   -3.7332   29.7749 F       1  UNL1       -0.1984
     20 C         -28.1173    0.8140   26.5911 C.ar    1  UNL1       -0.0003
     21 C         -28.0107    0.4322   25.3189 C.ar    1  UNL1       -0.0003
     22 C         -29.0550    0.3945   24.4137 C.ar    1  UNL1       -0.0043
     23 C         -30.3336    0.6443   24.8593 C.ar    1  UNL1       -0.0218
     24 C         -31.3843    0.6121   24.0001 C.3     1  UNL1        0.0310
     25 C         -29.4308    1.0611   27.1022 C.ar    1  UNL1       -0.0003
     26 C         -30.5074    1.0213   26.1670 C.ar    1  UNL1       -0.0043
@<TRIPOS>BOND
     1     1     8    1
     2     5     9    1
     3     9    10   ar
     4     9    11   ar
     5     8    12    2
     6    12    13    1
     7    13    14    1
     8    14    15    1
     9    15    16    1
    10    12    17    1
    11    16    18    1
    12    16    19    1
    13     3    20    1
    14    23    24    1
    15     1     2    1
    16     2     3   ar
    17     3     4   ar
    18     4     5   ar
    19     5     6   ar
    20     6     7   ar
    21     7     2   ar
    22    20    21   ar
    23    21    22   ar
    24    22    23   ar
    25    23    26   ar
    26    26    25   ar
    27    25    20   ar
