@<TRIPOS>MOLECULE
No_4272-gen_results/8p0m/2024-11-26-14-13-15/
 13 14 0 0 0
SMALL
GASTEIGER

@<TRIPOS>ATOM
      1 C         -28.0162   -0.8135   28.8779 C.ar    1  UNL1       -0.0003
      2 C         -28.4690   -0.7850   29.8287 C.ar    1  UNL1       -0.0000
      3 C         -26.5455   -0.8762   28.8500 C.ar    1  UNL1       -0.0039
      4 C         -25.8974   -0.8267   29.8894 C.ar    1  UNL1       -0.0178
      5 C         -26.4945   -0.7976   31.1740 C.ar    1  UNL1       -0.0039
      6 C         -27.8589   -0.7585   31.1651 C.ar    1  UNL1       -0.0003
      7 C         -24.3777   -0.8594   29.9373 C.3     1  UNL1        0.0526
      8 C         -23.6872   -0.1620   28.9781 C.ar    1  UNL1       -0.0178
      9 C         -22.2374   -0.1507   29.0682 C.ar    1  UNL1       -0.0039
     10 C         -21.5113    0.6082   28.1510 C.ar    1  UNL1       -0.0003
     11 C         -22.1689    1.5312   27.2887 C.ar    1  UNL1       -0.0000
     12 C         -23.5342    1.6415   27.3353 C.ar    1  UNL1       -0.0003
     13 C         -24.2952    0.8706   28.2162 C.ar    1  UNL1       -0.0039
@<TRIPOS>BOND
     1     4     7    1
     2     7     8    1
     3     1     2   ar
     4     2     6   ar
     5     6     5   ar
     6     5     4   ar
     7     4     3   ar
     8     3     1   ar
     9     8     9   ar
    10     9    10   ar
    11    10    11   ar
    12    11    12   ar
    13    12    13   ar
    14    13     8   ar
