@<TRIPOS>MOLECULE
No_4275-gen_results/8p0m/2024-11-26-14-13-15/
 33 36 0 0 0
SMALL
GASTEIGER

@<TRIPOS>ATOM
      1 C         -28.0162   -0.8135   28.8779 C.ar    1  UNL1        0.1828
      2 C         -27.0636   -0.1189   28.6079 C.ar    1  UNL1        0.1735
      3 C         -25.7647   -0.3897   29.0360 C.ar    1  UNL1        0.0371
      4 C         -25.5296   -1.5302   29.9014 C.ar    1  UNL1        0.0041
      5 C         -26.6577   -2.2915   30.2035 C.ar    1  UNL1        0.0147
      6 C         -27.8548   -1.9555   29.7630 C.ar    1  UNL1        0.0946
      7 C         -24.4389    0.1803   28.7279 C.ar    1  UNL1        0.0030
      8 C         -24.3450    1.1842   27.7676 C.ar    1  UNL1        0.0001
      9 C         -23.1086    1.7615   27.4324 C.ar    1  UNL1        0.0000
     10 C         -21.9081    1.3762   28.0655 C.ar    1  UNL1        0.0000
     11 C         -23.1823   -0.2227   29.3143 C.ar    1  UNL1        0.0001
     12 C         -21.9586    0.4023   28.9712 C.ar    1  UNL1        0.0000
     13 CL        -29.2168   -2.8933   30.2508 Cl      1  UNL1       -0.0790
     14 O         -27.1496    0.9083   27.7088 O.3     1  UNL1       -0.4672
     15 C         -28.3836    1.4029   27.3875 C.3     1  UNL1        0.2359
     16 C         -29.0094    2.1769   28.1886 C.2     1  UNL1        0.2655
     17 O         -28.3740    2.8258   29.0293 O.2     1  UNL1       -0.2710
     18 N         -30.3464    2.1967   28.2584 N.am    1  UNL1       -0.2766
     19 C         -31.1227    3.0503   29.2321 C.3     1  UNL1        0.0935
     20 C         -31.1851    1.4372   27.3805 C.3     1  UNL1        0.0935
     21 C         -28.2458    2.0616   25.9815 C.3     1  UNL1        0.0528
     22 C         -28.4128    1.5725   25.0829 C.3     1  UNL1        0.0043
     23 C         -28.3881    0.1666   24.8075 C.3     1  UNL1        0.0040
     24 C         -28.0939   -0.6518   25.7946 C.3     1  UNL1        0.0470
     25 C         -32.5154    1.3882   27.7460 C.3     1  UNL1        0.0216
     26 C         -33.0277    2.1613   28.5317 C.3     1  UNL1        0.0035
     27 C         -32.3888    2.9522   29.4107 C.3     1  UNL1        0.0216
     28 C         -28.6417   -0.1456   27.0974 C.3     1  UNL1        0.1994
     29 O         -29.7066   -0.5501   27.4945 O.3     1  UNL1       -0.3375
     30 O         -29.1483   -0.4859   29.0071 O.3     1  UNL1       -0.4675
     31 C         -30.7216   -1.1148   27.2861 C.3     1  UNL1        0.1756
     32 C         -30.1040   -0.0583   29.8969 C.3     1  UNL1        0.2527
     33 CL        -28.7664   -1.1393   27.5892 Cl      1  UNL1       -0.0819
@<TRIPOS>BOND
     1     3     7    1
     2     6    13    1
     3     2    14    1
     4    14    15    1
     5    15    16    1
     6    16    17    2
     7    16    18   am
     8    18    19    1
     9    18    20    1
    10    15    21    1
    11    22    23    1
    12    23    24    1
    13    25    26    1
    14    15    28    1
    15    24    28    1
    16    28    29    1
    17     1    30    1
    18    29    31    1
    19    30    32    1
    20    28    33    1
    21    19    27    1
    22    27    26    1
    23    25    20    1
    24    21    22    1
    25     7     8   ar
    26     8     9   ar
    27     9    10   ar
    28    10    12   ar
    29    12    11   ar
    30    11     7   ar
    31     1     2   ar
    32     2     3   ar
    33     3     4   ar
    34     4     5   ar
    35     5     6   ar
    36     6     1   ar
