@<TRIPOS>MOLECULE
No_4276-gen_results/8p0m/2024-11-26-14-13-15/
 21 22 0 0 0
SMALL
GASTEIGER

@<TRIPOS>ATOM
      1 C         -28.0162   -0.8135   28.8779 C.ar    1  UNL1       -0.0021
      2 C         -27.0636   -0.1189   28.6079 C.ar    1  UNL1        0.0238
      3 C         -25.7647   -0.3897   29.0360 C.ar    1  UNL1       -0.0043
      4 C         -25.5296   -1.5302   29.9014 C.ar    1  UNL1       -0.0142
      5 C         -24.2910   -1.8751   30.3797 C.3     1  UNL1        0.1296
      6 C         -27.9084   -1.9224   29.8277 C.ar    1  UNL1        0.0101
      7 C         -26.6512   -2.2902   30.3071 C.ar    1  UNL1       -0.0058
      8 C         -23.6026   -0.8489   31.1561 C.3     1  UNL1        0.4017
      9 C         -29.1228   -2.5331   30.3284 C.3     1  UNL1        0.2086
     10 O         -29.4117   -2.4273   31.5965 O.3     1  UNL1       -0.2152
     11 F         -23.8339   -0.8187   32.3474 F       1  UNL1       -0.1697
     12 F         -22.1911   -0.9513   31.0849 F       1  UNL1       -0.1697
     13 F         -23.8122    0.3856   30.6160 F       1  UNL1       -0.1697
     14 C         -27.3244    1.0588   27.8226 C.3     1  UNL1        0.2301
     15 N         -26.5231    2.1278   27.9452 N.pl3   1  UNL1       -0.1766
     16 C         -26.4282    2.8699   28.7557 C.2     1  UNL1        0.3669
     17 C         -26.1804    3.9931   28.9867 C.1     1  UNL1        0.0825
     18 N         -25.9872    4.6542   30.1780 N.2     1  UNL1       -0.1700
     19 N         -26.5031    2.4460   30.2424 N.pl3   1  UNL1        0.0015
     20 C         -26.2405    3.5471   30.9826 C.3     1  UNL1        0.3881
     21 C         -25.5618    2.2712   26.8087 C.3     1  UNL1        0.2542
@<TRIPOS>BOND
     1     4     5    1
     2     5     8    1
     3     6     9    1
     4     9    10    1
     5     8    11    1
     6     8    12    1
     7     8    13    1
     8     2    14    1
     9    14    15    1
    10    15    16    1
    11    16    17    2
    12    17    18    2
    13    16    19    1
    14    18    20    1
    15    19    20    1
    16    15    21    1
    17     1     2   ar
    18     2     3   ar
    19     3     4   ar
    20     4     7   ar
    21     7     6   ar
    22     6     1   ar
