@<TRIPOS>MOLECULE
No_4277-gen_results/8p0m/2024-11-26-14-13-15/
 22 24 0 0 0
SMALL
GASTEIGER

@<TRIPOS>ATOM
      1 C         -28.0162   -0.8135   28.8779 C.2     1  UNL1       -0.0316
      2 C         -28.4690   -0.7850   29.8287 C.2     1  UNL1        0.1063
      3 C         -28.1960    0.3478   28.0550 C.3     1  UNL1        0.0228
      4 C         -27.4421    0.5100   26.7946 C.3     1  UNL1        0.0071
      5 C         -26.1689   -0.0794   26.6787 C.3     1  UNL1        0.0181
      6 C         -25.7312   -0.9607   27.6875 C.3     1  UNL1        0.0058
      7 C         -26.5043   -1.2222   28.7582 C.3     1  UNL1        0.0228
      8 BR        -30.0109   -0.1589   30.2279 Br      1  UNL1       -0.0428
      9 C         -28.1462   -2.0124   30.8890 C.2     1  UNL1        0.3933
     10 O         -28.5423   -2.9378   30.8259 O.co2   1  UNL1       -0.2400
     11 O         -27.2378   -1.5894   31.7756 O.co2   1  UNL1       -0.2400
     12 C         -27.7862    1.4326   25.7358 C.3     1  UNL1        0.0202
     13 C         -29.0913    1.5427   25.4917 C.3     1  UNL1        0.0234
     14 C         -26.9723    1.1735   24.5456 C.3     1  UNL1        0.0889
     15 C         -27.1768    2.8720   26.2423 C.3     1  UNL1        0.0017
     16 C         -29.9238    2.4386   26.0103 C.3     1  UNL1        0.0044
     17 C         -29.7680    0.5333   24.7654 C.2     1  UNL1       -0.0264
     18 C         -29.5278    3.7940   26.3392 C.3     1  UNL1        0.0003
     19 C         -28.0758    3.8852   26.7857 C.3     1  UNL1        0.0001
     20 C         -25.4012    0.0636   25.5286 C.3     1  UNL1        0.0887
     21 N         -25.7579    0.6862   24.5430 N.3     1  UNL1       -0.2180
     22 C         -29.6931    0.2448   23.6903 C.2     1  UNL1       -0.0049
@<TRIPOS>BOND
     1     1     2    2
     2     1     3    1
     3     3     4    1
     4     4     5    1
     5     5     6    1
     6     1     7    1
     7     6     7    1
     8     2     8    1
     9     2     9    1
    10     9    10   ar
    11     9    11   ar
    12     4    12    1
    13    12    13    1
    14    12    14    1
    15    12    15    1
    16    13    16    1
    17    13    17    1
    18    18    19    1
    19     5    20    1
    20    14    21    1
    21    17    22    2
    22    20    21    1
    23    16    18    1
    24    19    15    1
