@<TRIPOS>MOLECULE
No_4279-gen_results/8p0m/2024-11-26-14-13-15/
 15 16 0 0 0
SMALL
GASTEIGER

@<TRIPOS>ATOM
      1 C         -28.0162   -0.8135   28.8779 C.ar    1  UNL1       -0.0039
      2 C         -28.4690   -0.7850   29.8287 C.ar    1  UNL1       -0.0003
      3 C         -28.1960    0.3478   28.0550 C.ar    1  UNL1       -0.0178
      4 C         -29.0191    1.3501   28.3782 C.ar    1  UNL1       -0.0039
      5 C         -29.6249    1.2683   29.6012 C.ar    1  UNL1       -0.0003
      6 C         -29.3821    0.1816   30.4004 C.ar    1  UNL1       -0.0000
      7 C         -27.4591    0.3787   26.7048 C.3     1  UNL1        0.0523
      8 C         -26.1350    0.3565   26.8181 C.2     1  UNL1       -0.0214
      9 C         -25.3867    0.0259   27.9207 C.2     1  UNL1       -0.0042
     10 C         -23.9774    0.0244   27.9125 C.ar    1  UNL1       -0.0003
     11 C         -23.2124   -0.3701   29.0872 C.ar    1  UNL1       -0.0000
     12 C         -21.8407   -0.0869   29.1556 C.ar    1  UNL1       -0.0000
     13 C         -21.2545    0.7661   28.1992 C.ar    1  UNL1       -0.0000
     14 C         -22.0889    1.4077   27.2470 C.ar    1  UNL1       -0.0000
     15 C         -23.4180    1.0765   27.1773 C.ar    1  UNL1       -0.0000
@<TRIPOS>BOND
     1     3     7    1
     2     7     8    1
     3     8     9    2
     4     9    10    1
     5     1     2   ar
     6     2     6   ar
     7     6     5   ar
     8     5     4   ar
     9     4     3   ar
    10     3     1   ar
    11    10    11   ar
    12    11    12   ar
    13    12    13   ar
    14    13    14   ar
    15    14    15   ar
    16    15    10   ar
