@<TRIPOS>MOLECULE
No_428-gen_results/8p0m/2024-11-26-14-13-15/
 16 16 0 0 0
SMALL
GASTEIGER

@<TRIPOS>ATOM
      1 C         -28.0162   -0.8135   28.8779 C.3     1  UNL1        0.0523
      2 C         -27.0636   -0.1189   28.6079 C.ar    1  UNL1       -0.0178
      3 C         -25.7647   -0.3897   29.0360 C.ar    1  UNL1       -0.0037
      4 C         -24.5516    0.4058   28.7646 C.ar    1  UNL1        0.0063
      5 C         -24.6957    1.4480   27.7988 C.ar    1  UNL1        0.0798
      6 C         -25.9755    1.7250   27.3077 C.ar    1  UNL1        0.0063
      7 C         -27.0718    1.0134   27.6535 C.ar    1  UNL1       -0.0037
      8 C         -29.2261   -0.0677   29.3149 C.2     1  UNL1       -0.0214
      9 C         -30.4902   -0.7298   29.1813 C.2     1  UNL1       -0.0042
     10 C         -23.4860    2.1790   27.4805 C.2     1  UNL1        0.3878
     11 O         -23.5531    3.1130   26.6531 O.co2   1  UNL1       -0.2406
     12 O         -22.2920    1.8102   27.8687 O.co2   1  UNL1       -0.2406
     13 C         -31.4318   -0.4821   29.7655 C.2     1  UNL1       -0.0003
     14 C         -32.6937   -1.2135   29.6981 C.2     1  UNL1       -0.0000
     15 C         -32.6762   -2.2536   28.7437 C.2     1  UNL1       -0.0000
     16 C         -31.6039   -2.5030   27.9781 C.2     1  UNL1       -0.0000
@<TRIPOS>BOND
     1     1     8    1
     2     8     9    2
     3     5    10    1
     4    10    11   ar
     5    10    12   ar
     6     9    13    1
     7    13    14    2
     8    14    15    1
     9    15    16    2
    10     1     2    1
    11     2     3   ar
    12     3     4   ar
    13     4     5   ar
    14     5     6   ar
    15     6     7   ar
    16     7     2   ar
