@<TRIPOS>MOLECULE
No_4280-gen_results/8p0m/2024-11-26-14-13-15/
 16 17 0 0 0
SMALL
GASTEIGER

@<TRIPOS>ATOM
      1 C         -28.0162   -0.8135   28.8779 C.ar    1  UNL1        0.0296
      2 C         -27.0636   -0.1189   28.6079 C.ar    1  UNL1        0.0019
      3 C         -25.7923   -0.4302   29.0761 C.ar    1  UNL1        0.0001
      4 C         -25.5756   -1.5654   29.9363 C.ar    1  UNL1        0.0023
      5 C         -26.7354   -2.3004   30.2173 C.ar    1  UNL1        0.0296
      6 C         -27.9184   -1.9537   29.7629 C.ar    1  UNL1        0.1401
      7 F         -28.9649   -2.6957   30.0722 F       1  UNL1       -0.2042
      8 C         -24.5349    0.3596   28.8024 C.ar    1  UNL1        0.0000
      9 C         -24.1089    1.3457   29.6681 C.ar    1  UNL1        0.0000
     10 C         -23.3669    2.1343   29.4681 C.ar    1  UNL1        0.0000
     11 C         -22.4903    2.1114   28.2319 C.ar    1  UNL1        0.0000
     12 C         -22.8842    1.1755   27.2600 C.ar    1  UNL1        0.0000
     13 C         -23.9007    0.3526   27.5369 C.ar    1  UNL1        0.0000
     14 C         -27.1612    1.0316   27.6441 C.2     1  UNL1       -0.0045
     15 C         -27.7908    0.8336   26.4706 C.2     1  UNL1       -0.0258
     16 C         -27.9561    1.8726   25.5755 C.3     1  UNL1        0.0307
@<TRIPOS>BOND
     1     6     7    1
     2     3     8    1
     3     2    14    1
     4    14    15    2
     5    15    16    1
     6     1     2   ar
     7     2     3   ar
     8     3     4   ar
     9     4     5   ar
    10     5     6   ar
    11     6     1   ar
    12     8     9   ar
    13     9    10   ar
    14    10    11   ar
    15    11    12   ar
    16    12    13   ar
    17    13     8   ar
