@<TRIPOS>MOLECULE
No_4283-gen_results/8p0m/2024-11-26-14-13-15/
 21 22 0 0 0
SMALL
GASTEIGER

@<TRIPOS>ATOM
      1 C         -28.0162   -0.8135   28.8779 C.ar    1  UNL1        0.0150
      2 C         -28.4690   -0.7850   29.8287 C.ar    1  UNL1        0.0013
      3 C         -28.1960    0.3478   28.0550 C.ar    1  UNL1        0.0565
      4 C         -29.0191    1.3501   28.3782 C.ar    1  UNL1        0.0150
      5 C         -29.4107    0.1803   30.3782 C.ar    1  UNL1        0.0001
      6 C         -29.6059    1.2495   29.6193 C.ar    1  UNL1        0.0013
      7 N         -27.5056    0.3640   26.7956 N.am    1  UNL1       -0.2273
      8 C         -27.8194    0.6254   25.7819 C.2     1  UNL1        0.3974
      9 C         -26.0359    0.0724   26.8908 C.3     1  UNL1        0.1272
     10 C         -25.1552    1.1356   27.2876 C.ar    1  UNL1        0.0020
     11 C         -23.9939    0.8731   27.9507 C.ar    1  UNL1        0.0691
     12 C         -23.0372    1.9449   28.1282 C.ar    1  UNL1        0.0036
     13 C         -23.2576    3.0918   27.4064 C.ar    1  UNL1       -0.0001
     14 C         -25.0369    2.4329   26.6128 C.ar    1  UNL1       -0.0027
     15 C         -24.1901    3.3042   26.6230 C.ar    1  UNL1       -0.0003
     16 O         -27.4446    0.1791   24.6701 O.2     1  UNL1       -0.2356
     17 F         -28.4611    1.8990   25.5983 F       1  UNL1       -0.1432
     18 C         -23.7112   -0.3573   28.6927 C.3     1  UNL1        0.4183
     19 F         -22.5285   -0.5963   28.8667 F       1  UNL1       -0.1659
     20 F         -24.3835   -0.2056   29.9237 F       1  UNL1       -0.1659
     21 F         -24.2614   -1.4152   28.0902 F       1  UNL1       -0.1659
@<TRIPOS>BOND
     1     3     7    1
     2     7     8   am
     3     7     9    1
     4     9    10    1
     5     8    16    2
     6     8    17    1
     7    11    18    1
     8    18    19    1
     9    18    20    1
    10    18    21    1
    11    10    11   ar
    12    11    12   ar
    13    12    13   ar
    14    13    15   ar
    15    15    14   ar
    16    14    10   ar
    17     1     2   ar
    18     2     5   ar
    19     5     6   ar
    20     6     4   ar
    21     4     3   ar
    22     3     1   ar
