@<TRIPOS>MOLECULE
No_4285-gen_results/8p0m/2024-11-26-14-13-15/
 23 25 0 0 0
SMALL
GASTEIGER

@<TRIPOS>ATOM
      1 C         -28.0162   -0.8135   28.8779 C.ar    1  UNL1        0.0064
      2 C         -28.4690   -0.7850   29.8287 C.ar    1  UNL1        0.0756
      3 C         -26.5455   -0.8762   28.8500 C.ar    1  UNL1        0.0002
      4 C         -25.8041   -1.0324   30.0571 C.ar    1  UNL1        0.0000
      5 C         -27.9437   -0.9869   31.2075 C.ar    1  UNL1        0.0064
      6 C         -26.5825   -1.0386   31.2231 C.ar    1  UNL1        0.0002
      7 C         -24.3810   -1.1082   30.0855 C.ar    1  UNL1        0.0000
      8 C         -23.7590   -1.1322   30.8961 C.ar    1  UNL1        0.0000
      9 C         -22.2646   -1.0127   30.9454 C.ar    1  UNL1        0.0000
     10 C         -21.7399   -0.8181   29.7258 C.ar    1  UNL1        0.0000
     11 C         -23.8113   -1.0939   28.6965 C.ar    1  UNL1        0.0000
     12 C         -22.4555   -0.8362   28.5918 C.ar    1  UNL1        0.0000
     13 C         -30.0813   -0.6681   29.8766 C.2     1  UNL1        0.3412
     14 O         -30.7696   -1.4640   30.3440 O.2     1  UNL1       -0.2449
     15 O         -30.5431    0.3626   29.2713 O.3     1  UNL1       -0.4451
     16 C         -31.6091    0.8260   29.2210 C.3     1  UNL1        0.2134
     17 C         -32.0944    1.0166   28.0781 C.3     1  UNL1        0.0738
     18 C         -31.2861    1.5163   27.0797 C.ar    1  UNL1       -0.0184
     19 C         -30.7133    2.6855   27.2825 C.ar    1  UNL1       -0.0041
     20 C         -29.6111    3.0654   27.2109 C.ar    1  UNL1       -0.0003
     21 C         -28.5373    2.1401   26.8048 C.ar    1  UNL1       -0.0000
     22 C         -29.0114    1.0517   26.0078 C.ar    1  UNL1       -0.0003
     23 C         -30.3476    0.6277   26.4761 C.ar    1  UNL1       -0.0041
@<TRIPOS>BOND
     1     4     7    1
     2     2    13    1
     3    13    14    2
     4    13    15    1
     5    15    16    1
     6    16    17    1
     7    17    18    1
     8     7     8   ar
     9     8     9   ar
    10     9    10   ar
    11    10    12   ar
    12    12    11   ar
    13    11     7   ar
    14    18    19   ar
    15    19    20   ar
    16    20    21   ar
    17    21    22   ar
    18    22    23   ar
    19    23    18   ar
    20     1     2   ar
    21     2     5   ar
    22     5     6   ar
    23     6     4   ar
    24     4     3   ar
    25     3     1   ar
