@<TRIPOS>MOLECULE
No_4286-gen_results/8p0m/2024-11-26-14-13-15/
 15 15 0 0 0
SMALL
GASTEIGER

@<TRIPOS>ATOM
      1 C         -28.0162   -0.8135   28.8779 C.ar    1  UNL1       -0.0000
      2 C         -28.4690   -0.7850   29.8287 C.ar    1  UNL1       -0.0000
      3 C         -28.1816    0.4277   28.1134 C.ar    1  UNL1       -0.0003
      4 C         -28.9841    1.4155   28.5154 C.ar    1  UNL1       -0.0000
      5 C         -29.3802    0.1384   30.4612 C.ar    1  UNL1       -0.0000
      6 C         -29.5415    1.2736   29.7242 C.ar    1  UNL1       -0.0000
      7 C         -27.4452    0.4872   26.7726 C.2     1  UNL1       -0.0043
      8 C         -27.8631    0.8051   25.7558 C.2     1  UNL1       -0.0258
      9 C         -29.2708    1.1430   25.6694 C.3     1  UNL1        0.0307
     10 C         -25.9673    0.0353   26.9219 C.2     1  UNL1       -0.0003
     11 C         -25.3239   -0.2010   28.1330 C.2     1  UNL1       -0.0000
     12 C         -23.9364   -0.3308   28.1513 C.2     1  UNL1       -0.0000
     13 C         -23.2668   -0.8157   29.3301 C.2     1  UNL1       -0.0000
     14 C         -23.9767   -0.9639   30.4920 C.2     1  UNL1        0.0000
     15 C         -25.3248   -0.7955   30.5558 C.2     1  UNL1        0.0000
@<TRIPOS>BOND
     1     3     7    1
     2     7     8    2
     3     8     9    1
     4     7    10    1
     5    10    11    2
     6    11    12    1
     7    12    13    2
     8    13    14    1
     9    14    15    2
    10     1     2   ar
    11     2     5   ar
    12     5     6   ar
    13     6     4   ar
    14     4     3   ar
    15     3     1   ar
