@<TRIPOS>MOLECULE
No_4288-gen_results/8p0m/2024-11-26-14-13-15/
 26 28 0 0 0
SMALL
GASTEIGER

@<TRIPOS>ATOM
      1 C         -28.0162   -0.8135   28.8779 C.ar    1  UNL1        0.0375
      2 C         -27.0636   -0.1190   28.6079 C.ar    1  UNL1        0.0031
      3 C         -25.7923   -0.4302   29.0761 C.ar    1  UNL1        0.0002
      4 C         -25.5756   -1.5654   29.9363 C.ar    1  UNL1        0.0031
      5 C         -26.7354   -2.3004   30.2173 C.ar    1  UNL1        0.0375
      6 C         -27.9184   -1.9537   29.7629 C.ar    1  UNL1        0.1453
      7 O         -29.0001   -2.7012   30.1151 O.3     1  UNL1       -0.4535
      8 C         -24.5290    0.3490   28.7998 C.ar    1  UNL1        0.0000
      9 C         -23.3442    0.0060   29.1658 C.ar    1  UNL1        0.0000
     10 C         -22.1783    0.7811   28.7783 C.ar    1  UNL1        0.0000
     11 C         -22.3217    1.7499   27.7727 C.ar    1  UNL1        0.0000
     12 C         -24.6102    1.3558   27.7479 C.ar    1  UNL1        0.0000
     13 C         -23.5148    2.0341   27.3068 C.ar    1  UNL1        0.0000
     14 C         -30.1256   -2.1340   30.5841 C.ar    1  UNL1        0.1455
     15 C         -31.1953   -2.7166   30.1353 C.ar    1  UNL1        0.0413
     16 C         -32.4829   -2.1045   30.3331 C.ar    1  UNL1        0.0747
     17 C         -32.4808   -0.9512   31.1611 C.ar    1  UNL1        0.0106
     18 C         -31.3362   -0.4404   31.6581 C.ar    1  UNL1        0.0828
     19 C         -30.0867   -0.9883   31.3548 C.ar    1  UNL1        0.0441
     20 C         -31.3467    0.7711   32.5524 C.2     1  UNL1        0.3878
     21 O         -32.1897    1.3022   33.0398 O.co2   1  UNL1       -0.2406
     22 O         -30.0889    1.4762   32.4704 O.co2   1  UNL1       -0.2406
     23 C         -33.6825   -2.7152   29.9043 C.3     1  UNL1        0.4187
     24 F         -33.6508   -3.2501   28.9636 F       1  UNL1       -0.1659
     25 F         -34.6256   -1.6532   29.7452 F       1  UNL1       -0.1659
     26 F         -34.2180   -3.4764   30.8700 F       1  UNL1       -0.1659
@<TRIPOS>BOND
     1     6     7    1
     2     3     8    1
     3     7    14    1
     4    18    20    1
     5    20    21   ar
     6    20    22   ar
     7    16    23    1
     8    23    24    1
     9    23    25    1
    10    23    26    1
    11     1     2   ar
    12     2     3   ar
    13     3     4   ar
    14     4     5   ar
    15     5     6   ar
    16     6     1   ar
    17    14    15   ar
    18    15    16   ar
    19    16    17   ar
    20    17    18   ar
    21    18    19   ar
    22    19    14   ar
    23     8     9   ar
    24     9    10   ar
    25    10    11   ar
    26    11    13   ar
    27    13    12   ar
    28    12     8   ar
