@<TRIPOS>MOLECULE
No_4289-gen_results/8p0m/2024-11-26-14-13-15/
 7 6 0 0 0
SMALL
GASTEIGER

@<TRIPOS>ATOM
      1 CL        -28.1493   -0.8198   28.9079 Cl      1  UNL1       -0.0814
      2 C         -27.8339    0.4961   29.0598 C.2     1  UNL1        0.0682
      3 C         -27.6022    1.0128   30.2974 C.2     1  UNL1        0.0120
      4 C         -27.7182    0.1626   31.4900 C.2     1  UNL1       -0.0011
      5 C         -28.0543   -1.1901   31.1837 C.2     1  UNL1        0.0091
      6 C         -28.2355   -1.6742   30.0273 C.3     1  UNL1        0.2084
      7 O         -28.5333   -3.0100   29.9276 O.3     1  UNL1       -0.2152
@<TRIPOS>BOND
     1     1     2    1
     2     2     3    2
     3     3     4    1
     4     4     5    2
     5     5     6    1
     6     6     7    1
