@<TRIPOS>MOLECULE
No_429-gen_results/8p0m/2024-11-26-14-13-15/
 21 23 0 0 0
SMALL
GASTEIGER

@<TRIPOS>ATOM
      1 C         -28.0162   -0.8135   28.8779 C.ar    1  UNL1        0.0046
      2 C         -27.0636   -0.1190   28.6079 C.ar    1  UNL1        0.0001
      3 C         -26.9287    1.1713   29.0083 C.ar    1  UNL1        0.0000
      4 C         -25.7702    2.0341   28.6884 C.ar    1  UNL1        0.0000
      5 C         -25.6189    3.3482   29.0918 C.ar    1  UNL1        0.0000
      6 C         -29.0712   -0.3338   29.7689 C.ar    1  UNL1        0.0554
      7 C         -29.0128    0.9333   30.1718 C.ar    1  UNL1        0.0046
      8 C         -27.8993    1.7759   29.8587 C.ar    1  UNL1        0.0001
      9 C         -24.7637    1.5278   27.7799 C.ar    1  UNL1        0.0000
     10 C         -23.6558    2.3377   27.4155 C.ar    1  UNL1        0.0000
     11 C         -24.6190    4.2235   28.5229 C.ar    1  UNL1        0.0000
     12 C         -23.6236    3.6589   27.7229 C.ar    1  UNL1        0.0000
     13 C         -30.1478   -1.2680   30.0875 C.2     1  UNL1        0.2690
     14 O         -29.9348   -2.4224   30.3738 O.2     1  UNL1       -0.2680
     15 N         -31.3920   -0.8002   30.2006 N.am    1  UNL1       -0.1754
     16 C         -32.4875   -1.6450   30.5462 C.ar    1  UNL1        0.0737
     17 C         -32.5283   -2.4928   31.3319 C.ar    1  UNL1        0.0166
     18 C         -33.6392   -1.2647   29.7099 C.ar    1  UNL1        0.0166
     19 C         -33.7215   -3.2550   31.6090 C.ar    1  UNL1        0.0013
     20 C         -34.8075   -2.0183   29.9700 C.ar    1  UNL1        0.0013
     21 C         -34.8349   -2.9577   30.9022 C.ar    1  UNL1        0.0001
@<TRIPOS>BOND
     1     3     4    1
     2     6    13    1
     3    13    14    2
     4    13    15   am
     5    15    16    1
     6     1     2   ar
     7     2     3   ar
     8     3     8   ar
     9     8     7   ar
    10     7     6   ar
    11     6     1   ar
    12     4     5   ar
    13     5    11   ar
    14    11    12   ar
    15    12    10   ar
    16    10     9   ar
    17     9     4   ar
    18    16    17   ar
    19    17    19   ar
    20    19    21   ar
    21    21    20   ar
    22    20    18   ar
    23    18    16   ar
