@<TRIPOS>MOLECULE
No_4290-gen_results/8p0m/2024-11-26-14-13-15/
 10 10 0 0 0
SMALL
GASTEIGER

@<TRIPOS>ATOM
      1 O         -28.1229   -1.3353   28.4874 O.2     1  UNL1       -0.2733
      2 C         -27.4806   -0.4044   28.7094 C.2     1  UNL1        0.2416
      3 C         -27.1904    0.2460   29.5268 C.3     1  UNL1        0.0869
      4 N         -26.6021   -0.1576   27.5515 N.am    1  UNL1       -0.2027
      5 C         -25.6421    0.9031   27.5822 C.3     1  UNL1        0.1169
      6 C         -24.6411    1.0988   26.6164 C.2     1  UNL1       -0.0095
      7 C         -25.3779    1.2986   28.8959 C.3     1  UNL1        0.0267
      8 C         -26.1618    1.1169   29.9303 C.3     1  UNL1        0.0117
      9 C         -23.5387    1.9070   26.8522 C.2     1  UNL1       -0.0287
     10 C         -23.2828    2.3888   28.1418 C.3     1  UNL1        0.0304
@<TRIPOS>BOND
     1     1     2    2
     2     2     3    1
     3     2     4   am
     4     4     5    1
     5     5     6    1
     6     5     7    1
     7     3     8    1
     8     6     9    2
     9     9    10    1
    10     8     7    1
