@<TRIPOS>MOLECULE
No_4291-gen_results/8p0m/2024-11-26-14-13-15/
 13 14 0 0 0
SMALL
GASTEIGER

@<TRIPOS>ATOM
      1 C         -28.0162   -0.8135   28.8779 C.ar    1  UNL1        0.0165
      2 C         -27.0636   -0.1189   28.6079 C.ar    1  UNL1        0.0705
      3 C         -25.7923   -0.4302   29.0761 C.ar    1  UNL1        0.0165
      4 C         -25.5756   -1.5654   29.9363 C.ar    1  UNL1        0.0013
      5 C         -26.7354   -2.3004   30.2173 C.ar    1  UNL1        0.0001
      6 C         -27.9184   -1.9537   29.7629 C.ar    1  UNL1        0.0013
      7 N         -27.3307    1.0101   27.8524 N.pl3   1  UNL1       -0.2125
      8 C         -26.3102    1.7710   27.4869 C.ar    1  UNL1        0.0705
      9 C         -25.9786    2.6993   27.0438 C.ar    1  UNL1        0.0165
     10 C         -24.6727    3.3603   26.6994 C.ar    1  UNL1        0.0013
     11 C         -23.5879    2.5821   26.9248 C.ar    1  UNL1        0.0001
     12 C         -23.7777    1.3314   27.4739 C.ar    1  UNL1        0.0013
     13 C         -24.9834    0.8888   27.7833 C.ar    1  UNL1        0.0165
@<TRIPOS>BOND
     1     2     7    1
     2     7     8    1
     3     1     2   ar
     4     2     3   ar
     5     3     4   ar
     6     4     5   ar
     7     5     6   ar
     8     6     1   ar
     9     8     9   ar
    10     9    10   ar
    11    10    11   ar
    12    11    12   ar
    13    12    13   ar
    14    13     8   ar
