@<TRIPOS>MOLECULE
No_4292-gen_results/8p0m/2024-11-26-14-13-15/
 29 32 0 0 0
SMALL
GASTEIGER

@<TRIPOS>ATOM
      1 C         -28.0162   -0.8135   28.8779 C.ar    1  UNL1        0.0046
      2 C         -27.0636   -0.1190   28.6079 C.ar    1  UNL1        0.0001
      3 C         -25.7923   -0.4302   29.0761 C.ar    1  UNL1        0.0000
      4 C         -24.5456    0.3494   28.8225 C.ar    1  UNL1        0.0001
      5 C         -23.2409    0.0217   29.3323 C.ar    1  UNL1        0.0000
      6 C         -27.8820   -1.8995   29.8633 C.ar    1  UNL1        0.0550
      7 C         -26.6526   -2.3142   30.3138 C.ar    1  UNL1        0.0046
      8 C         -25.5153   -1.5607   29.9787 C.ar    1  UNL1        0.0001
      9 C         -23.2072   -1.2289   30.0311 C.ar    1  UNL1        0.0000
     10 C         -24.2434   -1.9361   30.3879 C.ar    1  UNL1        0.0000
     11 C         -24.5768    1.5651   27.9574 C.ar    1  UNL1        0.0046
     12 C         -23.5960    1.7041   26.9962 C.ar    1  UNL1        0.0567
     13 C         -22.4531    0.9115   26.9523 C.ar    1  UNL1        0.0046
     14 C         -22.0983    0.2823   28.3286 C.ar    1  UNL1        0.0001
     15 C         -23.6005    2.5574   25.8473 C.2     1  UNL1        0.2842
     16 C         -29.0285   -2.7805   30.2963 C.2     1  UNL1        0.2648
     17 O         -30.0719   -2.4650   30.1998 O.2     1  UNL1       -0.2684
     18 N         -28.6658   -4.0267   30.7892 N.am    1  UNL1       -0.2013
     19 C         -29.6791   -5.0252   31.1450 C.3     1  UNL1        0.1198
     20 C         -30.5918   -5.3055   30.1386 C.3     1  UNL1        0.0441
     21 C         -30.5996   -4.9949   28.9745 C.2     1  UNL1       -0.0289
     22 C         -31.4837   -5.6447   28.1390 C.2     1  UNL1       -0.0266
     23 C         -32.1939   -6.6479   28.6120 C.3     1  UNL1        0.0437
     24 C         -31.4741   -6.5255   30.1622 C.3     1  UNL1        0.0148
     25 N         -24.7299    3.4098   25.8848 N.am    1  UNL1       -0.0837
     26 O         -22.8137    2.6604   25.0226 O.2     1  UNL1       -0.2667
     27 C         -33.0879   -7.5744   28.3293 C.2     1  UNL1       -0.0266
     28 C         -33.7692   -8.2360   28.8843 C.2     1  UNL1       -0.0300
     29 C         -34.7378   -9.2143   28.3449 C.3     1  UNL1        0.0304
@<TRIPOS>BOND
     1    12    15    1
     2     6    16    1
     3    16    17    2
     4    16    18   am
     5    18    19    1
     6    19    20    1
     7    20    21    1
     8    21    22    2
     9    22    23    1
    10    20    24    1
    11    23    24    1
    12    15    25   am
    13    15    26    2
    14    23    27    1
    15    27    28    2
    16    28    29    1
    17     5    14   ar
    18    14    13   ar
    19    13    12   ar
    20    12    11   ar
    21    11     4   ar
    22     1     2   ar
    23     2     3   ar
    24     8     7   ar
    25     7     6   ar
    26     6     1   ar
    27     3     4   ar
    28     4     5   ar
    29     5     9   ar
    30     9    10   ar
    31    10     8   ar
    32     8     3   ar
