@<TRIPOS>MOLECULE
No_4293-gen_results/8p0m/2024-11-26-14-13-15/
 16 16 0 0 0
SMALL
GASTEIGER

@<TRIPOS>ATOM
      1 C         -28.0162   -0.8135   28.8779 C.3     1  UNL1        0.1296
      2 C         -28.4690   -0.7850   29.8287 C.ar    1  UNL1       -0.0085
      3 C         -26.5042   -0.7777   28.8766 C.3     1  UNL1        0.4017
      4 F         -26.0808   -1.8936   29.1655 F       1  UNL1       -0.1697
      5 F         -25.9581    0.1184   29.7237 F       1  UNL1       -0.1697
      6 F         -25.9513   -0.4199   27.6514 F       1  UNL1       -0.1697
      7 C         -29.9693   -1.1330   30.0329 C.ar    1  UNL1        0.0140
      8 C         -30.3518   -1.8783   31.1310 C.ar    1  UNL1        0.0888
      9 N         -31.3350   -2.5388   31.2455 N.pl3   1  UNL1       -0.1281
     10 C         -29.3638   -1.9767   32.3511 C.ar    1  UNL1        0.0180
     11 C         -28.0732   -1.5633   32.2403 C.ar    1  UNL1        0.0049
     12 C         -27.5856   -1.1035   30.9576 C.ar    1  UNL1        0.0678
     13 C         -26.2739   -0.8426   31.0460 C.3     1  UNL1        0.4183
     14 F         -25.2997   -1.5099   31.2030 F       1  UNL1       -0.1659
     15 F         -26.0963    0.4149   31.8231 F       1  UNL1       -0.1659
     16 F         -25.8884   -1.1495   31.9319 F       1  UNL1       -0.1659
@<TRIPOS>BOND
     1     1     2    1
     2     1     3    1
     3     3     4    1
     4     3     5    1
     5     3     6    1
     6    12    13    1
     7    13    14    1
     8    13    15    1
     9    13    16    1
    10     9     8    1
    11     2     7   ar
    12     7     8   ar
    13     8    10   ar
    14    10    11   ar
    15    11    12   ar
    16    12     2   ar
