@<TRIPOS>MOLECULE
No_4294-gen_results/8p0m/2024-11-26-14-13-15/
 26 27 0 0 0
SMALL
GASTEIGER

@<TRIPOS>ATOM
      1 C         -28.0162   -0.8135   28.8779 C.ar    1  UNL1        0.0046
      2 C         -28.4690   -0.7850   29.8287 C.ar    1  UNL1        0.0001
      3 C         -27.1356    0.2359   28.5352 C.ar    1  UNL1        0.0554
      4 C         -26.8745    1.2825   29.3982 C.ar    1  UNL1        0.0046
      5 C         -28.3613    0.1987   30.9244 C.ar    1  UNL1        0.0000
      6 C         -27.5277    1.2234   30.6356 C.ar    1  UNL1        0.0001
      7 C         -26.3987    0.2949   27.2279 C.2     1  UNL1        0.2690
      8 N         -25.1481    0.1287   27.3794 N.am    1  UNL1       -0.1760
      9 O         -26.9676    0.3869   26.1430 O.2     1  UNL1       -0.2680
     10 C         -24.3250    0.0450   28.5471 C.ar    1  UNL1        0.0672
     11 C         -23.2561    1.1072   28.5191 C.ar    1  UNL1        0.0076
     12 C         -22.2365    1.0055   29.5204 C.ar    1  UNL1       -0.0018
     13 C         -22.4113   -0.0251   30.4954 C.ar    1  UNL1       -0.0005
     14 C         -24.1967   -0.8373   29.5031 C.ar    1  UNL1       -0.0027
     15 C         -25.2291   -1.9473   29.4554 C.3     1  UNL1        0.0544
     16 C         -23.3198   -0.9211   30.5038 C.ar    1  UNL1       -0.0027
     17 C         -24.7053   -3.1997   29.0434 C.2     1  UNL1       -0.0061
     18 C         -25.4969   -4.3754   29.2840 C.2     1  UNL1        0.1250
     19 CL        -24.9183   -5.8193   28.8173 Cl      1  UNL1       -0.0787
     20 C         -26.7937   -4.2925   29.9199 C.3     1  UNL1        0.4281
     21 F         -27.6512   -5.0846   29.5264 F       1  UNL1       -0.1650
     22 F         -26.5625   -4.3898   31.3099 F       1  UNL1       -0.1650
     23 F         -27.3118   -3.0291   29.9603 F       1  UNL1       -0.1650
     24 C         -23.3379    2.1409   27.5588 C.3     1  UNL1        0.1033
     25 CL        -23.8050    3.6409   27.9875 Cl      1  UNL1       -0.1102
     26 C         -22.7566    1.9452   26.2613 C.3     1  UNL1        0.0224
@<TRIPOS>BOND
     1     3     7    1
     2     7     8   am
     3     7     9    2
     4     8    10    1
     5    14    15    1
     6    15    17    1
     7    17    18    2
     8    18    19    1
     9    18    20    1
    10    20    21    1
    11    20    22    1
    12    20    23    1
    13    11    24    1
    14    24    25    1
    15    24    26    1
    16    10    11   ar
    17    11    12   ar
    18    12    13   ar
    19    13    16   ar
    20    16    14   ar
    21    14    10   ar
    22     1     2   ar
    23     2     5   ar
    24     5     6   ar
    25     6     4   ar
    26     4     3   ar
    27     3     1   ar
