@<TRIPOS>MOLECULE
No_4298-gen_results/8p0m/2024-11-26-14-13-15/
 16 17 0 0 0
SMALL
GASTEIGER

@<TRIPOS>ATOM
      1 C         -28.0162   -0.8135   28.8779 C.ar    1  UNL1        0.0002
      2 C         -27.0636   -0.1189   28.6079 C.ar    1  UNL1        0.0000
      3 C         -26.9716    0.7139   27.5060 C.ar    1  UNL1        0.0002
      4 C         -28.1053    0.7744   26.6421 C.ar    1  UNL1        0.0066
      5 C         -29.2041    0.1179   27.0477 C.ar    1  UNL1        0.0798
      6 C         -29.2127   -0.6088   28.1281 C.ar    1  UNL1        0.0066
      7 C         -25.7106    1.4519   27.1380 C.ar    1  UNL1        0.0008
      8 C         -25.3772    2.0455   26.1737 C.ar    1  UNL1        0.0001
      9 C         -24.0750    2.7193   25.9782 C.ar    1  UNL1        0.0009
     10 C         -23.0770    2.4988   26.9483 C.ar    1  UNL1        0.0114
     11 C         -23.3639    1.6220   28.0103 C.ar    1  UNL1        0.0577
     12 C         -24.6236    1.0878   28.1748 C.ar    1  UNL1        0.0114
     13 C         -30.4028    0.2680   26.1859 C.2     1  UNL1        0.3878
     14 O         -31.2745   -0.5936   26.1315 O.co2   1  UNL1       -0.2406
     15 O         -30.5236    1.2590   25.3373 O.co2   1  UNL1       -0.2406
     16 CL        -22.0745    1.3437   29.1074 Cl      1  UNL1       -0.0822
@<TRIPOS>BOND
     1     3     7    1
     2     5    13    1
     3    13    14   ar
     4    13    15   ar
     5    11    16    1
     6     1     2   ar
     7     2     3   ar
     8     3     4   ar
     9     4     5   ar
    10     5     6   ar
    11     6     1   ar
    12     7     8   ar
    13     8     9   ar
    14     9    10   ar
    15    10    11   ar
    16    11    12   ar
    17    12     7   ar
