@<TRIPOS>MOLECULE
No_43-gen_results/8p0m/2024-11-26-14-13-15/
 18 19 0 0 0
SMALL
GASTEIGER

@<TRIPOS>ATOM
      1 C         -28.0162   -0.8135   28.8779 C.ar    1  UNL1        0.0130
      2 C         -28.4690   -0.7850   29.8287 C.ar    1  UNL1        0.0800
      3 C         -28.1816    0.4277   28.1134 C.ar    1  UNL1        0.0762
      4 C         -28.9841    1.4155   28.5154 C.ar    1  UNL1        0.0065
      5 C         -28.3375   -2.0481   30.7873 C.2     1  UNL1        0.3878
      6 C         -29.5615    1.2930   29.7416 C.ar    1  UNL1        0.0004
      7 C         -29.3196    0.1647   30.4451 C.ar    1  UNL1        0.0066
      8 O         -28.8290   -2.9408   30.7338 O.co2   1  UNL1       -0.2406
      9 O         -27.2321   -1.9599   31.6547 O.co2   1  UNL1       -0.2406
     10 C         -27.4475    0.4940   26.7458 C.2     1  UNL1        0.3457
     11 O         -26.2969    0.2122   26.6405 O.3     1  UNL1       -0.4210
     12 O         -28.0912    0.8076   25.7163 O.2     1  UNL1       -0.2445
     13 C         -25.2410    1.1610   26.8582 C.ar    1  UNL1        0.1488
     14 C         -24.2841    0.8377   27.8288 C.ar    1  UNL1        0.0376
     15 C         -23.1632    1.7014   27.9688 C.ar    1  UNL1        0.0031
     16 C         -22.8962    2.6287   26.9672 C.ar    1  UNL1        0.0002
     17 C         -23.7983    2.7329   25.8825 C.ar    1  UNL1        0.0031
     18 C         -24.9174    1.9779   25.8458 C.ar    1  UNL1        0.0376
@<TRIPOS>BOND
     1     2     5    1
     2     5     8   ar
     3     5     9   ar
     4     3    10    1
     5    10    11    1
     6    10    12    2
     7    11    13    1
     8    13    14   ar
     9    14    15   ar
    10    15    16   ar
    11    16    17   ar
    12    17    18   ar
    13    18    13   ar
    14     1     2   ar
    15     2     7   ar
    16     7     6   ar
    17     6     4   ar
    18     4     3   ar
    19     3     1   ar
