@<TRIPOS>MOLECULE
No_430-gen_results/8p0m/2024-11-26-14-13-15/
 15 16 0 0 0
SMALL
GASTEIGER

@<TRIPOS>ATOM
      1 C         -28.0162   -0.8135   28.8779 C.ar    1  UNL1        0.0481
      2 C         -28.4690   -0.7850   29.8287 C.ar    1  UNL1        0.0145
      3 N         -26.6082   -0.9454   28.8569 N.pl3   1  UNL1       -0.3018
      4 C         -25.7271   -0.3586   27.9991 C.3     1  UNL1        0.1178
      5 C         -24.9120    0.6180   28.4779 C.ar    1  UNL1       -0.0024
      6 C         -23.9407    1.2482   27.5283 C.ar    1  UNL1       -0.0026
      7 C         -22.7612    1.8130   27.9899 C.ar    1  UNL1       -0.0003
      8 C         -21.9950    0.9423   28.6546 C.ar    1  UNL1       -0.0000
      9 C         -22.4190   -0.1509   29.1238 C.ar    1  UNL1       -0.0003
     10 C         -23.8730   -0.3050   29.2473 C.ar    1  UNL1       -0.0026
     11 C         -29.8398   -0.3803   30.1002 C.ar    1  UNL1        0.0013
     12 C         -30.5460    0.0063   28.9566 C.ar    1  UNL1        0.0001
     13 C         -29.8874    0.0933   27.7786 C.ar    1  UNL1        0.0013
     14 C         -28.5311   -0.0899   27.7665 C.ar    1  UNL1        0.0145
     15 C         -25.9867   -2.0677   29.6345 C.3     1  UNL1        0.1125
@<TRIPOS>BOND
     1     1     3    1
     2     3     4    1
     3     3    15    1
     4     4     5    1
     5     1     2   ar
     6     2    11   ar
     7    11    12   ar
     8    12    13   ar
     9    13    14   ar
    10    14     1   ar
    11     5     6   ar
    12     6     7   ar
    13     7     8   ar
    14     8     9   ar
    15     9    10   ar
    16    10     5   ar
