@<TRIPOS>MOLECULE
No_4300-gen_results/8p0m/2024-11-26-14-13-15/
 12 13 0 0 0
SMALL
GASTEIGER

@<TRIPOS>ATOM
      1 O         -28.1229   -1.3353   28.4874 O.2     1  UNL1       -0.2716
      2 C         -27.4806   -0.4044   28.7094 C.2     1  UNL1        0.2620
      3 C         -27.1904    0.2460   29.5268 C.3     1  UNL1        0.1622
      4 N         -26.6871   -0.0001   27.4423 N.am    1  UNL1       -0.1597
      5 CL        -27.9439    0.0199   31.1144 Cl      1  UNL1       -0.1048
      6 C         -25.8813    0.7407   27.3685 C.ar    1  UNL1        0.1505
      7 C         -25.5473    1.5781   28.5051 C.ar    1  UNL1        0.0130
      8 C         -26.1746    1.3614   29.6789 C.3     1  UNL1        0.0549
      9 N         -25.1470    1.0933   26.2104 N.ar    1  UNL1       -0.2276
     10 C         -24.0700    1.9582   26.1470 C.ar    1  UNL1        0.1004
     11 C         -23.7517    2.6798   27.2834 C.ar    1  UNL1        0.0205
     12 C         -24.4161    2.5655   28.3814 C.ar    1  UNL1        0.0002
@<TRIPOS>BOND
     1     1     2    2
     2     2     3    1
     3     2     4   am
     4     3     5    1
     5     3     8    1
     6     8     7    1
     7     6     4    1
     8     6     7   ar
     9     7    12   ar
    10    12    11   ar
    11    11    10   ar
    12    10     9   ar
    13     9     6   ar
