@<TRIPOS>MOLECULE
No_4302-gen_results/8p0m/2024-11-26-14-13-15/
 20 22 0 0 0
SMALL
GASTEIGER

@<TRIPOS>ATOM
      1 C         -28.0162   -0.8135   28.8779 C.ar    1  UNL1        0.0369
      2 C         -28.4690   -0.7850   29.8287 C.ar    1  UNL1        0.1391
      3 C         -26.5042   -0.7777   28.8766 C.ar    1  UNL1        0.0031
      4 C         -25.6540   -0.6597   27.7191 C.ar    1  UNL1        0.0008
      5 C         -27.9180   -0.9374   31.1824 C.ar    1  UNL1        0.0369
      6 C         -26.5423   -0.9399   31.2606 C.ar    1  UNL1        0.0031
      7 C         -25.7832   -0.8935   30.1201 C.ar    1  UNL1        0.0009
      8 C         -24.3179   -0.2373   27.8436 C.ar    1  UNL1        0.0103
      9 C         -23.6632   -0.4277   29.0855 C.ar    1  UNL1        0.0684
     10 C         -24.3624   -0.6461   30.1936 C.ar    1  UNL1        0.0103
     11 C         -22.1965   -0.1594   29.1257 C.1     1  UNL1        0.1004
     12 N         -21.2459    0.3685   28.7359 N.1     1  UNL1       -0.1908
     13 O         -29.9111   -0.8649   29.8495 O.3     1  UNL1       -0.4706
     14 C         -30.5986    0.2557   30.2022 C.3     1  UNL1        0.2320
     15 C         -30.4679    0.9687   30.9676 C.ar    1  UNL1        0.0212
     16 C         -30.8619    2.0935   31.4202 C.ar    1  UNL1       -0.0007
     17 C         -30.6317    2.9487   31.9707 C.ar    1  UNL1       -0.0002
     18 C         -29.4030    2.8866   32.8456 C.ar    1  UNL1       -0.0000
     19 C         -28.6794    1.7330   32.6460 C.ar    1  UNL1       -0.0002
     20 C         -29.0890    0.8306   31.7561 C.ar    1  UNL1       -0.0007
@<TRIPOS>BOND
     1     9    11    1
     2    11    12    3
     3     2    13    1
     4    13    14    1
     5    14    15    1
     6    15    16   ar
     7    16    17   ar
     8    17    18   ar
     9    18    19   ar
    10    19    20   ar
    11    20    15   ar
    12     1     2   ar
    13     2     5   ar
    14     5     6   ar
    15     6     7   ar
    16     3     1   ar
    17     3     4   ar
    18     4     8   ar
    19     8     9   ar
    20     9    10   ar
    21    10     7   ar
    22     7     3   ar
