@<TRIPOS>MOLECULE
No_4303-gen_results/8p0m/2024-11-26-14-13-15/
 13 13 0 0 0
SMALL
GASTEIGER

@<TRIPOS>ATOM
      1 C         -28.0162   -0.8135   28.8779 C.2     1  UNL1        0.0062
      2 C         -28.4690   -0.7850   29.8287 C.2     1  UNL1       -0.0023
      3 C         -26.5455   -0.8762   28.8500 C.3     1  UNL1        0.1793
      4 C         -25.8041   -1.0324   30.0571 C.3     1  UNL1        0.2668
      5 C         -26.5373   -1.0386   31.2171 C.2     1  UNL1        0.0167
      6 C         -27.8843   -0.9532   31.1862 C.2     1  UNL1       -0.0019
      7 C         -24.3655   -1.1134   30.0483 C.3     1  UNL1        0.4308
      8 F         -23.9041   -1.6766   29.0966 F       1  UNL1       -0.1669
      9 F         -23.7961    0.1579   30.0193 F       1  UNL1       -0.1669
     10 F         -23.8669   -1.6504   31.2171 F       1  UNL1       -0.1669
     11 F         -25.5172   -2.0521   29.8105 F       1  UNL1       -0.2237
     12 O         -25.9987    0.2309   28.3026 O.3     1  UNL1       -0.3458
     13 C         -25.7807    0.3878   26.8911 C.3     1  UNL1        0.1746
@<TRIPOS>BOND
     1     1     2    2
     2     1     3    1
     3     3     4    1
     4     4     5    1
     5     2     6    1
     6     5     6    2
     7     4     7    1
     8     7     8    1
     9     7     9    1
    10     7    10    1
    11     4    11    1
    12     3    12    1
    13    12    13    1
