@<TRIPOS>MOLECULE
No_4304-gen_results/8p0m/2024-11-26-14-13-15/
 34 36 0 0 0
SMALL
GASTEIGER

@<TRIPOS>ATOM
      1 C         -28.0162   -0.8135   28.8779 C.ar    1  UNL1        0.0745
      2 C         -27.0636   -0.1190   28.6079 C.ar    1  UNL1        0.1415
      3 C         -25.7647   -0.3897   29.0360 C.ar    1  UNL1        0.0343
      4 C         -25.5296   -1.5302   29.9014 C.ar    1  UNL1        0.0061
      5 C         -26.6888   -2.2893   30.1810 C.ar    1  UNL1        0.0378
      6 C         -27.8727   -1.9508   29.7373 C.ar    1  UNL1        0.1518
      7 O         -28.9304   -2.7298   30.1154 O.3     1  UNL1       -0.4209
      8 C         -24.5394    0.4211   28.7421 C.ar    1  UNL1        0.0059
      9 C         -24.5259    1.2743   27.7266 C.ar    1  UNL1        0.0370
     10 C         -23.3174    1.9856   27.4033 C.ar    1  UNL1        0.1387
     11 C         -22.1311    1.7373   28.0503 C.ar    1  UNL1        0.0369
     12 C         -23.2983    0.1369   29.3771 C.ar    1  UNL1        0.0003
     13 C         -22.1005    0.8185   29.0410 C.ar    1  UNL1        0.0031
     14 C         -30.0646   -2.2184   30.5721 C.2     1  UNL1        0.3458
     15 C         -30.4682   -2.9139   31.7147 C.ar    1  UNL1        0.0784
     16 C         -29.6114   -3.6421   32.4333 C.ar    1  UNL1        0.0089
     17 C         -31.8823   -2.8515   32.1076 C.ar    1  UNL1        0.0384
     18 C         -29.9825   -4.4401   33.1452 C.ar    1  UNL1        0.0322
     19 C         -32.2628   -3.7450   33.1206 C.ar    1  UNL1        0.1676
     20 C         -31.3002   -4.5774   33.7265 C.ar    1  UNL1        0.1674
     21 O         -30.6847   -1.3135   30.0632 O.2     1  UNL1       -0.2445
     22 O         -23.3904    2.8949   26.3810 O.3     1  UNL1       -0.4714
     23 C         -24.0971    3.8745   26.3773 C.3     1  UNL1        0.2525
     24 F         -33.5143   -3.7613   33.5268 F       1  UNL1       -0.2018
     25 F         -31.6818   -5.4062   34.6643 F       1  UNL1       -0.2018
     26 O         -27.2961    1.0234   27.8929 O.3     1  UNL1       -0.4753
     27 C         -28.4854    1.6016   27.8216 C.3     1  UNL1        0.2061
     28 C         -28.8414    2.5928   28.6797 C.3     1  UNL1        0.0560
     29 C         -27.8977    3.4395   29.0612 C.3     1  UNL1        0.0473
     30 C         -27.3584    4.4176   28.1912 C.2     1  UNL1       -0.0265
     31 C         -27.5179    5.6731   28.5778 C.2     1  UNL1       -0.0300
     32 C         -27.3126    6.7297   27.6257 C.3     1  UNL1        0.0304
     33 C         -27.1799    3.2922   30.3567 C.2     1  UNL1       -0.0220
     34 C         -26.9717    4.5804   31.0557 C.2     1  UNL1       -0.0046
@<TRIPOS>BOND
     1     6     7    1
     2     3     8    1
     3     7    14    1
     4    14    15    1
     5    14    21    2
     6    10    22    1
     7    22    23    1
     8    19    24    1
     9    20    25    1
    10     2    26    1
    11    26    27    1
    12    27    28    1
    13    28    29    1
    14    29    30    1
    15    30    31    2
    16    31    32    1
    17    29    33    1
    18    33    34    2
    19     1     2   ar
    20     2     3   ar
    21     3     4   ar
    22     4     5   ar
    23     5     6   ar
    24     6     1   ar
    25    15    16   ar
    26    16    18   ar
    27    18    20   ar
    28    20    19   ar
    29    19    17   ar
    30    17    15   ar
    31     8     9   ar
    32     9    10   ar
    33    10    11   ar
    34    11    13   ar
    35    13    12   ar
    36    12     8   ar
