@<TRIPOS>MOLECULE
No_4305-gen_results/8p0m/2024-11-26-14-13-15/
 14 15 0 0 0
SMALL
GASTEIGER

@<TRIPOS>ATOM
      1 O         -28.1229   -1.3353   28.4874 O.2     1  UNL1       -0.2727
      2 C         -27.4806   -0.4044   28.7094 C.2     1  UNL1        0.2523
      3 C         -27.1904    0.2460   29.5268 C.3     1  UNL1        0.1495
      4 N         -26.6871   -0.0001   27.4423 N.am    1  UNL1       -0.1605
      5 C         -27.6511    0.1259   30.8799 C.3     1  UNL1        0.3274
      6 C         -25.7508    1.0047   27.4342 C.ar    1  UNL1        0.1504
      7 C         -25.5610    1.6907   28.6120 C.ar    1  UNL1        0.0119
      8 C         -26.1559    1.3682   29.6808 C.3     1  UNL1        0.0441
      9 F         -28.2686   -0.9093   31.0194 F       1  UNL1       -0.1979
     10 F         -28.0709    0.8456   31.7272 F       1  UNL1       -0.1979
     11 N         -25.1315    1.3066   26.2761 N.ar    1  UNL1       -0.2276
     12 C         -24.0964    2.2597   26.2847 C.ar    1  UNL1        0.1004
     13 C         -23.8548    2.9963   27.4115 C.ar    1  UNL1        0.0205
     14 C         -24.5014    2.7383   28.5121 C.ar    1  UNL1        0.0002
@<TRIPOS>BOND
     1     1     2    2
     2     2     3    1
     3     2     4   am
     4     3     5    1
     5     3     8    1
     6     7     8    1
     7     5     9    1
     8     5    10    1
     9     6     4    1
    10     6     7   ar
    11     7    14   ar
    12    14    13   ar
    13    13    12   ar
    14    12    11   ar
    15    11     6   ar
