@<TRIPOS>MOLECULE
No_4306-gen_results/8p0m/2024-11-26-14-13-15/
 31 34 0 0 0
SMALL
GASTEIGER

@<TRIPOS>ATOM
      1 O         -28.1229   -1.3353   28.4874 O.2     1  UNL1       -0.2729
      2 C         -27.4806   -0.4044   28.7094 C.2     1  UNL1        0.2465
      3 C         -27.1904    0.2460   29.5268 C.3     1  UNL1        0.1006
      4 N         -26.8157    0.1370   27.4262 N.am    1  UNL1       -0.1848
      5 C         -27.5787    0.0639   30.8960 C.ar    1  UNL1       -0.0138
      6 C         -25.8899    1.1418   27.4087 C.3     1  UNL1        0.1896
      7 C         -25.6606    1.7775   28.6061 C.3     1  UNL1        0.0449
      8 C         -26.1852    1.3885   29.6914 C.3     1  UNL1        0.0172
      9 C         -28.1958   -0.9737   31.1405 C.ar    1  UNL1       -0.0038
     10 C         -28.9235   -1.3237   32.3638 C.ar    1  UNL1       -0.0003
     11 C         -28.7353   -0.4026   33.4108 C.ar    1  UNL1        0.0001
     12 C         -28.0237    0.7271   33.2216 C.ar    1  UNL1        0.0041
     13 C         -27.4731    1.0059   32.0079 C.ar    1  UNL1       -0.0037
     14 N         -25.3396    1.5029   26.2315 N.am    1  UNL1       -0.1800
     15 C         -24.1191    1.5291   26.0762 C.2     1  UNL1        0.2840
     16 C         -23.1928    1.5742   27.1849 C.ar    1  UNL1        0.1362
     17 C         -21.7848    1.6985   27.0154 C.ar    1  UNL1        0.0254
     18 C         -21.0502    1.6778   28.2371 C.ar    1  UNL1        0.0223
     19 C         -21.6661    1.0865   29.3757 C.ar    1  UNL1        0.0991
     20 N         -23.3271    1.0168   28.5004 N.ar    1  UNL1       -0.2392
     21 O         -23.5712    1.7151   24.9428 O.2     1  UNL1       -0.2667
     22 C         -29.3853   -0.7382   34.7328 C.ar    1  UNL1        0.0000
     23 C         -28.9124   -0.2245   35.7452 C.ar    1  UNL1        0.0001
     24 C         -28.1196    1.0643   35.6155 C.ar    1  UNL1        0.0046
     25 C         -27.5768    1.4467   34.4361 C.ar    1  UNL1        0.0554
     26 C         -26.7330    2.6313   34.3101 C.2     1  UNL1        0.2690
     27 N         -26.8522    3.6312   35.1962 N.am    1  UNL1       -0.1741
     28 C         -26.3377    4.8892   34.8634 C.2     1  UNL1        0.0889
     29 C         -25.5956    4.9972   33.6658 C.2     1  UNL1        0.0179
     30 C         -25.1023    6.2463   33.2340 C.2     1  UNL1        0.0014
     31 O         -25.8607    2.7925   33.3920 O.2     1  UNL1       -0.2680
@<TRIPOS>BOND
     1     1     2    2
     2     2     3    1
     3     2     4   am
     4     3     5    1
     5     6     7    1
     6     3     8    1
     7     6    14    1
     8    14    15   am
     9    15    16    1
    10    16    17   ar
    11    17    18   ar
    12    18    19   ar
    13    16    20   ar
    14    19    20   ar
    15    15    21    2
    16    25    26    1
    17    26    27    1
    18    27    28    2
    19    28    29    1
    20    29    30    2
    21    26    31    2
    22     8     7    1
    23     6     4    1
    24     5     9   ar
    25     9    10   ar
    26    10    11   ar
    27    12    13   ar
    28    13     5   ar
    29    11    12   ar
    30    12    25   ar
    31    25    24   ar
    32    24    23   ar
    33    23    22   ar
    34    22    11   ar
