@<TRIPOS>MOLECULE
No_4307-gen_results/8p0m/2024-11-26-14-13-15/
 15 15 0 0 0
SMALL
GASTEIGER

@<TRIPOS>ATOM
      1 C         -28.0162   -0.8135   28.8779 C.ar    1  UNL1       -0.0030
      2 C         -28.4690   -0.7850   29.8287 C.ar    1  UNL1       -0.0075
      3 C         -27.0871    0.2903   28.6377 C.ar    1  UNL1       -0.0003
      4 C         -26.8317    1.2487   29.5869 C.ar    1  UNL1       -0.0000
      5 C         -29.4442   -1.9481   30.1840 C.3     1  UNL1        0.0845
      6 C         -27.4956    1.1303   30.8222 C.ar    1  UNL1       -0.0003
      7 C         -28.3376    0.0364   31.0331 C.ar    1  UNL1       -0.0030
      8 N         -29.1562   -3.1767   30.3191 N.3     1  UNL1       -0.2676
      9 C         -30.9085   -1.7234   30.3629 C.3     1  UNL1        0.0465
     10 C         -27.7666   -3.5743   30.3295 C.3     1  UNL1        0.0899
     11 C         -30.0011   -4.2549   30.5291 C.3     1  UNL1        0.0899
     12 C         -31.2883   -0.3690   30.2691 C.2     1  UNL1       -0.0244
     13 C         -32.0863    0.1147   29.7360 C.2     1  UNL1       -0.0045
     14 C         -32.5354    1.5279   29.7880 C.2     1  UNL1       -0.0003
     15 C         -33.5098    2.1054   29.0163 C.2     1  UNL1       -0.0000
@<TRIPOS>BOND
     1     2     5    1
     2     5     8    1
     3     5     9    1
     4     8    10    1
     5     8    11    1
     6     9    12    1
     7    12    13    2
     8    13    14    1
     9    14    15    2
    10     1     2   ar
    11     2     7   ar
    12     7     6   ar
    13     6     4   ar
    14     4     3   ar
    15     3     1   ar
