@<TRIPOS>MOLECULE
No_4308-gen_results/8p0m/2024-11-26-14-13-15/
 14 15 0 0 0
SMALL
GASTEIGER

@<TRIPOS>ATOM
      1 C         -28.0162   -0.8135   28.8779 C.ar    1  UNL1        0.0000
      2 C         -28.4690   -0.7850   29.8287 C.ar    1  UNL1        0.0000
      3 C         -26.5455   -0.8762   28.8500 C.ar    1  UNL1        0.0000
      4 C         -25.8041   -1.0324   30.0571 C.ar    1  UNL1        0.0000
      5 C         -26.5373   -1.0386   31.2171 C.ar    1  UNL1        0.0000
      6 C         -27.8843   -0.9532   31.1862 C.ar    1  UNL1        0.0000
      7 C         -24.3555   -1.1121   30.0346 C.ar    1  UNL1        0.0000
      8 C         -23.6129   -1.1081   29.0414 C.ar    1  UNL1        0.0000
      9 C         -22.3378   -0.5361   29.0379 C.ar    1  UNL1        0.0000
     10 C         -21.6245   -0.0949   27.9165 C.2     1  UNL1        0.0000
     11 C         -21.3389    1.3850   28.0877 C.2     1  UNL1        0.0000
     12 C         -23.6773   -1.1934   31.4062 C.ar    1  UNL1        0.0000
     13 C         -22.3205   -0.7764   31.4604 C.ar    1  UNL1        0.0000
     14 C         -21.6819   -0.3374   30.3622 C.ar    1  UNL1        0.0000
@<TRIPOS>BOND
     1     4     7    1
     2     9    10    1
     3    10    11    2
     4     7     8   ar
     5     8     9   ar
     6     9    14   ar
     7    14    13   ar
     8    13    12   ar
     9    12     7   ar
    10     1     2   ar
    11     2     6   ar
    12     6     5   ar
    13     5     4   ar
    14     4     3   ar
    15     3     1   ar
