@<TRIPOS>MOLECULE
No_4309-gen_results/8p0m/2024-11-26-14-13-15/
 28 30 0 0 0
SMALL
GASTEIGER

@<TRIPOS>ATOM
      1 C         -28.0162   -0.8135   28.8779 C.2     1  UNL1        0.2530
      2 C         -27.0636   -0.1189   28.6079 C.ar    1  UNL1        0.0539
      3 C         -26.9287    1.1713   29.0083 C.ar    1  UNL1        0.0044
      4 C         -25.7702    2.0341   28.6884 C.ar    1  UNL1        0.0013
      5 C         -24.7141    1.4431   27.9188 C.ar    1  UNL1        0.0436
      6 C         -24.8590    0.0783   27.5836 C.ar    1  UNL1        0.0013
      7 C         -25.9647   -0.6606   27.9164 C.ar    1  UNL1        0.0044
      8 N         -29.1701   -0.2984   28.9471 N.am    1  UNL1       -0.2509
      9 C         -29.7216    0.3727   28.0429 C.ar    1  UNL1        0.0544
     10 C         -29.5072    0.7748   27.1519 C.ar    1  UNL1        0.0149
     11 C         -30.2809    1.4989   26.1225 C.ar    1  UNL1        0.0013
     12 C         -31.2886    0.4185   28.3294 C.ar    1  UNL1        0.0149
     13 C         -32.0975    1.1089   27.4869 C.ar    1  UNL1        0.0013
     14 C         -31.5721    1.6636   26.3766 C.ar    1  UNL1        0.0001
     15 O         -27.8207   -1.8753   29.5483 O.2     1  UNL1       -0.2696
     16 C         -23.4860    2.1108   27.6143 C.3     1  UNL1        0.3410
     17 F         -22.5615    1.6272   27.5383 F       1  UNL1       -0.1933
     18 F         -23.7165    3.3551   27.2342 F       1  UNL1       -0.1933
     19 C         -29.7738   -0.3456   30.3712 C.3     1  UNL1        0.1250
     20 C         -30.4139   -1.4419   30.7346 C.ar    1  UNL1       -0.0018
     21 C         -31.0243   -1.4955   31.9668 C.ar    1  UNL1       -0.0026
     22 C         -31.6207   -2.7073   32.3918 C.ar    1  UNL1       -0.0001
     23 C         -31.5747   -3.8070   31.5466 C.ar    1  UNL1        0.0066
     24 C         -30.9251   -3.7900   30.3311 C.ar    1  UNL1        0.0795
     25 C         -30.3042   -2.6105   29.9302 C.ar    1  UNL1        0.0040
     26 C         -30.8537   -4.9823   29.4776 C.2     1  UNL1        0.3877
     27 O         -30.0491   -5.0312   28.6507 O.co2   1  UNL1       -0.2406
     28 O         -31.9259   -5.7092   29.4699 O.co2   1  UNL1       -0.2406
@<TRIPOS>BOND
     1     1     2    1
     2     1     8   am
     3     8     9    1
     4     1    15    2
     5     5    16    1
     6    16    17    1
     7    16    18    1
     8     8    19    1
     9    24    26    1
    10    26    27   ar
    11    26    28   ar
    12    19    20    1
    13     2     3   ar
    14     3     4   ar
    15     4     5   ar
    16     5     6   ar
    17     6     7   ar
    18     7     2   ar
    19     9    10   ar
    20    10    11   ar
    21    11    14   ar
    22    14    13   ar
    23    13    12   ar
    24    12     9   ar
    25    20    21   ar
    26    21    22   ar
    27    22    23   ar
    28    23    24   ar
    29    24    25   ar
    30    25    20   ar
