@<TRIPOS>MOLECULE
No_431-gen_results/8p0m/2024-11-26-14-13-15/
 17 18 0 0 0
SMALL
GASTEIGER

@<TRIPOS>ATOM
      1 C         -28.0162   -0.8135   28.8779 C.3     1  UNL1        0.1002
      2 C         -27.0636   -0.1189   28.6079 C.ar    1  UNL1       -0.0061
      3 C         -26.9287    1.1713   29.0083 C.ar    1  UNL1       -0.0030
      4 C         -25.7702    2.0341   28.6884 C.ar    1  UNL1        0.0036
      5 C         -24.7141    1.4431   27.9188 C.ar    1  UNL1        0.0714
      6 C         -24.8590    0.0783   27.5836 C.ar    1  UNL1        0.0036
      7 C         -25.9647   -0.6606   27.9164 C.ar    1  UNL1       -0.0030
      8 N         -29.1701   -0.2984   28.9471 N.3     1  UNL1       -0.2540
      9 C         -29.8110    0.1551   29.8586 C.3     1  UNL1        0.0752
     10 C         -31.1377    0.6648   29.6224 C.3     1  UNL1        0.0362
     11 C         -29.9350   -0.1551   27.7186 C.3     1  UNL1        0.1640
     12 N         -31.0749    0.2742   27.6729 N.3     1  UNL1       -0.2008
     13 C         -31.7510    0.7292   28.5541 C.3     1  UNL1        0.0917
     14 C         -23.5096    2.1354   27.6018 C.3     1  UNL1        0.4186
     15 F         -23.3803    2.7608   26.6158 F       1  UNL1       -0.1659
     16 F         -23.0425    2.8974   28.6690 F       1  UNL1       -0.1659
     17 F         -22.3969    1.1890   27.6211 F       1  UNL1       -0.1659
@<TRIPOS>BOND
     1     1     2    1
     2     1     8    1
     3     8     9    1
     4     8    11    1
     5    11    12    1
     6    10    13    1
     7     5    14    1
     8    14    15    1
     9    14    16    1
    10    14    17    1
    11     9    10    1
    12    13    12    1
    13     2     3   ar
    14     3     4   ar
    15     4     5   ar
    16     5     6   ar
    17     6     7   ar
    18     7     2   ar
