@<TRIPOS>MOLECULE
No_4310-gen_results/8p0m/2024-11-26-14-13-15/
 35 38 0 0 0
SMALL
GASTEIGER

@<TRIPOS>ATOM
      1 C         -28.0162   -0.8135   28.8779 C.ar    1  UNL1        0.0046
      2 C         -27.0636   -0.1189   28.6079 C.ar    1  UNL1        0.0001
      3 C         -25.7647   -0.3897   29.0360 C.ar    1  UNL1       -0.0000
      4 C         -25.5296   -1.5302   29.9014 C.ar    1  UNL1        0.0001
      5 C         -26.6888   -2.2893   30.1810 C.ar    1  UNL1        0.0046
      6 C         -27.8727   -1.9508   29.7373 C.ar    1  UNL1        0.0555
      7 C         -29.0016   -2.8142   30.1793 C.2     1  UNL1        0.2716
      8 N         -28.8271   -4.0755   30.4770 N.am    1  UNL1       -0.1371
      9 O         -30.1619   -2.3440   30.2525 O.2     1  UNL1       -0.2679
     10 C         -29.8734   -5.0252   30.8174 C.2     1  UNL1        0.2716
     11 C         -30.7705   -5.2846   29.8281 C.ar    1  UNL1        0.0555
     12 C         -31.4796   -6.4352   29.9353 C.ar    1  UNL1        0.0047
     13 C         -32.3283   -6.8494   28.8219 C.ar    1  UNL1        0.0047
     14 C         -32.3345   -6.0455   27.6244 C.ar    1  UNL1        0.0536
     15 C         -31.4813   -4.9359   27.5613 C.ar    1  UNL1        0.0047
     16 C         -30.6692   -4.5933   28.5857 C.ar    1  UNL1        0.0047
     17 C         -24.5531    0.4255   28.6829 C.ar    1  UNL1       -0.0003
     18 C         -24.5682    1.3552   27.6491 C.ar    1  UNL1       -0.0043
     19 C         -23.5992    1.9541   27.2978 C.ar    1  UNL1       -0.0218
     20 C         -22.2456    1.7566   27.8206 C.ar    1  UNL1       -0.0043
     21 C         -23.2999    0.1236   29.2632 C.ar    1  UNL1       -0.0000
     22 C         -22.1394    0.8170   28.8217 C.ar    1  UNL1       -0.0003
     23 C         -23.6355    3.0324   26.1959 C.3     1  UNL1        0.0310
     24 O         -29.8109   -5.5434   31.9709 O.2     1  UNL1       -0.2679
     25 C         -33.1948   -6.4509   26.5379 C.2     1  UNL1        0.2493
     26 O         -33.5831   -5.5954   25.8083 O.2     1  UNL1       -0.2699
     27 N         -33.3994   -7.7865   26.2102 N.am    1  UNL1       -0.2702
     28 C         -32.8233   -8.8565   26.9549 C.3     1  UNL1        0.1205
     29 C         -34.1920   -8.1274   25.0529 C.3     1  UNL1        0.1155
     30 C         -33.6201   -9.6608   27.6720 C.ar    1  UNL1       -0.0023
     31 C         -34.8879   -9.5741   27.7713 C.ar    1  UNL1       -0.0026
     32 C         -35.6756  -10.4705   28.5866 C.ar    1  UNL1       -0.0003
     33 C         -34.9621  -11.4990   29.2272 C.ar    1  UNL1       -0.0000
     34 C         -33.6412  -11.6565   29.1416 C.ar    1  UNL1       -0.0003
     35 C         -32.8612  -10.7576   28.4135 C.ar    1  UNL1       -0.0026
@<TRIPOS>BOND
     1     6     7    1
     2     7     8   am
     3     7     9    2
     4     8    10   am
     5    10    11    1
     6     3    17    1
     7    19    23    1
     8    10    24    2
     9    14    25    1
    10    25    26    2
    11    25    27   am
    12    27    28    1
    13    27    29    1
    14    28    30    1
    15    11    12   ar
    16    12    13   ar
    17    13    14   ar
    18    14    15   ar
    19    15    16   ar
    20    16    11   ar
    21     1     2   ar
    22     2     3   ar
    23     3     4   ar
    24     4     5   ar
    25     5     6   ar
    26     6     1   ar
    27    17    18   ar
    28    18    19   ar
    29    19    20   ar
    30    20    22   ar
    31    22    21   ar
    32    21    17   ar
    33    30    31   ar
    34    31    32   ar
    35    32    33   ar
    36    33    34   ar
    37    34    35   ar
    38    35    30   ar
