@<TRIPOS>MOLECULE
No_4311-gen_results/8p0m/2024-11-26-14-13-15/
 14 14 0 0 0
SMALL
GASTEIGER

@<TRIPOS>ATOM
      1 F         -28.0727   -1.2542   28.5316 F       1  UNL1       -0.2042
      2 C         -27.0607   -0.6291   28.8721 C.ar    1  UNL1        0.1440
      3 C         -26.3579   -0.0711   28.0115 C.ar    1  UNL1        0.0990
      4 C         -25.0715    0.5531   28.2555 C.ar    1  UNL1        0.0127
      5 C         -24.5772    0.4803   29.5696 C.ar    1  UNL1        0.0799
      6 C         -23.3007    1.0341   29.9660 C.2     1  UNL1        0.3877
      7 C         -25.3483   -0.2115   30.5373 C.ar    1  UNL1        0.0089
      8 C         -26.5435   -0.8197   30.2149 C.ar    1  UNL1        0.0298
      9 O         -22.2883    0.9077   29.5111 O.co2   1  UNL1       -0.2406
     10 O         -23.4078    1.9432   30.9439 O.co2   1  UNL1       -0.2406
     11 C         -26.7294    0.0831   26.5753 C.3     1  UNL1        0.4207
     12 F         -27.2713    1.1622   26.3932 F       1  UNL1       -0.1658
     13 F         -27.5835   -0.8730   26.2333 F       1  UNL1       -0.1658
     14 F         -25.6680   -0.0626   25.7132 F       1  UNL1       -0.1658
@<TRIPOS>BOND
     1     1     2    1
     2     5     6    1
     3     6     9   ar
     4     6    10   ar
     5     3    11    1
     6    11    12    1
     7    11    13    1
     8    11    14    1
     9     2     3   ar
    10     3     4   ar
    11     4     5   ar
    12     5     7   ar
    13     7     8   ar
    14     8     2   ar
