@<TRIPOS>MOLECULE
No_4312-gen_results/8p0m/2024-11-26-14-13-15/
 14 15 0 0 0
SMALL
GASTEIGER

@<TRIPOS>ATOM
      1 C         -28.0162   -0.8135   28.8779 C.ar    1  UNL1       -0.0003
      2 C         -27.0636   -0.1190   28.6079 C.ar    1  UNL1       -0.0040
      3 C         -25.7647   -0.3897   29.0360 C.ar    1  UNL1       -0.0184
      4 C         -25.5296   -1.5302   29.9014 C.ar    1  UNL1       -0.0040
      5 C         -26.6888   -2.2893   30.1810 C.ar    1  UNL1       -0.0003
      6 C         -27.8727   -1.9508   29.7373 C.ar    1  UNL1       -0.0000
      7 C         -24.5491    0.4100   28.7341 C.3     1  UNL1        0.0446
      8 C         -24.4789    1.1871   27.6843 C.ar    1  UNL1       -0.0184
      9 C         -25.1757    1.5312   26.7988 C.ar    1  UNL1       -0.0040
     10 C         -24.8054    2.3108   25.7110 C.ar    1  UNL1       -0.0003
     11 C         -23.4668    2.8226   25.7908 C.ar    1  UNL1       -0.0000
     12 C         -23.0499    1.8293   27.5846 C.ar    1  UNL1       -0.0040
     13 C         -22.5980    2.5823   26.7005 C.ar    1  UNL1       -0.0003
     14 C         -24.0081    1.0406   30.0120 C.3     1  UNL1        0.0094
@<TRIPOS>BOND
     1     3     7    1
     2     7     8    1
     3     7    14    1
     4     1     2   ar
     5     2     3   ar
     6     3     4   ar
     7     4     5   ar
     8     5     6   ar
     9     6     1   ar
    10     8     9   ar
    11     9    10   ar
    12    10    11   ar
    13    11    13   ar
    14    13    12   ar
    15    12     8   ar
