@<TRIPOS>MOLECULE
No_4313-gen_results/8p0m/2024-11-26-14-13-15/
 16 17 0 0 0
SMALL
GASTEIGER

@<TRIPOS>ATOM
      1 C         -28.0162   -0.8135   28.8779 C.ar    1  UNL1        0.0046
      2 C         -28.4690   -0.7850   29.8287 C.ar    1  UNL1        0.0555
      3 C         -26.5455   -0.8762   28.8500 C.ar    1  UNL1        0.0001
      4 C         -25.8041   -1.0324   30.0571 C.ar    1  UNL1        0.0000
      5 C         -27.9437   -0.9869   31.2075 C.ar    1  UNL1        0.0046
      6 C         -26.5825   -1.0386   31.2231 C.ar    1  UNL1        0.0001
      7 C         -30.0606   -0.7371   29.9024 C.2     1  UNL1        0.2715
      8 N         -30.6057   -0.0348   29.0093 N.am    1  UNL1       -0.1392
      9 C         -31.5026    0.4445   28.7787 C.ar    1  UNL1        0.2474
     10 N         -31.8072    1.0692   27.5370 N.ar    1  UNL1       -0.1766
     11 N         -32.4617    0.7873   29.7286 N.ar    1  UNL1       -0.1897
     12 C         -33.6595    1.4647   29.5058 C.ar    1  UNL1        0.2039
     13 C         -32.9890    1.7308   27.2934 C.ar    1  UNL1        0.2604
     14 N         -33.8836    1.9516   28.3190 N.ar    1  UNL1       -0.1887
     15 O         -30.7398   -1.2889   30.7423 O.2     1  UNL1       -0.2679
     16 N         -33.1840    2.2152   26.0645 N.pl3   1  UNL1       -0.0859
@<TRIPOS>BOND
     1     2     7    1
     2     7     8   am
     3     8     9    1
     4     7    15    2
     5    13    16    1
     6     9    10   ar
     7    10    13   ar
     8    13    14   ar
     9    14    12   ar
    10    12    11   ar
    11    11     9   ar
    12     1     2   ar
    13     2     5   ar
    14     5     6   ar
    15     6     4   ar
    16     4     3   ar
    17     3     1   ar
