@<TRIPOS>MOLECULE
No_4314-gen_results/8p0m/2024-11-26-14-13-15/
 35 37 0 0 0
SMALL
GASTEIGER

@<TRIPOS>ATOM
      1 C         -28.0162   -0.8135   28.8779 C.ar    1  UNL1        0.0038
      2 C         -28.4690   -0.7850   29.8287 C.ar    1  UNL1        0.0716
      3 C         -27.1356    0.2359   28.5352 C.ar    1  UNL1        0.0041
      4 C         -26.8745    1.2825   29.3982 C.ar    1  UNL1        0.0064
      5 C         -28.3613    0.1987   30.9244 C.ar    1  UNL1        0.0103
      6 C         -27.5277    1.2234   30.6356 C.ar    1  UNL1        0.0756
      7 C         -26.3987    0.2949   27.2279 C.2     1  UNL1        0.0714
      8 C         -25.0392    0.2356   27.3538 C.2     1  UNL1        0.0041
      9 C         -24.4371    0.0057   28.5832 C.ar    1  UNL1        0.0063
     10 C         -23.2757    0.6117   28.9811 C.ar    1  UNL1        0.0798
     11 C         -22.4573    0.1288   30.0522 C.ar    1  UNL1        0.0066
     12 C         -23.0915   -0.7308   30.9485 C.ar    1  UNL1        0.0002
     13 C         -24.7874   -1.0051   29.5819 C.ar    1  UNL1        0.0002
     14 C         -24.1046   -1.3675   30.6512 C.ar    1  UNL1        0.0000
     15 C         -27.1067    0.4696   26.0537 C.3     1  UNL1        0.4186
     16 F         -26.4580    0.1623   25.0380 F       1  UNL1       -0.1659
     17 F         -27.4252    1.7949   25.9029 F       1  UNL1       -0.1659
     18 F         -28.3297   -0.1330   26.0049 F       1  UNL1       -0.1659
     19 C         -27.2250    2.4008   31.4620 C.2     1  UNL1        0.3415
     20 O         -27.2289    2.3659   32.6396 O.2     1  UNL1       -0.2449
     21 O         -26.8902    3.5554   30.8457 O.3     1  UNL1       -0.4404
     22 C         -22.6028    1.6700   28.0906 C.2     1  UNL1        0.3878
     23 O         -23.2932    2.6074   27.6844 O.co2   1  UNL1       -0.2406
     24 O         -21.3852    1.5533   27.7549 O.co2   1  UNL1       -0.2406
     25 C         -29.5061   -1.9191   30.3201 C.3     1  UNL1        0.4186
     26 F         -28.9758   -3.0164   30.2008 F       1  UNL1       -0.1659
     27 F         -29.8027   -1.7674   31.6302 F       1  UNL1       -0.1659
     28 F         -30.6126   -1.8656   29.6372 F       1  UNL1       -0.1659
     29 C         -27.5677    4.3684   30.3244 C.3     1  UNL1        0.2354
     30 C         -27.1326    4.8096   29.0418 C.ar    1  UNL1        0.0213
     31 C         -27.9823    5.6359   28.2248 C.ar    1  UNL1       -0.0007
     32 C         -27.5872    5.9455   26.9603 C.ar    1  UNL1       -0.0002
     33 C         -26.3542    5.4107   26.4404 C.ar    1  UNL1       -0.0000
     34 C         -25.5243    4.5943   27.2005 C.ar    1  UNL1       -0.0002
     35 C         -25.9330    4.3187   28.4645 C.ar    1  UNL1       -0.0007
@<TRIPOS>BOND
     1     3     7    1
     2     7     8    2
     3     8     9    1
     4     7    15    1
     5    15    16    1
     6    15    17    1
     7    15    18    1
     8     6    19    1
     9    19    20    2
    10    19    21    1
    11    10    22    1
    12    22    23   ar
    13    22    24   ar
    14     2    25    1
    15    25    26    1
    16    25    27    1
    17    25    28    1
    18    21    29    1
    19    29    30    1
    20    30    31   ar
    21    31    32   ar
    22    32    33   ar
    23    33    34   ar
    24    34    35   ar
    25    35    30   ar
    26     1     2   ar
    27     2     5   ar
    28     5     6   ar
    29     6     4   ar
    30     4     3   ar
    31     3     1   ar
    32     9    10   ar
    33    10    11   ar
    34    11    12   ar
    35    12    14   ar
    36    14    13   ar
    37    13     9   ar
