@<TRIPOS>MOLECULE
No_4315-gen_results/8p0m/2024-11-26-14-13-15/
 16 17 0 0 0
SMALL
GASTEIGER

@<TRIPOS>ATOM
      1 C         -28.0162   -0.8135   28.8779 C.ar    1  UNL1        0.0045
      2 C         -28.4690   -0.7850   29.8287 C.ar    1  UNL1        0.0539
      3 C         -26.5042   -0.7777   28.8766 C.ar    1  UNL1        0.0001
      4 C         -25.8103   -0.8531   30.1028 C.ar    1  UNL1        0.0000
      5 C         -27.9906   -0.8916   31.2257 C.ar    1  UNL1        0.0045
      6 C         -26.6042   -0.8676   31.2652 C.ar    1  UNL1        0.0001
      7 C         -30.0739   -0.8360   29.8615 C.2     1  UNL1        0.2528
      8 O         -30.6891   -1.6554   30.2229 O.2     1  UNL1       -0.2696
      9 N         -30.6139    0.2846   29.2227 N.am    1  UNL1       -0.2534
     10 C         -32.0200    0.3382   29.0215 C.3     1  UNL1        0.1203
     11 C         -29.8434    1.4262   28.7504 C.ar    1  UNL1        0.0542
     12 C         -30.0696    2.5922   29.5725 C.ar    1  UNL1        0.0149
     13 C         -29.3221    3.5645   29.2493 C.ar    1  UNL1        0.0013
     14 C         -28.3501    3.6286   28.1794 C.ar    1  UNL1        0.0001
     15 C         -28.2337    2.4801   27.4449 C.ar    1  UNL1        0.0013
     16 C         -28.9437    1.3380   27.7818 C.ar    1  UNL1        0.0149
@<TRIPOS>BOND
     1     2     7    1
     2     7     8    2
     3     7     9   am
     4     9    10    1
     5     9    11    1
     6    11    12   ar
     7    12    13   ar
     8    13    14   ar
     9    14    15   ar
    10    15    16   ar
    11    16    11   ar
    12     1     2   ar
    13     2     5   ar
    14     5     6   ar
    15     6     4   ar
    16     4     3   ar
    17     3     1   ar
