@<TRIPOS>MOLECULE
No_4316-gen_results/8p0m/2024-11-26-14-13-15/
 14 15 0 0 0
SMALL
GASTEIGER

@<TRIPOS>ATOM
      1 C         -28.0162   -0.8135   28.8779 C.3     1  UNL1        0.0052
      2 C         -28.4690   -0.7850   29.8287 C.3     1  UNL1        0.0081
      3 C         -28.1816    0.4277   28.1134 C.3     1  UNL1        0.0297
      4 C         -27.0280    0.9338   27.5279 C.ar    1  UNL1       -0.0221
      5 C         -29.8654   -0.6573   30.0468 C.3     1  UNL1        0.0645
      6 C         -30.4269    0.4084   29.2782 C.2     1  UNL1        0.1510
      7 C         -29.4631    1.0173   28.1730 C.3     1  UNL1        0.0688
      8 C         -26.9095    1.6810   26.7996 C.ar    1  UNL1       -0.0046
      9 C         -25.9216    2.1651   26.1752 C.ar    1  UNL1       -0.0046
     10 C         -24.5709    1.6395   26.4462 C.ar    1  UNL1       -0.0219
     11 C         -24.5585    0.6523   27.3768 C.ar    1  UNL1       -0.0046
     12 C         -25.7417    0.2374   27.9804 C.ar    1  UNL1       -0.0046
     13 O         -31.5844    0.9495   29.4176 O.2     1  UNL1       -0.2960
     14 C         -23.3378    2.2125   25.9103 C.3     1  UNL1        0.0310
@<TRIPOS>BOND
     1     1     2    1
     2     1     3    1
     3     3     4    1
     4     2     5    1
     5     5     6    1
     6     3     7    1
     7     6     7    1
     8     6    13    2
     9    10    14    1
    10     4     8   ar
    11     8     9   ar
    12     9    10   ar
    13    10    11   ar
    14    11    12   ar
    15    12     4   ar
