@<TRIPOS>MOLECULE
No_4317-gen_results/8p0m/2024-11-26-14-13-15/
 11 11 0 0 0
SMALL
GASTEIGER

@<TRIPOS>ATOM
      1 C         -28.0162   -0.8135   28.8779 C.ar    1  UNL1       -0.0023
      2 C         -28.4690   -0.7850   29.8287 C.ar    1  UNL1        0.0022
      3 C         -26.5455   -0.8762   28.8500 C.ar    1  UNL1       -0.0003
      4 C         -25.8041   -1.0324   30.0571 C.ar    1  UNL1       -0.0000
      5 C         -27.9437   -0.9869   31.2075 C.ar    1  UNL1       -0.0023
      6 C         -26.5825   -1.0386   31.2231 C.ar    1  UNL1       -0.0003
      7 C         -30.0606   -0.7371   29.9024 C.3     1  UNL1        0.1566
      8 N         -30.6956   -1.6968   30.2945 N.2     1  UNL1       -0.2141
      9 C         -31.8771   -2.0425   29.9162 C.2     1  UNL1        0.3618
     10 F         -32.5243   -1.2890   29.3195 F       1  UNL1       -0.1506
     11 F         -32.6296   -2.5573   30.9335 F       1  UNL1       -0.1506
@<TRIPOS>BOND
     1     2     7    1
     2     7     8    1
     3     8     9    2
     4     9    10    1
     5     9    11    1
     6     1     2   ar
     7     2     5   ar
     8     5     6   ar
     9     6     4   ar
    10     4     3   ar
    11     3     1   ar
