@<TRIPOS>MOLECULE
No_4318-gen_results/8p0m/2024-11-26-14-13-15/
 15 16 0 0 0
SMALL
GASTEIGER

@<TRIPOS>ATOM
      1 C         -28.0162   -0.8135   28.8779 C.ar    1  UNL1        0.0111
      2 C         -28.4690   -0.7850   29.8287 C.ar    1  UNL1        0.0577
      3 C         -26.5042   -0.7777   28.8766 C.ar    1  UNL1       -0.0034
      4 C         -25.8103   -0.8531   30.1028 C.ar    1  UNL1       -0.0227
      5 C         -27.9906   -0.8916   31.2257 C.ar    1  UNL1        0.0111
      6 C         -26.6042   -0.8676   31.2652 C.ar    1  UNL1       -0.0034
      7 C         -24.3894   -0.8049   30.1638 C.3     1  UNL1        0.0189
      8 C         -23.8172    0.4762   29.9118 C.3     1  UNL1        0.0040
      9 C         -22.5010    0.5449   29.4097 C.3     1  UNL1        0.0003
     10 C         -21.7696   -0.6524   29.2129 C.3     1  UNL1        0.0000
     11 C         -23.6939   -1.8206   29.2518 C.3     1  UNL1        0.0037
     12 C         -22.3030   -1.7892   29.1620 C.3     1  UNL1        0.0003
     13 C         -23.8702   -1.2517   31.6631 C.3     1  UNL1        0.0044
     14 C         -24.4056   -2.9275   28.8046 C.3     1  UNL1        0.0003
     15 CL        -30.3147   -0.8830   29.9243 Cl      1  UNL1       -0.0822
@<TRIPOS>BOND
     1     4     7    1
     2     7     8    1
     3     9    10    1
     4     7    11    1
     5     7    13    1
     6    11    14    1
     7     2    15    1
     8     8     9    1
     9    10    12    1
    10    12    11    1
    11     1     2   ar
    12     2     5   ar
    13     5     6   ar
    14     6     4   ar
    15     4     3   ar
    16     3     1   ar
