@<TRIPOS>MOLECULE
No_432-gen_results/8p0m/2024-11-26-14-13-15/
 25 26 0 0 0
SMALL
GASTEIGER

@<TRIPOS>ATOM
      1 C         -28.0162   -0.8135   28.8779 C.ar    1  UNK1        0.0369
      2 C         -27.0636   -0.1190   28.6079 C.ar    1  UNK1        0.0046
      3 C         -26.8756    1.1325   28.9134 C.ar    1  UNK1        0.0178
      4 C         -27.9014    1.8066   29.6436 C.ar    1  UNK1        0.0046
      5 C         -29.0458   -0.2316   29.7181 C.ar    1  UNK1        0.1387
      6 C         -28.9402    1.0517   30.0597 C.ar    1  UNK1        0.0369
      7 O         -30.0593   -1.0632   30.0946 O.3     1  UNK1       -0.4730
      8 C         -25.6684    1.9362   28.4484 C.ar    1  UNK1        0.0813
      9 N         -24.9744    2.6172   28.9157 N.ar    1  UNK1       -0.2438
     10 C         -25.3709    1.7935   26.9695 C.ar    1  UNK1        0.0191
     11 C         -24.3526    2.2842   26.5673 C.ar    1  UNK1        0.0031
     12 C         -23.3910    3.0437   27.2120 C.ar    1  UNK1        0.0207
     13 C         -23.7845    3.2088   28.5151 C.ar    1  UNK1        0.0988
     14 C         -29.8571   -2.1383   30.8482 C.3     1  UNK1        0.2385
     15 C         -30.1376   -3.3587   30.2070 C.3     1  UNK1        0.2410
     16 C         -29.2988   -4.4682   30.6402 C.2     1  UNK1        0.3880
     17 O         -28.1163   -4.2724   30.7352 O.co2   1  UNK1       -0.2436
     18 N         -31.5339   -3.6303   30.5079 N.am    1  UNK1       -0.1891
     19 C         -32.4486   -3.4840   29.6010 C.2     0  UNK0        0.2803
     20 O         -33.6220   -3.6898   29.8662 O.2     0  UNK0       -0.2701
     21 C         -32.1342   -3.1034   28.1372 C.3     0  UNK0        0.2926
     22 C         -32.4792   -4.0476   27.2269 C.2     0  UNK0        0.2496
     23 O         -32.2126   -3.6156   26.0193 O.2     0  UNK0       -0.2849
     24 O         -29.7968   -5.6070   30.9708 O.co2   1  UNK1       -0.2436
     25 O         -32.5927   -1.9028   27.7437 O.3     0  UNK0       -0.2045
@<TRIPOS>BOND
     1     5     7    1
     2     3     8    1
     3     7    14    1
     4    14    15    1
     5    15    16    1
     6    16    17   ar
     7    15    18    1
     8    18    19   am
     9    19    20    2
    10    19    21    1
    11    21    22    1
    12    22    23    2
    13    16    24   ar
    14    21    25    1
    15     1     2   ar
    16     2     3   ar
    17     3     4   ar
    18     4     6   ar
    19     6     5   ar
    20     5     1   ar
    21     8     9   ar
    22     9    13   ar
    23    13    12   ar
    24    12    11   ar
    25    11    10   ar
    26    10     8   ar
