@<TRIPOS>MOLECULE
No_4321-gen_results/8p0m/2024-11-26-14-13-15/
 35 38 0 0 0
SMALL
GASTEIGER

@<TRIPOS>ATOM
      1 C         -28.0162   -0.8135   28.8779 C.ar    1  UNL1        0.0023
      2 C         -28.4690   -0.7850   29.8287 C.ar    1  UNL1        0.0795
      3 C         -26.5042   -0.7777   28.8766 C.ar    1  UNL1       -0.0216
      4 C         -25.8103   -0.8531   30.1028 C.ar    1  UNL1       -0.0037
      5 C         -27.9906   -0.8916   31.2257 C.ar    1  UNL1        0.0066
      6 C         -24.3976   -0.8364   30.1775 C.ar    1  UNL1        0.0059
      7 C         -26.5754   -0.8899   31.2661 C.ar    1  UNL1       -0.0001
      8 C         -23.7964    0.4357   29.9090 C.ar    1  UNL1        0.0760
      9 C         -22.4944    0.4757   29.3632 C.ar    1  UNL1        0.0065
     10 C         -21.7757   -0.7201   29.1864 C.ar    1  UNL1        0.0002
     11 C         -23.6121   -2.0037   29.9274 C.ar    1  UNL1        0.0002
     12 C         -22.3403   -1.9014   29.3467 C.ar    1  UNL1        0.0000
     13 C         -25.6945   -0.7215   27.6424 C.3     1  UNL1        0.0310
     14 C         -24.5281    1.6709   30.1935 C.2     1  UNL1        0.3457
     15 O         -24.6128    2.1270   31.3255 O.2     1  UNL1       -0.2445
     16 O         -25.4449    2.0860   29.2817 O.3     1  UNL1       -0.4210
     17 C         -26.1294    3.2355   29.5557 C.ar    1  UNL1        0.1485
     18 C         -26.7685    3.3039   30.5645 C.ar    1  UNL1        0.0337
     19 C         -27.6452    4.5070   30.8433 C.ar    1  UNL1       -0.0142
     20 C         -27.8025    5.3870   29.7919 C.ar    1  UNL1       -0.0037
     21 C         -26.2602    4.1240   28.4202 C.ar    1  UNL1        0.0376
     22 C         -27.0526    5.2464   28.6443 C.ar    1  UNL1        0.0028
     23 C         -30.0809   -0.7560   29.8370 C.2     1  UNL1        0.3877
     24 O         -30.7808   -1.4711   30.3416 O.co2   1  UNL1       -0.2406
     25 O         -30.5742    0.2497   29.1186 O.co2   1  UNL1       -0.2406
     26 C         -28.4005    4.5932   32.1140 C.3     1  UNL1        0.0597
     27 C         -28.9771    3.6453   32.6098 C.ar    1  UNL1       -0.0172
     28 C         -29.1615    2.4634   32.1830 C.ar    1  UNL1       -0.0039
     29 C         -29.9205    1.4174   32.8755 C.ar    1  UNL1       -0.0003
     30 C         -30.3693    1.7304   34.1018 C.ar    1  UNL1       -0.0000
     31 C         -30.2215    2.9637   34.6648 C.ar    1  UNL1       -0.0003
     32 C         -29.5594    3.9605   34.0098 C.ar    1  UNL1       -0.0039
     33 C         -28.2698    5.9961   32.6972 C.3     1  UNL1        0.0880
     34 CL        -27.7510    6.5067   33.9383 Cl      1  UNL1       -0.1143
     35 C         -29.4097    6.8375   32.2794 C.3     1  UNL1        0.0182
@<TRIPOS>BOND
     1     4     6    1
     2     3    13    1
     3     8    14    1
     4    14    15    2
     5    14    16    1
     6    16    17    1
     7     2    23    1
     8    23    24   ar
     9    23    25   ar
    10    19    26    1
    11    26    27    1
    12    26    33    1
    13    33    34    1
    14    33    35    1
    15    27    28   ar
    16    28    29   ar
    17    29    30   ar
    18    30    31   ar
    19    31    32   ar
    20    32    27   ar
    21    17    18   ar
    22    18    19   ar
    23    19    20   ar
    24    20    22   ar
    25    22    21   ar
    26    21    17   ar
    27     6     8   ar
    28     8     9   ar
    29     9    10   ar
    30    10    12   ar
    31    12    11   ar
    32    11     6   ar
    33     1     2   ar
    34     2     5   ar
    35     5     7   ar
    36     7     4   ar
    37     4     3   ar
    38     3     1   ar
