@<TRIPOS>MOLECULE
No_4322-gen_results/8p0m/2024-11-26-14-13-15/
 28 29 0 0 0
SMALL
GASTEIGER

@<TRIPOS>ATOM
      1 C         -28.0162   -0.8135   28.8779 C.3     1  UNL1        0.0528
      2 C         -27.0636   -0.1189   28.6079 C.ar    1  UNL1        0.0136
      3 C         -26.9716    0.7139   27.5060 C.ar    1  UNL1        0.1354
      4 C         -25.8205    1.4909   27.1160 C.ar    1  UNL1        0.0479
      5 C         -24.6562    1.4242   27.9180 C.ar    1  UNL1        0.0607
      6 C         -24.6847    0.5901   29.0659 C.ar    1  UNL1        0.0113
      7 C         -25.8099   -0.1265   29.3338 C.ar    1  UNL1       -0.0004
      8 C         -28.6943   -0.4734   30.1587 C.3     1  UNL1        0.1205
      9 N         -29.7069   -1.2924   30.6301 N.am    1  UNL1       -0.1957
     10 CL        -23.2754    2.3249   27.5457 Cl      1  UNL1       -0.0821
     11 C         -30.2416   -2.0671   29.9367 C.2     1  UNL1        0.3449
     12 O         -27.9996    0.7922   26.6710 O.3     1  UNL1       -0.4754
     13 C         -30.1528   -3.4930   30.3555 C.2     1  UNL1        0.4419
     14 O         -30.7329   -4.3612   29.5577 O.co2   1  UNL1       -0.2354
     15 O         -29.4302   -3.9246   31.3090 O.co2   1  UNL1       -0.2354
     16 C         -27.8992    0.6059   25.3291 C.3     1  UNL1        0.2100
     17 O         -31.0242   -1.8369   29.0657 O.2     1  UNL1       -0.2611
     18 C         -28.9876    1.2332   24.6588 C.3     1  UNL1        0.0733
     19 C         -29.3497    2.4523   25.1583 C.2     1  UNL1       -0.0223
     20 C         -28.7514    3.1813   25.8564 C.2     1  UNL1       -0.0045
     21 C         -29.1894    4.5596   26.2744 C.2     1  UNL1       -0.0003
     22 C         -28.4462    5.4477   27.0799 C.2     1  UNL1       -0.0000
     23 C         -27.2041    4.9602   27.5470 C.ar    1  UNL1       -0.0000
     24 C         -26.5146    5.7582   28.4991 C.ar    1  UNL1       -0.0000
     25 C         -25.5282    5.1155   29.3546 C.ar    1  UNL1        0.0000
     26 C         -25.5889    3.7259   29.3471 C.ar    1  UNL1        0.0000
     27 C         -26.7466    3.0640   28.8954 C.ar    1  UNL1        0.0000
     28 C         -27.5535    3.8497   27.9552 C.ar    1  UNL1       -0.0000
@<TRIPOS>BOND
     1     1     8    1
     2     8     9    1
     3     5    10    1
     4     9    11   am
     5     3    12    1
     6    11    13    1
     7    13    14   ar
     8    13    15   ar
     9    12    16    1
    10    11    17    2
    11    16    18    1
    12    18    19    1
    13    19    20    2
    14    20    21    1
    15    21    22    2
    16    22    23    1
    17     1     2    1
    18     2     3   ar
    19     3     4   ar
    20     4     5   ar
    21     5     6   ar
    22     6     7   ar
    23     7     2   ar
    24    23    24   ar
    25    24    25   ar
    26    25    26   ar
    27    26    27   ar
    28    27    28   ar
    29    28    23   ar
