@<TRIPOS>MOLECULE
No_4323-gen_results/8p0m/2024-11-26-14-13-15/
 12 12 0 0 0
SMALL
GASTEIGER

@<TRIPOS>ATOM
      1 O         -28.1229   -1.3353   28.4874 O.2     1  UNL1       -0.2733
      2 C         -27.0637   -0.8242   28.8687 C.2     1  UNL1        0.2441
      3 N         -26.8938   -0.2656   29.6815 N.am    1  UNL1       -0.2034
      4 C         -25.7432   -1.2103   28.0363 C.3     1  UNL1        0.1215
      5 C         -24.4803   -0.7282   28.5465 C.3     1  UNL1        0.1869
      6 C         -25.7061    0.3704   30.3099 C.3     1  UNL1        0.1436
      7 C         -24.4908    0.1104   29.6305 C.3     1  UNL1        0.2081
      8 C         -23.2544    0.6473   30.1139 C.2     1  UNL1        0.3818
      9 O         -23.2529    1.4683   30.9575 O.co2   1  UNL1       -0.2442
     10 O         -22.0761    0.3563   29.5511 O.co2   1  UNL1       -0.2442
     11 CL        -24.4448    1.0820   29.3605 Cl      1  UNL1       -0.1002
     12 O         -23.9895   -2.1165   29.0021 O.3     1  UNL1       -0.2207
@<TRIPOS>BOND
     1     1     2    2
     2     2     3   am
     3     2     4    1
     4     4     5    1
     5     5     7    1
     6     6     7    1
     7     7     8    1
     8     8     9   ar
     9     8    10   ar
    10     7    11    1
    11     5    12    1
    12     3     6    1
