@<TRIPOS>MOLECULE
No_4324-gen_results/8p0m/2024-11-26-14-13-15/
 35 38 0 0 0
SMALL
GASTEIGER

@<TRIPOS>ATOM
      1 C         -28.0162   -0.8135   28.8779 C.ar    1  UNL1        0.0376
      2 C         -27.0636   -0.1189   28.6079 C.ar    1  UNL1        0.0031
      3 C         -25.7647   -0.3897   29.0360 C.ar    1  UNL1        0.0002
      4 C         -25.5296   -1.5302   29.9014 C.ar    1  UNL1        0.0031
      5 C         -26.6888   -2.2893   30.1810 C.ar    1  UNL1        0.0376
      6 C         -27.8727   -1.9508   29.7373 C.ar    1  UNL1        0.1490
      7 O         -28.9304   -2.7298   30.1154 O.3     1  UNL1       -0.4165
      8 C         -24.5394    0.4211   28.7421 C.ar    1  UNL1        0.0008
      9 C         -24.5259    1.2743   27.7265 C.ar    1  UNL1        0.0114
     10 C         -23.3174    1.9856   27.4033 C.ar    1  UNL1        0.0577
     11 C         -22.1311    1.7374   28.0503 C.ar    1  UNL1        0.0114
     12 C         -23.3831    0.3148   29.5939 C.ar    1  UNL1        0.0001
     13 C         -22.1474    0.9218   29.1533 C.ar    1  UNL1        0.0009
     14 C         -28.7820   -3.9943   30.6401 C.2     1  UNL1        0.4230
     15 C         -29.8382   -4.2789   31.6031 C.2     1  UNL1        0.4231
     16 O         -29.7646   -5.4163   32.0994 O.2     1  UNL1       -0.2371
     17 O         -30.7137   -3.5090   31.8399 O.3     1  UNL1       -0.4131
     18 CL        -23.3684    3.0041   25.9893 Cl      1  UNL1       -0.0822
     19 O         -28.0001   -4.7663   30.1619 O.2     1  UNL1       -0.2371
     20 C         -30.9374   -2.5340   31.9156 C.ar    1  UNL1        0.1907
     21 C         -31.9048   -1.9385   32.8725 C.ar    1  UNL1        0.0412
     22 C         -32.0846   -0.5388   32.9210 C.ar    1  UNL1        0.0065
     23 C         -31.3535    0.3108   32.0496 C.ar    1  UNL1        0.0410
     24 C         -30.4472   -0.2255   31.1501 C.ar    1  UNL1        0.1870
     25 C         -30.2601   -1.4740   31.1645 C.ar    1  UNL1        0.2640
     26 O         -30.6897   -1.8536   29.8472 O.3     1  UNL1       -0.2800
     27 O         -29.8204    0.7274   30.4490 O.3     1  UNL1       -0.4501
     28 C         -29.1347    1.6767   31.1537 C.ar    1  UNL1        0.1454
     29 C         -28.2469    1.3789   31.9831 C.ar    1  UNL1        0.0375
     30 C         -27.3245    2.3303   32.4901 C.ar    1  UNL1        0.0031
     31 C         -27.3319    3.6113   31.9860 C.ar    1  UNL1        0.0002
     32 C         -28.2683    3.9608   31.0021 C.ar    1  UNL1        0.0030
     33 C         -29.1742    3.0032   30.5146 C.ar    1  UNL1        0.0346
     34 C         -30.0921    3.3787   29.5178 C.2     1  UNL1        0.0030
     35 C         -31.2317    3.8748   29.8523 C.2     1  UNL1        0.0001
@<TRIPOS>BOND
     1     6     7    1
     2     3     8    1
     3     7    14    1
     4    14    15    1
     5    15    16    2
     6    15    17    1
     7    10    18    1
     8    14    19    2
     9    17    20    1
    10    25    26    1
    11    24    27    1
    12    27    28    1
    13    33    34    1
    14    34    35    2
    15    28    29   ar
    16    29    30   ar
    17    30    31   ar
    18    31    32   ar
    19    32    33   ar
    20    33    28   ar
    21     1     2   ar
    22     2     3   ar
    23     3     4   ar
    24     4     5   ar
    25     5     6   ar
    26     6     1   ar
    27    20    21   ar
    28    21    22   ar
    29    22    23   ar
    30    23    24   ar
    31    24    25   ar
    32    25    20   ar
    33     8     9   ar
    34     9    10   ar
    35    10    11   ar
    36    11    13   ar
    37    13    12   ar
    38    12     8   ar
