@<TRIPOS>MOLECULE
No_4326-gen_results/8p0m/2024-11-26-14-13-15/
 15 15 0 0 0
SMALL
GASTEIGER

@<TRIPOS>ATOM
      1 CL        -28.1493   -0.8198   28.9079 Cl      1  UNL1       -0.0799
      2 C         -26.9116   -0.0797   28.9452 C.ar    1  UNL1        0.0853
      3 C         -25.9665   -0.2123   29.6235 C.ar    1  UNL1        0.0215
      4 C         -24.7620    0.6059   29.6315 C.ar    1  UNL1        0.0955
      5 C         -23.5363    0.5029   30.3901 C.2     1  UNL1        0.3890
      6 C         -26.4369    0.7538   27.7144 C.ar    1  UNL1        0.1519
      7 C         -25.4227    1.4752   27.4932 C.ar    1  UNL1        0.0468
      8 C         -24.4234    1.4375   28.4648 C.ar    1  UNL1        0.0743
      9 N         -23.2586    2.0516   28.3604 N.pl3   1  UNL1       -0.2325
     10 O         -22.8387   -0.2256   30.4550 O.co2   1  UNL1       -0.2405
     11 O         -23.5932    1.5281   31.4448 O.co2   1  UNL1       -0.2405
     12 C         -22.5924    2.2041   27.0250 C.3     1  UNL1        0.1383
     13 F         -27.5104    0.7599   26.7038 F       1  UNL1       -0.2032
     14 C         -23.3000    2.6218   26.0292 C.2     1  UNL1       -0.0030
     15 C         -24.6325    2.1467   25.6401 C.2     1  UNL1       -0.0031
@<TRIPOS>BOND
     1     1     2    1
     2     4     5    1
     3     8     9    1
     4     5    10   ar
     5     5    11   ar
     6     9    12    1
     7     6    13    1
     8    12    14    1
     9    14    15    2
    10     2     3   ar
    11     3     4   ar
    12     4     8   ar
    13     8     7   ar
    14     7     6   ar
    15     6     2   ar
