@<TRIPOS>MOLECULE
No_4328-gen_results/8p0m/2024-11-26-14-13-15/
 13 13 0 0 0
SMALL
GASTEIGER

@<TRIPOS>ATOM
      1 C         -28.0162   -0.8135   28.8779 C.ar    1  UNL1       -0.0039
      2 C         -28.4690   -0.7850   29.8287 C.ar    1  UNL1       -0.0003
      3 C         -28.1960    0.3478   28.0550 C.ar    1  UNL1       -0.0178
      4 C         -29.0191    1.3501   28.3782 C.ar    1  UNL1       -0.0039
      5 C         -29.4107    0.1803   30.3782 C.ar    1  UNL1       -0.0000
      6 C         -29.6059    1.2495   29.6193 C.ar    1  UNL1       -0.0003
      7 C         -27.3479    0.2333   26.8118 C.3     1  UNL1        0.0520
      8 C         -25.8997    0.2741   26.9020 C.2     1  UNL1       -0.0256
      9 C         -25.2396   -0.1102   28.0242 C.2     1  UNL1       -0.0257
     10 C         -23.8346   -0.0399   28.0875 C.3     1  UNL1        0.0513
     11 C         -23.1185   -0.5441   29.2150 C.2     1  UNL1       -0.0260
     12 C         -23.7677   -1.4060   30.0703 C.2     1  UNL1       -0.0300
     13 C         -25.1327   -1.6155   29.9763 C.3     1  UNL1        0.0304
@<TRIPOS>BOND
     1     3     7    1
     2     7     8    1
     3     8     9    2
     4     9    10    1
     5    10    11    1
     6    11    12    2
     7    12    13    1
     8     1     2   ar
     9     2     5   ar
    10     5     6   ar
    11     6     4   ar
    12     4     3   ar
    13     3     1   ar
