@<TRIPOS>MOLECULE
No_4329-gen_results/8p0m/2024-11-26-14-13-15/
 16 17 0 0 0
SMALL
GASTEIGER

@<TRIPOS>ATOM
      1 N         -28.0544   -1.0498   28.7246 N.pl3   1  UNL1       -0.2125
      2 C         -26.9659   -0.4722   28.7709 C.ar    1  UNL1        0.0705
      3 C         -26.5486    0.3876   27.8310 C.ar    1  UNL1        0.0166
      4 C         -25.2662    1.0684   27.8062 C.ar    1  UNL1        0.0060
      5 C         -24.3565    0.7761   28.8458 C.ar    1  UNL1        0.0567
      6 C         -24.7750   -0.1742   29.8298 C.ar    1  UNL1        0.0060
      7 C         -25.9839   -0.8112   29.8049 C.ar    1  UNL1        0.0166
      8 C         -29.1813   -0.2653   28.9319 C.ar    1  UNL1        0.0705
      9 C         -30.2322   -0.9373   29.5979 C.ar    1  UNL1        0.0165
     10 C         -31.4728   -0.9524   29.0468 C.ar    1  UNL1        0.0013
     11 C         -31.7419   -0.0459   27.9669 C.ar    1  UNL1        0.0001
     12 C         -30.6831    0.6308   27.3614 C.ar    1  UNL1        0.0013
     13 C         -29.4689    0.4728   27.7828 C.ar    1  UNL1        0.0165
     14 C         -23.0541    1.3691   28.8530 C.2     1  UNL1        0.2842
     15 N         -22.2203    1.1835   29.7111 N.am    1  UNL1       -0.0837
     16 O         -22.6932    2.1081   27.8080 O.2     1  UNL1       -0.2667
@<TRIPOS>BOND
     1     1     2    1
     2     1     8    1
     3     5    14    1
     4    14    15   am
     5    14    16    2
     6     2     3   ar
     7     3     4   ar
     8     4     5   ar
     9     5     6   ar
    10     6     7   ar
    11     7     2   ar
    12     8     9   ar
    13     9    10   ar
    14    10    11   ar
    15    11    12   ar
    16    12    13   ar
    17    13     8   ar
