@<TRIPOS>MOLECULE
No_433-gen_results/8p0m/2024-11-26-14-13-15/
 26 27 0 0 0
SMALL
GASTEIGER

@<TRIPOS>ATOM
      1 C         -28.0162   -0.8135   28.8779 C.ar    1  UNL1        0.0369
      2 C         -28.4690   -0.7850   29.8287 C.ar    1  UNL1        0.1392
      3 C         -27.0871    0.2903   28.6377 C.ar    1  UNL1        0.0032
      4 C         -26.2516    0.4114   27.4223 C.ar    1  UNL1        0.0063
      5 C         -28.3141   -0.1267   30.7102 C.ar    1  UNL1        0.0369
      6 C         -27.4825    1.0076   30.8097 C.ar    1  UNL1        0.0031
      7 C         -26.7770    1.1718   29.6871 C.ar    1  UNL1        0.0002
      8 C         -24.9302    0.3522   27.6131 C.ar    1  UNL1        0.0002
      9 C         -24.0765    0.4795   26.4644 C.ar    1  UNL1        0.0000
     10 C         -24.6819    0.8030   25.2411 C.ar    1  UNL1        0.0002
     11 C         -26.6809    0.6288   26.1486 C.ar    1  UNL1        0.0756
     12 C         -25.9889    0.7294   25.0835 C.ar    1  UNL1        0.0064
     13 C         -28.2177    0.5992   25.9352 C.2     1  UNL1        0.3412
     14 O         -28.7467    0.0755   25.0110 O.2     1  UNL1       -0.2449
     15 O         -29.0267    1.1767   26.8956 O.3     1  UNL1       -0.4454
     16 C         -30.3433    1.3163   26.6484 C.3     1  UNL1        0.2091
     17 C         -31.1079    1.9172   27.5208 C.3     1  UNL1        0.0562
     18 C         -30.5234    2.7250   28.4744 C.3     1  UNL1        0.1072
     19 C         -30.0585    3.9703   28.1508 C.3     1  UNL1        0.3979
     20 F         -29.0365    4.3755   28.7628 F       1  UNL1       -0.1700
     21 F         -30.0161    4.3037   26.9026 F       1  UNL1       -0.1700
     22 F         -31.0678    4.8913   28.6022 F       1  UNL1       -0.1700
     23 O         -29.4660   -1.9058   30.0046 O.3     1  UNL1       -0.4670
     24 C         -30.7994   -1.6963   30.0120 C.3     1  UNL1        0.2768
     25 C         -31.4586   -2.5710   30.8429 C.2     1  UNL1        0.2549
     26 O         -31.0311   -3.5166   31.2872 O.2     1  UNL1       -0.2842
@<TRIPOS>BOND
     1     3     4    1
     2    11    13    1
     3    13    14    2
     4    13    15    1
     5    15    16    1
     6    16    17    1
     7    17    18    1
     8    18    19    1
     9    19    20    1
    10    19    21    1
    11    19    22    1
    12     2    23    1
    13    23    24    1
    14    24    25    1
    15    25    26    2
    16     4     8   ar
    17     8     9   ar
    18     9    10   ar
    19    10    12   ar
    20    12    11   ar
    21    11     4   ar
    22     1     2   ar
    23     2     5   ar
    24     5     6   ar
    25     6     7   ar
    26     7     3   ar
    27     3     1   ar
