@<TRIPOS>MOLECULE
No_4330-gen_results/8p0m/2024-11-26-14-13-15/
 11 11 0 0 0
SMALL
GASTEIGER

@<TRIPOS>ATOM
      1 C         -28.0162   -0.8135   28.8779 C.ar    1  UNL1        0.0141
      2 C         -28.4690   -0.7850   29.8287 C.ar    1  UNL1        0.0297
      3 C         -26.5042   -0.7777   28.8766 C.ar    1  UNL1        0.0578
      4 C         -25.8103   -0.8531   30.1028 C.ar    1  UNL1        0.0114
      5 C         -27.9906   -0.8916   31.2257 C.ar    1  UNL1        0.0028
      6 C         -26.6042   -0.8676   31.2652 C.ar    1  UNL1        0.0010
      7 P         -30.3220   -0.6603   29.6764 P.3     1  UNL1        0.1395
      8 O         -30.9124   -1.7983   29.9450 O.3     1  UNL1       -0.3542
      9 O         -30.5155   -0.1470   28.2702 O.2     1  UNL1       -0.4557
     10 O         -30.6991    0.4667   30.6570 O.3     1  UNL1       -0.3542
     11 CL        -25.4956   -0.7201   27.4995 Cl      1  UNL1       -0.0822
@<TRIPOS>BOND
     1     2     7    1
     2     7     8    1
     3     7     9    2
     4     7    10    1
     5     3    11    1
     6     1     2   ar
     7     2     5   ar
     8     5     6   ar
     9     6     4   ar
    10     4     3   ar
    11     3     1   ar
