@<TRIPOS>MOLECULE
No_4331-gen_results/8p0m/2024-11-26-14-13-15/
 35 38 0 0 0
SMALL
GASTEIGER

@<TRIPOS>ATOM
      1 C         -28.0162   -0.8135   28.8779 C.ar    1  UNL1        0.0046
      2 C         -27.0636   -0.1189   28.6079 C.ar    1  UNL1        0.0001
      3 C         -25.7647   -0.3897   29.0360 C.ar    1  UNL1        0.0000
      4 C         -25.5296   -1.5302   29.9014 C.ar    1  UNL1        0.0001
      5 C         -26.6888   -2.2893   30.1810 C.ar    1  UNL1        0.0046
      6 C         -27.8727   -1.9508   29.7373 C.ar    1  UNL1        0.0551
      7 C         -29.0016   -2.8142   30.1793 C.2     1  UNL1        0.2651
      8 N         -30.1410   -2.4192   30.1450 N.am    1  UNL1       -0.1968
      9 O         -28.7175   -4.0960   30.3007 O.2     1  UNL1       -0.2684
     10 C         -31.3070   -3.2860   30.4452 C.3     1  UNL1        0.1418
     11 C         -24.5378    0.4081   28.6854 C.ar    1  UNL1        0.0000
     12 C         -24.5255    1.2464   27.6335 C.ar    1  UNL1        0.0000
     13 C         -23.3059    1.9353   27.3140 C.ar    1  UNL1        0.0000
     14 C         -22.1268    1.7276   27.9707 C.ar    1  UNL1        0.0000
     15 C         -23.3066    0.1495   29.3611 C.ar    1  UNL1        0.0000
     16 C         -22.1083    0.8276   29.0118 C.ar    1  UNL1        0.0000
     17 C         -32.3775   -2.6403   30.8568 C.ar    1  UNL1       -0.0006
     18 C         -32.8067   -1.7257   30.0889 C.ar    1  UNL1       -0.0026
     19 C         -33.8675   -0.8384   30.4913 C.ar    1  UNL1       -0.0003
     20 C         -34.5568   -1.1777   31.6765 C.ar    1  UNL1       -0.0000
     21 C         -34.1565   -2.1958   32.4417 C.ar    1  UNL1       -0.0003
     22 C         -32.9854   -2.9572   32.0805 C.ar    1  UNL1       -0.0026
     23 C         -35.7470   -0.3570   32.0984 C.ar    1  UNL1        0.0001
     24 C         -36.7868   -0.8249   32.3045 C.ar    1  UNL1        0.0000
     25 C         -37.9649   -0.0277   32.7041 C.ar    1  UNL1        0.0001
     26 C         -37.7881    1.3722   32.7365 C.ar    1  UNL1        0.0046
     27 C         -36.5687    1.8988   32.4319 C.ar    1  UNL1        0.0554
     28 C         -35.4699    1.0979   32.0931 C.ar    1  UNL1        0.0046
     29 C         -36.3358    3.3604   32.4747 C.2     1  UNL1        0.2690
     30 N         -36.8460    4.1198   33.2539 N.am    1  UNL1       -0.1741
     31 O         -35.4724    3.8202   31.6116 O.2     1  UNL1       -0.2680
     32 C         -36.6771    5.5461   33.3118 C.2     1  UNL1        0.0889
     33 C         -37.0072    6.2953   34.0821 C.2     1  UNL1        0.0179
     34 C         -36.8443    7.7552   33.9830 C.2     1  UNL1        0.0014
     35 C         -36.1882    8.2261   32.8454 C.2     1  UNL1        0.0000
@<TRIPOS>BOND
     1     6     7    1
     2     7     8   am
     3     7     9    2
     4     8    10    1
     5     3    11    1
     6    10    17    1
     7    20    23    1
     8    27    29    1
     9    29    30   am
    10    29    31    2
    11    30    32    1
    12    32    33    2
    13    33    34    1
    14    34    35    2
    15    17    18   ar
    16    18    19   ar
    17    19    20   ar
    18    20    21   ar
    19    21    22   ar
    20    22    17   ar
    21     1     2   ar
    22     2     3   ar
    23     3     4   ar
    24     4     5   ar
    25     5     6   ar
    26     6     1   ar
    27    23    24   ar
    28    24    25   ar
    29    25    26   ar
    30    26    27   ar
    31    27    28   ar
    32    28    23   ar
    33    11    12   ar
    34    12    13   ar
    35    13    14   ar
    36    14    16   ar
    37    16    15   ar
    38    15    11   ar
