@<TRIPOS>MOLECULE
No_4333-gen_results/8p0m/2024-11-26-14-13-15/
 14 15 0 0 0
SMALL
GASTEIGER

@<TRIPOS>ATOM
      1 C         -28.0162   -0.8135   28.8779 C.ar    1  UNL1        0.0813
      2 C         -27.0636   -0.1189   28.6079 C.ar    1  UNL1        0.0176
      3 C         -26.9716    0.7139   27.5060 C.ar    1  UNL1        0.0012
      4 C         -25.8206    1.4910   27.1160 C.ar    1  UNL1       -0.0042
      5 C         -24.6562    1.4242   27.9180 C.ar    1  UNL1       -0.0222
      6 C         -23.4598    2.1165   27.6160 C.3     1  UNL1        0.0264
      7 C         -23.5068    2.7076   26.2939 C.3     1  UNL1        0.0050
      8 C         -25.7733   -0.1953   29.4398 C.ar    1  UNL1        0.0012
      9 C         -24.6392    0.5412   29.1339 C.ar    1  UNL1       -0.0042
     10 N         -27.9416   -1.4686   30.1003 N.ar    1  UNL1       -0.2438
     11 C         -29.0623   -2.2508   30.5383 C.ar    1  UNL1        0.0988
     12 C         -30.2253   -1.9319   30.0718 C.ar    1  UNL1        0.0207
     13 C         -30.3465   -0.9659   29.0791 C.ar    1  UNL1        0.0031
     14 C         -29.2681   -0.3483   28.5703 C.ar    1  UNL1        0.0191
@<TRIPOS>BOND
     1     6     7    1
     2     6     5    1
     3     1     2    1
     4     1    10   ar
     5    10    11   ar
     6    11    12   ar
     7    12    13   ar
     8    13    14   ar
     9    14     1   ar
    10     2     3   ar
    11     3     4   ar
    12     4     5   ar
    13     5     9   ar
    14     9     8   ar
    15     8     2   ar
