@<TRIPOS>MOLECULE
No_4334-gen_results/8p0m/2024-11-26-14-13-15/
 18 18 0 0 0
SMALL
GASTEIGER

@<TRIPOS>ATOM
      1 C         -28.0162   -0.8135   28.8779 C.ar    1  UNL1        0.0111
      2 C         -28.4690   -0.7850   29.8287 C.ar    1  UNL1        0.0008
      3 C         -26.5455   -0.8762   28.8500 C.ar    1  UNL1        0.0540
      4 C         -25.8041   -1.0324   30.0571 C.ar    1  UNL1       -0.0065
      5 C         -24.3697   -1.0998   30.0718 C.3     1  UNL1        0.0639
      6 C         -27.9902   -1.0051   31.2092 C.ar    1  UNL1       -0.0003
      7 C         -26.5616   -1.1368   31.2600 C.ar    1  UNL1       -0.0031
      8 C         -23.7274    0.1713   30.0259 C.2     1  UNL1        0.0507
      9 C         -24.0505    1.2537   30.5567 C.2     1  UNL1        0.0084
     10 C         -25.2808    1.3877   31.2587 C.2     1  UNL1        0.0312
     11 C         -25.5434    2.7501   31.7924 C.2     1  UNL1        0.1836
     12 C         -24.8429    3.7717   31.3276 C.3     1  UNL1        0.3677
     13 F         -25.2407    5.0209   31.8922 F       1  UNL1       -0.1907
     14 F         -24.5832    3.9383   30.3083 F       1  UNL1       -0.1907
     15 CL        -25.5990   -0.6889   27.4397 Cl      1  UNL1       -0.0826
     16 C         -22.3929    0.0585   29.2291 C.1     1  UNL1        0.0964
     17 N         -21.7119    0.1260   28.3212 N.1     1  UNL1       -0.1911
     18 F         -25.5425    2.6498   33.2415 F       1  UNL1       -0.2031
@<TRIPOS>BOND
     1     4     5    1
     2     5     8    1
     3     8     9    2
     4     9    10    1
     5    10    11    2
     6    11    12    1
     7    12    13    1
     8    12    14    1
     9     3    15    1
    10     8    16    1
    11    16    17    3
    12    11    18    1
    13     1     2   ar
    14     2     6   ar
    15     6     7   ar
    16     7     4   ar
    17     4     3   ar
    18     3     1   ar
