@<TRIPOS>MOLECULE
No_4335-gen_results/8p0m/2024-11-26-14-13-15/
 12 13 0 0 0
SMALL
GASTEIGER

@<TRIPOS>ATOM
      1 C         -28.0162   -0.8135   28.8779 C.3     1  UNL1        0.0513
      2 C         -27.0636   -0.1189   28.6079 C.ar    1  UNL1       -0.0257
      3 C         -25.7647   -0.3897   29.0360 C.ar    1  UNL1       -0.0258
      4 C         -24.5516    0.4058   28.7646 C.ar    1  UNL1       -0.0046
      5 C         -24.6957    1.4480   27.7988 C.ar    1  UNL1       -0.0007
      6 C         -26.0010    1.6784   27.2965 C.ar    1  UNL1       -0.0046
      7 C         -27.0736    0.9682   27.6500 C.ar    1  UNL1       -0.0258
      8 C         -29.2300   -0.0643   29.3001 C.2     1  UNL1       -0.0260
      9 C         -29.8754    0.4865   28.2428 C.2     1  UNL1       -0.0300
     10 C         -29.4141    1.5136   27.3661 C.3     1  UNL1        0.0304
     11 C         -28.2757    1.6873   27.1516 C.3     1  UNL1        0.0307
     12 C         -25.3734   -1.5892   29.8640 C.3     1  UNL1        0.0307
@<TRIPOS>BOND
     1     1     8    1
     2     8     9    2
     3     9    10    1
     4     7    11    1
     5    10    11    1
     6     3    12    1
     7     1     2    1
     8     2     3   ar
     9     3     4   ar
    10     4     5   ar
    11     5     6   ar
    12     6     7   ar
    13     7     2   ar
