@<TRIPOS>MOLECULE
No_4336-gen_results/8p0m/2024-11-26-14-13-15/
 11 11 0 0 0
SMALL
GASTEIGER

@<TRIPOS>ATOM
      1 O         -28.1229   -1.3353   28.4874 O.2     1  UNL1       -0.2587
      2 C         -27.0637   -0.8242   28.8687 C.2     1  UNL1        0.3150
      3 C         -25.9464   -1.0396   28.8492 C.3     1  UNL1        0.1272
      4 C         -24.7602   -0.1562   29.1644 C.ar    1  UNL1       -0.0115
      5 C         -23.3890   -0.4551   29.0162 C.ar    1  UNL1        0.0029
      6 F         -27.4622    0.0876   29.9312 F       1  UNL1       -0.1632
      7 C         -22.4057    0.5160   29.0946 C.ar    1  UNL1        0.0343
      8 C         -22.7766    1.8304   29.1119 C.ar    1  UNL1        0.0067
      9 C         -24.1083    2.2279   29.1109 C.ar    1  UNL1        0.0002
     10 C         -25.0961    1.2468   29.0834 C.ar    1  UNL1       -0.0037
     11 BR        -20.6204   -0.0478   29.0325 Br      1  UNL1       -0.0490
@<TRIPOS>BOND
     1     1     2    2
     2     2     3    1
     3     3     4    1
     4     2     6    1
     5     7    11    1
     6     4     5   ar
     7     5     7   ar
     8     7     8   ar
     9     8     9   ar
    10     9    10   ar
    11    10     4   ar
