@<TRIPOS>MOLECULE
No_4337-gen_results/8p0m/2024-11-26-14-13-15/
 27 30 0 0 0
SMALL
GASTEIGER

@<TRIPOS>ATOM
      1 C         -28.0162   -0.8135   28.8779 C.ar    1  UNL1       -0.0042
      2 C         -28.4690   -0.7850   29.8287 C.ar    1  UNL1       -0.0003
      3 C         -28.1960    0.3478   28.0550 C.ar    1  UNL1       -0.0213
      4 C         -29.0191    1.3501   28.3782 C.ar    1  UNL1       -0.0179
      5 C         -29.6249    1.2683   29.6012 C.ar    1  UNL1       -0.0041
      6 C         -29.3791    0.1469   30.3923 C.ar    1  UNL1       -0.0003
      7 C         -27.4551    0.3822   26.7102 C.3     1  UNL1        0.0523
      8 C         -26.0156    0.4242   26.8243 C.ar    1  UNL1       -0.0178
      9 C         -25.3311   -0.0592   27.8790 C.ar    1  UNL1       -0.0039
     10 C         -23.9173    0.0521   27.9533 C.ar    1  UNL1       -0.0003
     11 C         -23.1763   -0.4528   29.0959 C.ar    1  UNL1       -0.0000
     12 C         -21.8499   -0.0772   29.2700 C.ar    1  UNL1       -0.0000
     13 C         -21.2504    0.7996   28.3340 C.ar    1  UNL1       -0.0000
     14 C         -22.0346    1.5098   27.3907 C.ar    1  UNL1       -0.0000
     15 C         -23.3131    1.1768   27.2749 C.ar    1  UNL1       -0.0000
     16 C         -25.3552    1.2367   25.8412 C.ar    1  UNL1       -0.0039
     17 C         -23.9709    1.6411   25.9896 C.ar    1  UNL1       -0.0003
     18 C         -29.2504    2.4695   27.5276 C.3     1  UNL1        0.0953
     19 C         -28.4079    3.5246   27.5946 C.ar    1  UNL1       -0.0143
     20 C         -30.2730    2.3673   26.5612 C.3     1  UNL1        0.2586
     21 C         -27.5297    3.8166   28.4891 C.ar    1  UNL1       -0.0038
     22 C         -26.5167    4.7938   28.3736 C.ar    1  UNL1       -0.0003
     23 C         -26.5264    5.5594   27.2366 C.ar    1  UNL1       -0.0000
     24 C         -29.0270    4.8114   27.1498 C.ar    1  UNL1       -0.0038
     25 C         -27.9370    5.9038   26.8827 C.ar    1  UNL1       -0.0003
     26 F         -30.7271    1.2869   26.4447 F       1  UNL1       -0.2156
     27 N         -29.9477    2.9604   25.3118 N.3     1  UNL1       -0.0935
@<TRIPOS>BOND
     1     3     7    1
     2     7     8    1
     3     4    18    1
     4    18    19    1
     5    18    20    1
     6    20    26    1
     7    20    27    1
     8     8     9   ar
     9     9    10   ar
    10    15    17   ar
    11    17    16   ar
    12    16     8   ar
    13     1     2   ar
    14     2     6   ar
    15     6     5   ar
    16     5     4   ar
    17     4     3   ar
    18     3     1   ar
    19    10    11   ar
    20    11    12   ar
    21    12    13   ar
    22    13    14   ar
    23    14    15   ar
    24    15    10   ar
    25    19    21   ar
    26    21    22   ar
    27    22    23   ar
    28    23    25   ar
    29    25    24   ar
    30    24    19   ar
