@<TRIPOS>MOLECULE
No_4338-gen_results/8p0m/2024-11-26-14-13-15/
 13 15 0 0 0
SMALL
GASTEIGER

@<TRIPOS>ATOM
      1 C         -28.0162   -0.8135   28.8779 C.ar    1  UNL1        0.0153
      2 C         -28.4690   -0.7850   29.8287 C.ar    1  UNL1        0.1480
      3 C         -28.1816    0.4277   28.1134 C.ar    1  UNL1        0.0003
      4 C         -27.4498    0.6435   26.8500 C.2     1  UNL1       -0.0047
      5 C         -26.1815    0.0357   26.7145 C.2     1  UNL1       -0.0255
      6 C         -25.7800   -0.9326   27.6938 C.3     1  UNL1        0.0349
      7 C         -26.5568   -1.2134   28.7413 C.3     1  UNL1        0.0527
      8 N         -29.5918   -0.3147   30.2054 N.ar    1  UNL1       -0.2277
      9 N         -27.9444   -1.8153   30.7823 N.pl3   1  UNL1       -0.1934
     10 C         -26.0831   -2.1691   29.6889 C.2     1  UNL1       -0.0038
     11 C         -26.8728   -2.4939   30.7037 C.2     1  UNL1        0.0831
     12 C         -30.1827    0.5613   29.3763 C.ar    1  UNL1        0.1004
     13 C         -29.4474    1.0057   28.1826 C.ar    1  UNL1        0.0205
@<TRIPOS>BOND
     1     1     2   ar
     2     1     3   ar
     3     3     4    1
     4     4     5    2
     5     5     6    1
     6     1     7    1
     7     6     7    1
     8     2     8   ar
     9     2     9    1
    10     7    10    1
    11     9    11    1
    12    10    11    2
    13     8    12   ar
    14     3    13   ar
    15    12    13   ar
