@<TRIPOS>MOLECULE
No_4339-gen_results/8p0m/2024-11-26-14-13-15/
 19 19 0 0 0
SMALL
GASTEIGER

@<TRIPOS>ATOM
      1 C         -28.0162   -0.8135   28.8779 C.ar    1  UNL1        0.0796
      2 C         -27.0636   -0.1189   28.6079 C.ar    1  UNL1        0.0027
      3 C         -27.0010    0.6913   27.4910 C.ar    1  UNL1       -0.0161
      4 C         -28.1420    0.8282   26.7994 C.ar    1  UNL1        0.0007
      5 C         -29.2898   -0.4871   28.3661 C.ar    1  UNL1        0.0111
      6 C         -29.2849    0.2608   27.2623 C.ar    1  UNL1        0.0549
      7 C         -27.9393   -1.6862   30.1403 C.2     1  UNL1        0.3877
      8 O         -28.6760   -1.9168   30.8763 O.co2   1  UNL1       -0.2406
      9 O         -26.7752   -2.4775   30.1211 O.co2   1  UNL1       -0.2406
     10 C         -30.5366    0.4744   26.4864 C.2     1  UNL1        0.2648
     11 O         -31.4885    0.0314   26.7235 O.2     1  UNL1       -0.2684
     12 N         -30.4874    1.4911   25.5469 N.am    1  UNL1       -0.1998
     13 C         -31.6698    1.8366   24.7265 C.3     1  UNL1        0.1388
     14 C         -25.8783    1.4606   26.9398 C.3     1  UNL1        0.0720
     15 C         -25.1031    2.2194   27.9333 C.2     1  UNL1        0.0923
     16 C         -23.8743    1.8384   28.4187 C.3     1  UNL1        0.1853
     17 O         -23.7628    0.6825   28.4792 O.3     1  UNL1       -0.3450
     18 C         -22.9943    0.1641   29.7100 C.3     1  UNL1        0.1746
     19 N         -25.7336    3.3380   28.5237 N.2     1  UNL1       -0.1544
@<TRIPOS>BOND
     1     1     7    1
     2     7     8   ar
     3     7     9   ar
     4     6    10    1
     5    10    11    2
     6    10    12   am
     7    12    13    1
     8     3    14    1
     9    14    15    1
    10    15    16    1
    11    16    17    1
    12    17    18    1
    13    15    19    2
    14     1     2   ar
    15     2     3   ar
    16     3     4   ar
    17     4     6   ar
    18     6     5   ar
    19     5     1   ar
