@<TRIPOS>MOLECULE
No_434-gen_results/8p0m/2024-11-26-14-13-15/
 21 23 0 0 0
SMALL
GASTEIGER

@<TRIPOS>ATOM
      1 C         -28.0162   -0.8135   28.8779 C.ar    1  UNL1        0.0046
      2 C         -28.4690   -0.7850   29.8287 C.ar    1  UNL1        0.0554
      3 C         -26.5455   -0.8762   28.8500 C.ar    1  UNL1        0.0016
      4 C         -25.8041   -1.0324   30.0571 C.ar    1  UNL1        0.0178
      5 C         -27.9437   -0.9869   31.2075 C.ar    1  UNL1        0.0046
      6 C         -24.4008   -1.0969   30.0965 C.ar    1  UNL1        0.0846
      7 C         -26.5612   -1.0746   31.2270 C.ar    1  UNL1        0.0016
      8 N         -23.6885   -1.1224   29.1182 N.ar    1  UNL1       -0.2240
      9 C         -22.2950   -1.0142   29.2555 C.ar    1  UNL1        0.1989
     10 C         -23.7299   -1.1115   31.3789 C.ar    1  UNL1        0.0398
     11 C         -22.3304   -0.9695   31.5221 C.ar    1  UNL1        0.1022
     12 N         -21.6672   -0.9198   30.3361 N.ar    1  UNL1       -0.2224
     13 C         -30.0814   -0.6664   29.8796 C.2     1  UNL1        0.2690
     14 O         -30.8018   -1.4316   30.3401 O.2     1  UNL1       -0.2680
     15 N         -30.4867    0.6223   29.5517 N.am    1  UNL1       -0.1754
     16 C         -29.7133    1.6892   29.1277 C.ar    1  UNL1        0.0737
     17 C         -29.7163    2.3468   28.2911 C.ar    1  UNL1        0.0166
     18 C         -28.7984    3.4858   27.9399 C.ar    1  UNL1        0.0013
     19 C         -27.6999    3.6943   28.7624 C.ar    1  UNL1        0.0001
     20 C         -28.4671    1.9159   30.0123 C.ar    1  UNL1        0.0166
     21 C         -27.6200    2.9530   29.8611 C.ar    1  UNL1        0.0013
@<TRIPOS>BOND
     1     4     6    1
     2     2    13    1
     3    13    14    2
     4    13    15   am
     5    15    16    1
     6     6     8   ar
     7     8     9   ar
     8     9    12   ar
     9    12    11   ar
    10    11    10   ar
    11    10     6   ar
    12    16    17   ar
    13    17    18   ar
    14    18    19   ar
    15    19    21   ar
    16    21    20   ar
    17    20    16   ar
    18     1     2   ar
    19     2     5   ar
    20     5     7   ar
    21     7     4   ar
    22     4     3   ar
    23     3     1   ar
