@<TRIPOS>MOLECULE
No_4341-gen_results/8p0m/2024-11-26-14-13-15/
 24 26 0 0 0
SMALL
GASTEIGER

@<TRIPOS>ATOM
      1 C         -28.0162   -0.8135   28.8779 C.ar    1  UNL1        0.0067
      2 C         -27.0636   -0.1189   28.6079 C.ar    1  UNL1        0.0046
      3 C         -25.7923   -0.4302   29.0761 C.ar    1  UNL1        0.0003
      4 C         -25.5756   -1.5654   29.9363 C.ar    1  UNL1        0.0002
      5 C         -26.7354   -2.3004   30.2173 C.ar    1  UNL1        0.0066
      6 C         -27.9184   -1.9537   29.7629 C.ar    1  UNL1        0.0798
      7 C         -27.1057    1.1023   27.7593 C.ar    1  UNL1        0.0537
      8 C         -26.1219    1.4820   27.0232 C.ar    1  UNL1        0.0091
      9 C         -24.7142    1.1299   27.4889 C.ar    1  UNL1        0.0568
     10 C         -24.5718    0.0966   28.4066 C.ar    1  UNL1        0.0046
     11 C         -23.5476    1.7679   26.9015 C.2     1  UNL1        0.2842
     12 N         -22.4527    1.9481   27.6193 N.am    1  UNL1       -0.0837
     13 O         -23.5340    2.1547   25.7020 O.2     1  UNL1       -0.2667
     14 C         -29.0894   -2.7264   30.2569 C.2     1  UNL1        0.3878
     15 O         -30.1237   -2.3993   30.1464 O.co2   1  UNL1       -0.2406
     16 O         -28.8093   -3.8864   30.8379 O.co2   1  UNL1       -0.2406
     17 C         -28.4822    1.5786   27.3981 C.2     1  UNL1        0.2490
     18 O         -28.9485    1.6450   26.3802 O.2     1  UNL1       -0.2699
     19 N         -29.2094    1.9777   28.5865 N.am    1  UNL1       -0.2761
     20 C         -30.5514    2.5032   28.4628 C.3     1  UNL1        0.0937
     21 C         -31.3087    2.1829   29.4923 C.3     1  UNL1        0.0216
     22 C         -30.7604    1.8776   30.7314 C.3     1  UNL1        0.0035
     23 C         -29.3810    1.5138   30.8452 C.3     1  UNL1        0.0216
     24 C         -28.7047    1.5251   29.7849 C.3     1  UNL1        0.0937
@<TRIPOS>BOND
     1     9    11    1
     2    11    12   am
     3    11    13    2
     4     6    14    1
     5    14    15   ar
     6    14    16   ar
     7     7    17    1
     8    17    18    2
     9    17    19   am
    10    19    20    1
    11    21    22    1
    12    19    24    1
    13    23    24    1
    14    20    21    1
    15    22    23    1
    16     1     2   ar
    17     3     4   ar
    18     4     5   ar
    19     5     6   ar
    20     6     1   ar
    21     2     3   ar
    22     3    10   ar
    23    10     9   ar
    24     9     8   ar
    25     8     7   ar
    26     7     2   ar
