@<TRIPOS>MOLECULE
No_4343-gen_results/8p0m/2024-11-26-14-13-15/
 14 14 0 0 0
SMALL
GASTEIGER

@<TRIPOS>ATOM
      1 C         -28.0162   -0.8135   28.8779 C.2     1  UNL1        0.0607
      2 C         -28.4690   -0.7850   29.8287 C.2     1  UNL1       -0.0097
      3 N         -28.2734    0.1702   27.9725 N.pl3   1  UNL1       -0.2878
      4 C         -27.5323    0.3782   26.8151 C.ar    1  UNL1        0.0515
      5 C         -26.4523    1.2057   26.7860 C.ar    1  UNL1        0.0148
      6 C         -25.4319    1.1920   25.7933 C.ar    1  UNL1        0.0013
      7 C         -25.7497    0.3122   24.7136 C.ar    1  UNL1        0.0001
      8 C         -26.8388   -0.4625   24.7351 C.ar    1  UNL1        0.0013
      9 C         -27.6464   -0.4577   25.7576 C.ar    1  UNL1        0.0148
     10 C         -29.4519    0.8510   28.0591 C.3     1  UNL1        0.0773
     11 C         -29.8868    1.7558   27.1173 C.3     1  UNL1        0.0218
     12 C         -30.2345    0.7702   29.2434 C.3     1  UNL1        0.0201
     13 C         -29.7373   -0.2350   30.2390 C.3     1  UNL1        0.0321
     14 C         -31.3876    1.4966   29.4650 C.3     1  UNL1        0.0018
@<TRIPOS>BOND
     1     1     2    2
     2     1     3    1
     3     3     4    1
     4     3    10    1
     5    10    11    1
     6    10    12    1
     7     2    13    1
     8    12    14    1
     9     4     5   ar
    10     5     6   ar
    11     6     7   ar
    12     7     8   ar
    13     8     9   ar
    14     9     4   ar
