@<TRIPOS>MOLECULE
No_4345-gen_results/8p0m/2024-11-26-14-13-15/
 21 23 0 0 0
SMALL
GASTEIGER

@<TRIPOS>ATOM
      1 C         -28.0162   -0.8135   28.8779 C.ar    1  UNL1        0.0065
      2 C         -28.4690   -0.7850   29.8287 C.ar    1  UNL1        0.0760
      3 C         -26.5455   -0.8762   28.8500 C.ar    1  UNL1        0.0002
      4 C         -25.8041   -1.0324   30.0571 C.ar    1  UNL1        0.0000
      5 C         -27.9437   -0.9869   31.2075 C.ar    1  UNL1        0.0065
      6 C         -26.5825   -1.0386   31.2231 C.ar    1  UNL1        0.0002
      7 C         -24.3810   -1.1082   30.0855 C.ar    1  UNL1        0.0000
      8 C         -23.7590   -1.1322   30.8961 C.ar    1  UNL1        0.0000
      9 C         -22.2395   -1.0663   30.9853 C.ar    1  UNL1        0.0000
     10 C         -21.6850   -0.8653   29.7652 C.ar    1  UNL1        0.0000
     11 C         -22.4213   -0.7284   28.5819 C.ar    1  UNL1        0.0000
     12 C         -23.8520   -0.8586   28.7157 C.ar    1  UNL1        0.0000
     13 C         -30.0520   -0.5788   29.6971 C.2     1  UNL1        0.3457
     14 O         -30.8343   -1.2575   30.2292 O.2     1  UNL1       -0.2445
     15 O         -30.4061    0.4212   29.0162 O.3     1  UNL1       -0.4210
     16 C         -30.0772    1.4344   28.8883 C.ar    1  UNL1        0.1488
     17 C         -30.1909    2.3721   29.8863 C.ar    1  UNL1        0.0376
     18 C         -29.6328    3.6900   29.7878 C.ar    1  UNL1        0.0031
     19 C         -28.9893    4.0413   28.6092 C.ar    1  UNL1        0.0002
     20 C         -29.2721    1.8841   27.6948 C.ar    1  UNL1        0.0376
     21 C         -28.7844    3.1795   27.5827 C.ar    1  UNL1        0.0031
@<TRIPOS>BOND
     1     4     7    1
     2     2    13    1
     3    13    14    2
     4    13    15    1
     5    15    16    1
     6     1     2   ar
     7     2     5   ar
     8     5     6   ar
     9     6     4   ar
    10     4     3   ar
    11     3     1   ar
    12     7     8   ar
    13     8     9   ar
    14     9    10   ar
    15    10    11   ar
    16    11    12   ar
    17    12     7   ar
    18    16    17   ar
    19    17    18   ar
    20    18    19   ar
    21    19    21   ar
    22    21    20   ar
    23    20    16   ar
