@<TRIPOS>MOLECULE
No_4346-gen_results/8p0m/2024-11-26-14-13-15/
 25 27 0 0 0
SMALL
GASTEIGER

@<TRIPOS>ATOM
      1 C         -28.0162   -0.8135   28.8779 C.ar    1  UNL1        0.0146
      2 C         -27.0636   -0.1189   28.6079 C.ar    1  UNL1        0.0398
      3 C         -25.7647   -0.3897   29.0360 C.ar    1  UNL1        0.0034
      4 C         -25.5296   -1.5302   29.9014 C.ar    1  UNL1        0.0009
      5 C         -26.6577   -2.2915   30.2035 C.ar    1  UNL1        0.0114
      6 C         -27.8548   -1.9555   29.7630 C.ar    1  UNL1        0.0578
      7 C         -24.5441    0.4126   28.7379 C.ar    1  UNL1        0.0081
      8 C         -23.3231    0.0476   29.0499 C.ar    1  UNL1        0.0975
      9 C         -23.2018   -1.2373   29.7566 C.ar    1  UNL1        0.0080
     10 C         -24.2259   -1.9647   30.2122 C.ar    1  UNL1        0.0003
     11 C         -22.1144    0.7738   28.7208 C.2     1  UNL1        0.4766
     12 N         -21.8390    1.7454   28.1989 N.pl3   1  UNL1        0.2047
     13 N         -20.8737   -0.0807   28.8582 N.pl3   1  UNL1        0.2047
     14 CL        -29.2612   -2.8735   30.2535 Cl      1  UNL1       -0.0822
     15 C         -27.1954    1.0706   27.6545 C.2     1  UNL1        0.1956
     16 C         -27.8105    0.8510   26.4899 C.ar    1  UNL1        0.0392
     17 C         -28.5755   -0.0264   26.2167 C.ar    1  UNL1        0.0098
     18 C         -29.3275   -0.1237   24.9344 C.ar    1  UNL1        0.0799
     19 C         -30.2423   -1.1565   24.7106 C.2     1  UNL1        0.3878
     20 C         -27.5403    1.8978   25.4828 C.ar    1  UNL1        0.0032
     21 C         -29.0354    0.8372   23.9593 C.ar    1  UNL1        0.0066
     22 C         -28.1624    1.8652   24.2554 C.ar    1  UNL1        0.0003
     23 O         -31.4279   -0.8612   25.1097 O.co2   1  UNL1       -0.2406
     24 O         -29.8394   -2.3457   24.4916 O.co2   1  UNL1       -0.2406
     25 O         -27.2738    2.2158   28.3399 O.2     1  UNL1       -0.2866
@<TRIPOS>BOND
     1     8    11    1
     2    11    12    2
     3    11    13    1
     4     6    14    1
     5     2    15    1
     6    15    16    1
     7    18    19    1
     8    19    23   ar
     9    19    24   ar
    10    15    25    2
    11     1     2   ar
    12     2     3   ar
    13     4     5   ar
    14     5     6   ar
    15     6     1   ar
    16    16    17   ar
    17    17    18   ar
    18    18    21   ar
    19    21    22   ar
    20    22    20   ar
    21    20    16   ar
    22     3     4   ar
    23     4    10   ar
    24    10     9   ar
    25     9     8   ar
    26     8     7   ar
    27     7     3   ar
