@<TRIPOS>MOLECULE
No_4347-gen_results/8p0m/2024-11-26-14-13-15/
 26 30 0 0 0
SMALL
GASTEIGER

@<TRIPOS>ATOM
      1 C         -28.0162   -0.8135   28.8779 C.ar    1  UNL1       -0.0026
      2 C         -27.0636   -0.1190   28.6079 C.ar    1  UNL1       -0.0007
      3 C         -26.9287    1.1713   29.0083 C.ar    1  UNL1        0.0520
      4 C         -27.9560    1.7411   29.7840 C.ar    1  UNL1        0.0148
      5 C         -29.0569   -0.3271   29.7466 C.ar    1  UNL1       -0.0002
      6 C         -28.9828    0.9722   30.1516 C.ar    1  UNL1        0.0013
      7 C         -25.9387   -0.8037   27.9016 C.3     1  UNL1        0.0917
      8 C         -24.5478   -0.6130   28.5298 C.2     1  UNL1        0.1232
      9 C         -23.6808    0.2304   28.5360 C.2     1  UNL1        0.0100
     10 C         -23.6859    1.4619   27.7474 C.ar    1  UNL1        0.0126
     11 C         -22.9769    1.8801   27.0246 C.ar    1  UNL1        0.0010
     12 C         -23.2023    3.0691   26.2215 C.ar    1  UNL1        0.0001
     13 C         -24.4966    3.6985   26.3378 C.ar    1  UNL1        0.0013
     14 C         -25.3212    3.2253   27.2522 C.ar    1  UNL1        0.0151
     15 C         -25.0172    2.1218   27.9729 C.ar    1  UNL1        0.0553
     16 N         -25.9698    2.0670   28.5762 N.pl3   1  UNL1       -0.2647
     17 C         -25.6010    2.8661   29.8867 C.2     1  UNL1        0.0696
     18 C         -25.4812    2.5350   31.0629 C.2     1  UNL1        0.0194
     19 C         -25.5473    1.2272   31.5199 C.ar    1  UNL1        0.0358
     20 C         -25.5030    0.8628   32.9041 C.ar    1  UNL1        0.0031
     21 C         -25.5181   -0.4982   33.2686 C.ar    1  UNL1        0.0002
     22 C         -25.6316   -1.4109   32.2143 C.ar    1  UNL1        0.0031
     23 C         -25.7387   -1.1559   30.9179 C.ar    1  UNL1        0.0375
     24 C         -25.6602    0.1798   30.5783 C.ar    1  UNL1        0.1448
     25 O         -24.5012    0.1218   30.0363 O.3     1  UNL1       -0.4577
     26 C         -22.2661   -0.1190   28.9175 C.3     1  UNL1        0.0339
@<TRIPOS>BOND
     1     2     7    1
     2     7     8    1
     3     8     9    2
     4     9    10    1
     5     3    16    1
     6    15    16    1
     7    16    17    1
     8    17    18    2
     9    18    19    1
    10     8    25    1
    11    24    25    1
    12     9    26    1
    13     1     2   ar
    14     2     3   ar
    15     3     4   ar
    16     4     6   ar
    17     6     5   ar
    18     5     1   ar
    19    10    11   ar
    20    11    12   ar
    21    12    13   ar
    22    13    14   ar
    23    14    15   ar
    24    15    10   ar
    25    19    20   ar
    26    20    21   ar
    27    21    22   ar
    28    22    23   ar
    29    23    24   ar
    30    24    19   ar
