@<TRIPOS>MOLECULE
No_4349-gen_results/8p0m/2024-11-26-14-13-15/
 20 21 0 0 0
SMALL
GASTEIGER

@<TRIPOS>ATOM
      1 C         -28.0162   -0.8135   28.8779 C.ar    1  UNL1        0.0085
      2 C         -27.0636   -0.1190   28.6079 C.ar    1  UNL1        0.0657
      3 C         -25.7647   -0.3897   29.0360 C.ar    1  UNL1        0.0621
      4 C         -25.5296   -1.5303   29.9014 C.ar    1  UNL1        0.0116
      5 C         -26.6888   -2.2893   30.1810 C.ar    1  UNL1        0.0039
      6 C         -27.8727   -1.9508   29.7373 C.ar    1  UNL1        0.0360
      7 CL        -24.3819    0.5593   28.6789 Cl      1  UNL1       -0.0821
      8 C         -29.0263   -2.8156   30.1581 C.ar    1  UNL1        0.1623
      9 N         -29.3427   -2.8896   31.3966 N.ar    1  UNL1       -0.2248
     10 C         -29.8016   -3.9675   31.9133 C.ar    1  UNL1        0.1087
     11 C         -30.2140   -5.0452   31.0950 C.ar    1  UNL1        0.1180
     12 C         -29.8913   -4.9758   29.7390 C.ar    1  UNL1        0.1087
     13 N         -29.1056   -3.9394   29.4802 N.ar    1  UNL1       -0.2248
     14 C         -30.9287   -6.2414   31.6144 C.2     1  UNL1        0.3908
     15 O         -32.0675   -5.9910   31.9536 O.co2   1  UNL1       -0.2404
     16 O         -30.3738   -7.3750   31.6818 O.co2   1  UNL1       -0.2404
     17 C         -26.9230    1.0903   27.6051 C.2     1  UNL1        0.2657
     18 N         -26.8697    2.2170   28.0102 N.am    1  UNL1       -0.1997
     19 O         -27.2582    0.8029   26.3625 O.2     1  UNL1       -0.2683
     20 C         -26.8682    3.3858   27.1142 C.3     1  UNL1        0.1388
@<TRIPOS>BOND
     1     3     7    1
     2     6     8    1
     3    11    14    1
     4    14    15   ar
     5    14    16   ar
     6     2    17    1
     7    17    18   am
     8    17    19    2
     9    18    20    1
    10     1     2   ar
    11     2     3   ar
    12     3     4   ar
    13     4     5   ar
    14     5     6   ar
    15     6     1   ar
    16     8     9   ar
    17     9    10   ar
    18    10    11   ar
    19    11    12   ar
    20    12    13   ar
    21    13     8   ar
