@<TRIPOS>MOLECULE
No_435-gen_results/8p0m/2024-11-26-14-13-15/
 25 27 0 0 0
SMALL
GASTEIGER

@<TRIPOS>ATOM
      1 C         -28.0162   -0.8135   28.8779 C.ar    1  UNL1       -0.0043
      2 C         -28.4690   -0.7850   29.8287 C.ar    1  UNL1       -0.0003
      3 C         -27.0871    0.2903   28.6377 C.ar    1  UNL1       -0.0222
      4 C         -26.8317    1.2487   29.5869 C.ar    1  UNL1       -0.0043
      5 C         -28.3914    0.0801   31.0065 C.ar    1  UNL1       -0.0000
      6 C         -27.4940    1.1521   30.7841 C.ar    1  UNL1       -0.0003
      7 C         -26.3172    0.3994   27.3653 C.3     1  UNL1        0.0264
      8 C         -26.8815    0.9711   26.3721 C.3     1  UNL1        0.0264
      9 C         -25.0088   -0.0567   27.3826 C.3     1  UNL1        0.0050
     10 C         -28.1703    1.4323   26.2851 C.ar    1  UNL1       -0.0222
     11 C         -28.7118    1.8207   25.0621 C.ar    1  UNL1       -0.0043
     12 C         -29.9921    2.3582   24.9725 C.ar    1  UNL1       -0.0003
     13 C         -30.6831    2.7187   26.1200 C.ar    1  UNL1       -0.0000
     14 C         -30.1148    2.4124   27.3582 C.ar    1  UNL1       -0.0001
     15 C         -28.9133    1.8652   27.4716 C.ar    1  UNL1       -0.0043
     16 C         -26.0865    1.0020   25.1060 C.3     1  UNL1        0.0050
     17 C         -30.9503    2.7567   28.5743 C.ar    1  UNL1        0.0064
     18 C         -31.5152    1.6726   29.2209 C.ar    1  UNL1        0.0002
     19 C         -31.8473    1.7824   30.5160 C.ar    1  UNL1        0.0000
     20 C         -31.9017    3.0660   31.1296 C.ar    1  UNL1        0.0002
     21 C         -30.7745    4.0380   29.1759 C.ar    1  UNL1        0.0798
     22 C         -31.2797    4.1756   30.4928 C.ar    1  UNL1        0.0066
     23 C         -30.1541    5.1354   28.5610 C.2     1  UNL1        0.3878
     24 O         -30.5347    5.6206   27.6250 O.co2   1  UNL1       -0.2406
     25 O         -28.9243    5.4936   29.1152 O.co2   1  UNL1       -0.2406
@<TRIPOS>BOND
     1     3     7    1
     2     7     8    1
     3     7     9    1
     4     8    10    1
     5     8    16    1
     6    14    17    1
     7    21    23    1
     8    23    24   ar
     9    23    25   ar
    10    17    18   ar
    11    18    19   ar
    12    19    20   ar
    13    20    22   ar
    14    22    21   ar
    15    21    17   ar
    16     1     2   ar
    17     2     5   ar
    18     5     6   ar
    19     6     4   ar
    20     4     3   ar
    21     3     1   ar
    22    10    11   ar
    23    11    12   ar
    24    12    13   ar
    25    13    14   ar
    26    14    15   ar
    27    15    10   ar
