@<TRIPOS>MOLECULE
No_4350-gen_results/8p0m/2024-11-26-14-13-15/
 22 24 0 0 0
SMALL
GASTEIGER

@<TRIPOS>ATOM
      1 C         -28.0162   -0.8135   28.8779 C.ar    1  UNL1        0.0066
      2 C         -27.0636   -0.1189   28.6079 C.ar    1  UNL1        0.0002
      3 C         -26.9716    0.7139   27.5060 C.ar    1  UNL1        0.0000
      4 C         -28.1053    0.7744   26.6421 C.ar    1  UNL1       -0.0000
      5 C         -28.1273    1.5122   25.5121 C.ar    1  UNL1       -0.0003
      6 C         -27.9594   -1.6009   30.1427 C.ar    1  UNL1        0.0798
      7 C         -26.7501   -1.7506   30.7832 C.ar    1  UNL1        0.0066
      8 C         -25.6264   -1.1225   30.3809 C.ar    1  UNL1        0.0002
      9 C         -25.7235   -0.2814   29.3107 C.ar    1  UNL1        0.0000
     10 C         -26.9387    2.2628   25.1056 C.ar    1  UNL1       -0.0000
     11 C         -25.8140    2.2209   25.8874 C.ar    1  UNL1       -0.0000
     12 C         -25.8099    1.4784   27.0399 C.ar    1  UNL1        0.0000
     13 C         -29.1448   -2.3838   30.5943 C.2     1  UNL1        0.3878
     14 O         -29.9067   -1.9899   31.2178 O.co2   1  UNL1       -0.2406
     15 O         -28.8979   -3.7151   30.4582 O.co2   1  UNL1       -0.2406
     16 C         -29.2821    1.6088   24.6445 C.ar    1  UNL1       -0.0040
     17 C         -30.0705    2.7104   24.6371 C.ar    1  UNL1       -0.0003
     18 C         -31.2154    2.8460   23.8389 C.ar    1  UNL1       -0.0000
     19 C         -31.5850    1.6536   23.1500 C.ar    1  UNL1       -0.0003
     20 C         -29.6140    0.5482   23.7960 C.ar    1  UNL1       -0.0218
     21 C         -30.7999    0.5420   23.2027 C.ar    1  UNL1       -0.0043
     22 C         -28.8460   -0.7354   23.9195 C.3     1  UNL1        0.0310
@<TRIPOS>BOND
     1     2     3    1
     2     6    13    1
     3    13    14   ar
     4    13    15   ar
     5     5    16    1
     6    20    22    1
     7     3     4   ar
     8     4     5   ar
     9     5    10   ar
    10    10    11   ar
    11    11    12   ar
    12    12     3   ar
    13     1     2   ar
    14     2     9   ar
    15     9     8   ar
    16     8     7   ar
    17     7     6   ar
    18     6     1   ar
    19    16    17   ar
    20    17    18   ar
    21    18    19   ar
    22    19    21   ar
    23    21    20   ar
    24    20    16   ar
