@<TRIPOS>MOLECULE
No_4351-gen_results/8p0m/2024-11-26-14-13-15/
 24 27 0 0 0
SMALL
GASTEIGER

@<TRIPOS>ATOM
      1 C         -28.0162   -0.8135   28.8779 C.ar    1  UNL1        0.0296
      2 C         -27.0636   -0.1190   28.6079 C.ar    1  UNL1        0.1401
      3 C         -26.8756    1.1325   28.9134 C.ar    1  UNL1        0.0298
      4 C         -27.9014    1.8066   29.6436 C.ar    1  UNL1        0.0086
      5 C         -29.0458   -0.2316   29.7181 C.ar    1  UNL1        0.0023
      6 C         -28.9402    1.0517   30.0597 C.ar    1  UNL1        0.0003
      7 F         -26.0208   -0.6774   27.8774 F       1  UNL1       -0.2042
      8 C         -30.0213    1.6852   30.8724 C.ar    1  UNL1        0.0000
      9 C         -29.6464    2.6297   31.6630 C.ar    1  UNL1        0.0002
     10 C         -30.5688    3.3003   32.5760 C.ar    1  UNL1        0.0000
     11 C         -30.1465    4.3096   33.4607 C.ar    1  UNL1        0.0000
     12 C         -28.7923    4.7122   33.4374 C.ar    1  UNL1        0.0000
     13 C         -27.8570    4.0881   32.5905 C.ar    1  UNL1        0.0002
     14 C         -28.2654    3.0877   31.7692 C.ar    1  UNL1        0.0064
     15 C         -31.1214    2.0722   29.8699 C.ar    1  UNL1        0.0000
     16 C         -32.2299    1.2606   29.8043 C.ar    1  UNL1        0.0000
     17 C         -33.2536    1.5961   28.9129 C.ar    1  UNL1        0.0000
     18 C         -33.0892    2.3427   28.2123 C.ar    1  UNL1        0.0000
     19 C         -31.1334    3.0214   28.8955 C.ar    1  UNL1        0.0000
     20 C         -32.0283    3.2939   28.0726 C.ar    1  UNL1        0.0000
     21 C         -27.3477    2.5875   30.7455 C.ar    1  UNL1        0.0798
     22 C         -25.9510    3.1137   30.7792 C.2     1  UNL1        0.3878
     23 O         -25.4070    3.3672   31.7302 O.co2   1  UNL1       -0.2406
     24 O         -25.6047    3.6744   29.6571 O.co2   1  UNL1       -0.2406
@<TRIPOS>BOND
     1     2     7    1
     2     8    15    1
     3    21    22    1
     4    22    23   ar
     5    22    24   ar
     6    15    16   ar
     7    16    17   ar
     8    17    18   ar
     9    18    20   ar
    10    20    19   ar
    11    19    15   ar
    12     6     8   ar
    13     8     9   ar
    14    14    21   ar
    15    21     4   ar
    16     1     2   ar
    17     2     3   ar
    18     3     4   ar
    19     4     6   ar
    20     6     5   ar
    21     5     1   ar
    22     9    10   ar
    23    10    11   ar
    24    11    12   ar
    25    12    13   ar
    26    13    14   ar
    27    14     9   ar
