@<TRIPOS>MOLECULE
No_4353-gen_results/8p0m/2024-11-26-14-13-15/
 14 14 0 0 0
SMALL
GASTEIGER

@<TRIPOS>ATOM
      1 C         -28.0162   -0.8135   28.8779 C.3     1  UNL1        0.4186
      2 C         -27.0636   -0.1190   28.6079 C.ar    1  UNL1        0.0714
      3 C         -27.0010    0.6913   27.4910 C.ar    1  UNL1        0.0038
      4 C         -25.8548    1.4825   27.0830 C.ar    1  UNL1        0.0038
      5 C         -24.6901    1.4526   27.8807 C.ar    1  UNL1        0.0714
      6 C         -24.7379    0.6010   29.0416 C.ar    1  UNL1        0.0038
      7 C         -25.8234   -0.1688   29.3887 C.ar    1  UNL1        0.0038
      8 F         -27.8182   -1.9960   29.2551 F       1  UNL1       -0.1659
      9 F         -28.8970   -0.9172   27.8323 F       1  UNL1       -0.1659
     10 F         -28.7359   -0.2103   29.9183 F       1  UNL1       -0.1659
     11 C         -23.5298    2.2274   27.6082 C.3     1  UNL1        0.4186
     12 F         -23.5286    2.6929   26.6090 F       1  UNL1       -0.1659
     13 F         -23.2256    3.0439   28.6199 F       1  UNL1       -0.1659
     14 F         -22.3644    1.3752   27.6298 F       1  UNL1       -0.1659
@<TRIPOS>BOND
     1     1     2    1
     2     1     8    1
     3     1     9    1
     4     1    10    1
     5     5    11    1
     6    11    12    1
     7    11    13    1
     8    11    14    1
     9     2     3   ar
    10     3     4   ar
    11     4     5   ar
    12     5     6   ar
    13     6     7   ar
    14     7     2   ar
