@<TRIPOS>MOLECULE
No_4354-gen_results/8p0m/2024-11-26-14-13-15/
 32 33 0 0 0
SMALL
GASTEIGER

@<TRIPOS>ATOM
      1 C         -28.0162   -0.8135   28.8779 C.ar    1  UNL1        0.0757
      2 C         -27.0636   -0.1189   28.6079 C.ar    1  UNL1        0.0065
      3 C         -26.9716    0.7139   27.5060 C.ar    1  UNL1        0.0298
      4 C         -28.1053    0.7744   26.6421 C.ar    1  UNL1        0.0066
      5 C         -29.2041    0.1179   27.0477 C.ar    1  UNL1        0.0798
      6 C         -29.2127   -0.6088   28.1281 C.ar    1  UNL1        0.0130
      7 C         -25.7106    1.4518   27.1380 C.3     1  UNL1        0.2635
      8 N         -25.4040    2.4718   27.7330 N.am    1  UNL1       -0.2353
      9 C         -25.6664    3.0341   28.7902 C.2     1  UNL1        0.3121
     10 CL        -26.1391    4.1967   28.8687 Cl      1  UNL1       -0.0221
     11 O         -25.4189    2.2511   29.8064 O.2     1  UNL1       -0.2566
     12 C         -30.3959    0.2451   26.1913 C.2     1  UNL1        0.3877
     13 O         -31.4524    0.1223   26.5468 O.co2   1  UNL1       -0.2406
     14 O         -30.1943    0.4513   24.8882 O.co2   1  UNL1       -0.2406
     15 F         -25.0311    0.8566   26.2622 F       1  UNL1       -0.2096
     16 C         -24.7889    3.5611   26.6968 C.3     1  UNL1        0.1189
     17 C         -28.1017   -1.6386   30.1294 C.2     1  UNL1        0.3415
     18 O         -28.0724   -2.7501   30.1065 O.2     1  UNL1       -0.2449
     19 O         -28.2576   -0.9923   31.3040 O.3     1  UNL1       -0.4404
     20 C         -27.5568   -0.0788   31.6855 C.3     1  UNL1        0.2354
     21 C         -27.5079    0.2160   33.1246 C.ar    1  UNL1        0.0213
     22 C         -28.2107    1.2781   33.6106 C.ar    1  UNL1       -0.0005
     23 C         -28.1605    1.5595   35.0003 C.ar    1  UNL1       -0.0002
     24 C         -27.4502    0.7420   35.8402 C.ar    1  UNL1       -0.0000
     25 C         -26.7106   -0.3545   35.3074 C.ar    1  UNL1       -0.0002
     26 C         -26.7215   -0.5748   33.9395 C.ar    1  UNL1       -0.0007
     27 C         -28.9691    2.1623   32.7824 C.2     1  UNL1       -0.0002
     28 C         -28.5268    3.0987   32.2667 C.2     1  UNL1       -0.0000
     29 C         -29.0439    4.1672   31.6952 C.2     1  UNL1       -0.0000
     30 C         -28.3717    5.3214   31.2745 C.2     1  UNL1       -0.0000
     31 C         -27.0343    5.4702   31.6204 C.2     1  UNL1        0.0000
     32 C         -26.3649    4.4658   32.3423 C.2     1  UNL1        0.0000
@<TRIPOS>BOND
     1     3     7    1
     2     7     8    1
     3     8     9   am
     4     9    10    1
     5     9    11    2
     6     5    12    1
     7    12    13   ar
     8    12    14   ar
     9     7    15    1
    10     8    16    1
    11     1    17    1
    12    17    18    2
    13    17    19    1
    14    19    20    1
    15    22    27    1
    16    27    28    2
    17    28    29    1
    18    29    30    2
    19    30    31    1
    20    31    32    2
    21    20    21    1
    22     1     2   ar
    23     2     3   ar
    24     3     4   ar
    25     4     5   ar
    26     5     6   ar
    27     6     1   ar
    28    21    22   ar
    29    22    23   ar
    30    23    24   ar
    31    24    25   ar
    32    25    26   ar
    33    26    21   ar
