@<TRIPOS>MOLECULE
No_4355-gen_results/8p0m/2024-11-26-14-13-15/
 29 31 0 0 0
SMALL
GASTEIGER

@<TRIPOS>ATOM
      1 C         -28.0162   -0.8135   28.8779 C.ar    1  UNL1        0.0369
      2 C         -27.0636   -0.1189   28.6079 C.ar    1  UNL1        0.0028
      3 C         -25.7923   -0.4302   29.0761 C.ar    1  UNL1       -0.0025
      4 C         -24.5456    0.3494   28.8225 C.ar    1  UNL1       -0.0061
      5 C         -23.2409    0.0217   29.3323 C.ar    1  UNL1       -0.0029
      6 C         -27.8820   -1.8995   29.8633 C.ar    1  UNL1        0.1386
      7 C         -26.6526   -2.3142   30.3138 C.ar    1  UNL1        0.0369
      8 C         -25.5153   -1.5607   29.9787 C.ar    1  UNL1        0.0028
      9 C         -23.2072   -1.2289   30.0311 C.ar    1  UNL1       -0.0003
     10 C         -24.2434   -1.9361   30.3879 C.ar    1  UNL1        0.0001
     11 C         -24.5768    1.5651   27.9574 C.3     1  UNL1        0.0992
     12 N         -23.6131    1.7738   27.1396 N.3     1  UNL1       -0.2665
     13 C         -22.3900    1.9189   27.5728 C.3     1  UNL1        0.0899
     14 C         -23.8639    1.8719   25.7621 C.3     1  UNL1        0.0899
     15 O         -29.0124   -2.6191   30.1674 O.3     1  UNL1       -0.4740
     16 C         -29.3514   -2.7477   31.5373 C.3     1  UNL1        0.2246
     17 C         -30.7294   -2.6484   31.7527 C.3     1  UNL1        0.1627
     18 C         -31.4916   -2.2557   30.7583 C.3     1  UNL1        0.2479
     19 C         -31.1469   -1.1976   30.0486 C.2     1  UNL1        0.2774
     20 O         -30.9009   -0.2239   30.7002 O.2     1  UNL1       -0.2702
     21 O         -31.8498   -3.4390   29.8960 O.3     1  UNL1       -0.2117
     22 N         -31.6859   -0.9341   28.8128 N.am    1  UNL1       -0.1770
     23 C         -31.8887    0.0240   28.2603 C.ar    1  UNL1        0.0734
     24 C         -32.7088    0.3624   27.5048 C.ar    1  UNL1        0.0166
     25 CL        -31.3729   -3.9355   32.8146 Cl      1  UNL1       -0.1078
     26 C         -32.8786    1.6416   26.8158 C.ar    1  UNL1        0.0013
     27 C         -31.9059    2.6137   27.0315 C.ar    1  UNL1        0.0001
     28 C         -30.8021    2.2989   27.8269 C.ar    1  UNL1        0.0013
     29 C         -30.7565    1.1341   28.4405 C.ar    1  UNL1        0.0166
@<TRIPOS>BOND
     1     4    11    1
     2    11    12    1
     3    12    13    1
     4    12    14    1
     5     6    15    1
     6    15    16    1
     7    16    17    1
     8    17    18    1
     9    18    19    1
    10    19    20    2
    11    18    21    1
    12    19    22   am
    13    22    23    1
    14    17    25    1
    15    23    24   ar
    16    24    26   ar
    17    26    27   ar
    18    27    28   ar
    19    28    29   ar
    20    29    23   ar
    21     1     2   ar
    22     2     3   ar
    23     8     7   ar
    24     7     6   ar
    25     6     1   ar
    26     3     4   ar
    27     4     5   ar
    28     5     9   ar
    29     9    10   ar
    30    10     8   ar
    31     8     3   ar
