@<TRIPOS>MOLECULE
No_4357-gen_results/8p0m/2024-11-26-14-13-15/
 16 16 0 0 0
SMALL
GASTEIGER

@<TRIPOS>ATOM
      1 C         -28.0162   -0.8135   28.8779 C.ar    1  UNL1       -0.0043
      2 C         -27.0636   -0.1190   28.6079 C.ar    1  UNL1       -0.0225
      3 C         -26.9287    1.1713   29.0083 C.ar    1  UNL1       -0.0043
      4 C         -27.9560    1.7411   29.7840 C.ar    1  UNL1       -0.0003
      5 C         -29.0569   -0.3271   29.7466 C.ar    1  UNL1       -0.0003
      6 C         -28.9828    0.9722   30.1516 C.ar    1  UNL1       -0.0000
      7 C         -25.8815   -0.6260   27.7945 C.3     1  UNL1        0.0223
      8 C         -25.4215    0.1302   26.7096 C.3     1  UNL1        0.0047
      9 C         -25.0332   -1.6821   28.2396 C.3     1  UNL1        0.0044
     10 C         -24.3977   -1.7439   29.4802 C.3     1  UNL1        0.0007
     11 C         -24.0215   -0.5559   30.1742 C.3     1  UNL1        0.0044
     12 C         -23.8324   -0.7433   31.5816 C.3     1  UNL1        0.0003
     13 C         -23.7157    0.6077   29.6024 C.3     1  UNL1        0.0275
     14 C         -22.4962    0.7047   28.8169 C.2     1  UNL1       -0.0067
     15 C         -22.2939    1.7593   27.8704 C.2     1  UNL1        0.1012
     16 N         -23.2788    2.5950   27.7376 N.pl3   1  UNL1       -0.1270
@<TRIPOS>BOND
     1     2     7    1
     2     7     8    1
     3     7     9    1
     4     9    10    1
     5    10    11    1
     6    11    12    1
     7    11    13    1
     8    13    14    1
     9    14    15    2
    10    15    16    1
    11     1     2   ar
    12     2     3   ar
    13     3     4   ar
    14     4     6   ar
    15     6     5   ar
    16     5     1   ar
