@<TRIPOS>MOLECULE
No_4358-gen_results/8p0m/2024-11-26-14-13-15/
 25 27 0 0 0
SMALL
GASTEIGER

@<TRIPOS>ATOM
      1 C         -28.0162   -0.8135   28.8779 C.ar    1  UNL1        0.0375
      2 C         -28.4690   -0.7850   29.8287 C.ar    1  UNL1        0.0033
      3 C         -28.1960    0.3478   28.0550 C.ar    1  UNL1        0.1454
      4 C         -29.0191    1.3501   28.3782 C.ar    1  UNL1        0.0409
      5 C         -29.6249    1.2683   29.6012 C.ar    1  UNL1        0.0827
      6 C         -29.3791    0.1469   30.3923 C.ar    1  UNL1        0.0068
      7 O         -27.3781    0.2552   26.9166 O.3     1  UNL1       -0.4535
      8 C         -26.0149    0.3582   26.9877 C.ar    1  UNL1        0.1453
      9 C         -25.4231    1.5239   27.4465 C.ar    1  UNL1        0.0376
     10 C         -24.0466    1.5566   27.6588 C.ar    1  UNL1        0.0077
     11 C         -23.3304    0.4366   28.0782 C.ar    1  UNL1        0.0569
     12 C         -23.9826   -0.8014   27.9732 C.ar    1  UNL1        0.0077
     13 C         -25.1346   -0.6527   26.5387 C.ar    1  UNL1        0.0376
     14 C         -22.0178    0.4181   28.6332 C.2     1  UNL1        0.2842
     15 N         -21.6698   -0.3664   29.6144 N.am    1  UNL1       -0.0837
     16 O         -21.1276    1.1646   28.0588 O.2     1  UNL1       -0.2667
     17 C         -29.1996    2.4520   27.4774 C.ar    1  UNL1        0.0031
     18 C         -28.2889    3.1733   27.0738 C.ar    1  UNL1        0.0001
     19 C         -28.5376    4.2723   26.1056 C.ar    1  UNL1        0.0000
     20 C         -29.8327    4.4173   25.5579 C.ar    1  UNL1        0.0000
     21 C         -30.7742    3.5248   25.9680 C.ar    1  UNL1        0.0000
     22 C         -30.5299    2.5380   26.9380 C.ar    1  UNL1        0.0001
     23 C         -30.5821    2.3221   30.0449 C.2     1  UNL1        0.3879
     24 O         -31.7577    2.3528   29.7771 O.co2   1  UNL1       -0.2406
     25 O         -29.9915    3.3267   30.7096 O.co2   1  UNL1       -0.2406
@<TRIPOS>BOND
     1     3     7    1
     2     7     8    1
     3    11    14    1
     4    14    15   am
     5    14    16    2
     6     4    17    1
     7     5    23    1
     8    23    24   ar
     9    23    25   ar
    10    17    18   ar
    11    18    19   ar
    12    19    20   ar
    13    20    21   ar
    14    21    22   ar
    15    22    17   ar
    16     1     2   ar
    17     2     6   ar
    18     6     5   ar
    19     5     4   ar
    20     4     3   ar
    21     3     1   ar
    22     8     9   ar
    23     9    10   ar
    24    10    11   ar
    25    11    12   ar
    26    12    13   ar
    27    13     8   ar
