@<TRIPOS>MOLECULE
No_4359-gen_results/8p0m/2024-11-26-14-13-15/
 19 20 0 0 0
SMALL
GASTEIGER

@<TRIPOS>ATOM
      1 C         -28.0162   -0.8135   28.8779 C.ar    1  UNL1        0.0072
      2 C         -28.4690   -0.7850   29.8287 C.ar    1  UNL1        0.0573
      3 C         -26.5042   -0.7777   28.8766 C.ar    1  UNL1       -0.0206
      4 C         -25.6540   -0.6597   27.7191 C.3     1  UNL1        0.0523
      5 C         -27.9180   -0.9374   31.1824 C.ar    1  UNL1        0.0111
      6 C         -26.5423   -0.9399   31.2606 C.ar    1  UNL1       -0.0034
      7 C         -25.7832   -0.8935   30.1201 C.ar    1  UNL1       -0.0223
      8 C         -25.2134    0.6923   27.3830 C.ar    1  UNL1       -0.0178
      9 C         -25.8817    1.6334   27.4301 C.ar    1  UNL1       -0.0039
     10 C         -25.3068    2.9659   27.1011 C.ar    1  UNL1       -0.0003
     11 C         -23.9644    3.0790   26.7144 C.ar    1  UNL1       -0.0000
     12 C         -23.7686    0.8240   27.0703 C.ar    1  UNL1       -0.0039
     13 C         -23.2207    2.0137   26.7255 C.ar    1  UNL1       -0.0003
     14 CL        -30.2719   -0.8102   29.8400 Cl      1  UNL1       -0.0823
     15 C         -24.3621   -0.9005   30.2269 C.3     1  UNL1        0.0403
     16 C         -23.5497    0.2414   30.2125 C.2     1  UNL1       -0.0402
     17 C         -22.1721    0.2397   30.1325 C.2     1  UNL1       -0.0088
     18 C         -24.1507    1.6264   30.4246 C.3     1  UNL1        0.0267
     19 C         -23.7109   -2.1781   30.1681 C.3     1  UNL1        0.0091
@<TRIPOS>BOND
     1     3     4    1
     2     4     8    1
     3     2    14    1
     4     7    15    1
     5    15    16    1
     6    16    17    2
     7    16    18    1
     8    15    19    1
     9     1     2   ar
    10     2     5   ar
    11     5     6   ar
    12     6     7   ar
    13     7     3   ar
    14     3     1   ar
    15     8     9   ar
    16     9    10   ar
    17    10    11   ar
    18    11    13   ar
    19    13    12   ar
    20    12     8   ar
