@<TRIPOS>MOLECULE
No_436-gen_results/8p0m/2024-11-26-14-13-15/
 18 19 0 0 0
SMALL
GASTEIGER

@<TRIPOS>ATOM
      1 C         -28.0162   -0.8135   28.8779 C.ar    1  UNL1        0.0800
      2 C         -27.0636   -0.1189   28.6079 C.ar    1  UNL1        0.0066
      3 C         -26.9716    0.7139   27.5060 C.ar    1  UNL1        0.0004
      4 C         -28.1053    0.7744   26.6421 C.ar    1  UNL1        0.0066
      5 C         -29.2008    0.1044   27.0527 C.ar    1  UNL1        0.0800
      6 C         -28.0219   -1.5899   30.0879 C.2     1  UNL1        0.3878
      7 C         -29.1640   -0.6394   28.1484 C.ar    1  UNL1        0.0132
      8 O         -28.8247   -1.8905   30.7103 O.co2   1  UNL1       -0.2406
      9 O         -26.7951   -2.2214   30.3429 O.co2   1  UNL1       -0.2406
     10 C         -30.2968    0.2683   26.0155 C.2     1  UNL1        0.3878
     11 O         -30.2596    0.4455   24.8827 O.co2   1  UNL1       -0.2406
     12 O         -31.5254    0.2832   26.5979 O.co2   1  UNL1       -0.2406
     13 C         -25.6946    1.4371   27.1330 C.ar    1  UNL1        0.0000
     14 C         -24.5799    0.9866   27.7345 C.ar    1  UNL1        0.0000
     15 C         -23.3392    1.7192   27.5737 C.ar    1  UNL1        0.0000
     16 C         -23.3360    2.6339   26.5387 C.ar    1  UNL1        0.0000
     17 C         -24.4824    3.0220   25.8854 C.ar    1  UNL1        0.0000
     18 C         -25.7050    2.4377   26.1840 C.ar    1  UNL1        0.0000
@<TRIPOS>BOND
     1     1     6    1
     2     6     8   ar
     3     6     9   ar
     4     5    10    1
     5    10    11   ar
     6    10    12   ar
     7     3    13    1
     8    13    14   ar
     9    14    15   ar
    10    15    16   ar
    11    16    17   ar
    12    17    18   ar
    13    18    13   ar
    14     1     2   ar
    15     2     3   ar
    16     3     4   ar
    17     4     5   ar
    18     5     7   ar
    19     7     1   ar
