@<TRIPOS>MOLECULE
No_4360-gen_results/8p0m/2024-11-26-14-13-15/
 13 13 0 0 0
SMALL
GASTEIGER

@<TRIPOS>ATOM
      1 C         -28.0162   -0.8135   28.8779 C.ar    1  UNL1        0.1465
      2 C         -28.4690   -0.7850   29.8287 C.ar    1  UNL1        0.1073
      3 F         -26.9162   -1.5644   28.7368 F       1  UNL1       -0.2040
      4 C         -28.1645    0.0261   27.7584 C.ar    1  UNL1        0.0301
      5 C         -29.4034    0.7099   27.5940 C.ar    1  UNL1        0.0089
      6 C         -29.8202    0.0474   29.9068 C.ar    1  UNL1        0.0154
      7 C         -30.1223    0.7715   28.7916 C.ar    1  UNL1        0.0801
      8 C         -31.3652    1.5735   28.7931 C.2     1  UNL1        0.3878
      9 O         -31.7164    2.2614   29.6605 O.co2   1  UNL1       -0.2406
     10 O         -31.9594    1.5098   27.6443 O.co2   1  UNL1       -0.2406
     11 C         -28.1667   -1.5923   31.0671 C.2     1  UNL1        0.3899
     12 O         -27.5306   -2.5557   31.0294 O.co2   1  UNL1       -0.2405
     13 O         -28.9028   -1.3616   32.1989 O.co2   1  UNL1       -0.2405
@<TRIPOS>BOND
     1     1     3    1
     2     7     8    1
     3     8     9   ar
     4     8    10   ar
     5     2    11    1
     6    11    12   ar
     7    11    13   ar
     8     1     2   ar
     9     2     6   ar
    10     6     7   ar
    11     7     5   ar
    12     5     4   ar
    13     4     1   ar
