@<TRIPOS>MOLECULE
No_4362-gen_results/8p0m/2024-11-26-14-13-15/
 9 9 0 0 0
SMALL
GASTEIGER

@<TRIPOS>ATOM
      1 C         -28.0162   -0.8135   28.8779 C.ar    1  UNL1       -0.0000
      2 C         -27.0636   -0.1189   28.6079 C.ar    1  UNL1       -0.0000
      3 C         -26.9716    0.7139   27.5060 C.ar    1  UNL1       -0.0000
      4 C         -28.1053    0.7744   26.6421 C.ar    1  UNL1       -0.0000
      5 C         -29.2008    0.1044   27.0527 C.ar    1  UNL1       -0.0003
      6 C         -29.2096   -0.6029   28.1853 C.ar    1  UNL1       -0.0000
      7 C         -30.3702    0.2264   26.1604 C.2     1  UNL1       -0.0046
      8 C         -31.3926   -0.4782   26.4616 C.2     1  UNL1       -0.0258
      9 C         -31.4721   -1.1854   27.7411 C.3     1  UNL1        0.0307
@<TRIPOS>BOND
     1     5     7    1
     2     7     8    2
     3     8     9    1
     4     1     2   ar
     5     2     3   ar
     6     3     4   ar
     7     4     5   ar
     8     5     6   ar
     9     6     1   ar
