@<TRIPOS>MOLECULE
No_4364-gen_results/8p0m/2024-11-26-14-13-15/
 25 25 0 0 0
SMALL
GASTEIGER

@<TRIPOS>ATOM
      1 C         -28.0162   -0.8135   28.8779 C.3     1  UNL1        0.1119
      2 C         -27.0636   -0.1190   28.6079 C.ar    1  UNL1       -0.0092
      3 C         -26.9716    0.7139   27.5060 C.ar    1  UNL1        0.0682
      4 C         -25.8205    1.4909   27.1160 C.ar    1  UNL1        0.0101
      5 C         -24.6562    1.4242   27.9180 C.ar    1  UNL1        0.0797
      6 C         -24.6847    0.5901   29.0659 C.ar    1  UNL1        0.0063
      7 C         -25.8099   -0.1266   29.3338 C.ar    1  UNL1       -0.0036
      8 C         -28.6943   -0.4734   30.1587 C.2     1  UNL1        0.2350
      9 O         -28.7309    0.5070   30.6385 O.2     1  UNL1       -0.2741
     10 N         -29.3247   -1.6399   30.8008 N.am    1  UNL1       -0.2361
     11 C         -23.4694    2.1988   27.6006 C.2     1  UNL1        0.3877
     12 O         -22.5417    2.2050   28.4546 O.co2   1  UNL1       -0.2406
     13 O         -23.3054    2.6369   26.3792 O.co2   1  UNL1       -0.2406
     14 C         -29.3731   -2.9372   30.3214 C.3     1  UNL1        0.2639
     15 C         -28.3881   -3.6798   30.5955 C.2     1  UNL1        0.3985
     16 O         -27.3640   -3.5494   30.4192 O.co2   1  UNL1       -0.2424
     17 O         -28.6560   -4.7937   31.4504 O.co2   1  UNL1       -0.2424
     18 CL        -30.7878   -3.3755   29.6347 Cl      1  UNL1       -0.0801
     19 C         -28.1209    0.8595   26.5773 C.3     1  UNL1        0.4183
     20 F         -28.0118    0.4750   25.4931 F       1  UNL1       -0.1659
     21 F         -28.5504    2.1855   26.6416 F       1  UNL1       -0.1659
     22 F         -29.3064    0.3479   27.0703 F       1  UNL1       -0.1659
     23 C         -30.0959   -1.3269   32.0439 C.2     1  UNL1        0.0645
     24 C         -31.0157   -0.8618   32.3002 C.2     1  UNL1       -0.0096
     25 C         -31.6185   -0.6531   33.5597 C.3     1  UNL1        0.0321
@<TRIPOS>BOND
     1     1     8    1
     2     8     9    2
     3     8    10   am
     4     5    11    1
     5    11    12   ar
     6    11    13   ar
     7    10    14    1
     8    14    15    1
     9    15    16   ar
    10    15    17   ar
    11    14    18    1
    12     3    19    1
    13    19    20    1
    14    19    21    1
    15    19    22    1
    16    10    23    1
    17    23    24    2
    18    24    25    1
    19     1     2    1
    20     2     3   ar
    21     3     4   ar
    22     4     5   ar
    23     5     6   ar
    24     6     7   ar
    25     7     2   ar
