@<TRIPOS>MOLECULE
No_4366-gen_results/8p0m/2024-11-26-14-13-15/
 18 20 0 0 0
SMALL
GASTEIGER

@<TRIPOS>ATOM
      1 C         -28.0162   -0.8135   28.8779 C.ar    1  UNL1        0.0000
      2 C         -27.0636   -0.1189   28.6079 C.ar    1  UNL1        0.0010
      3 C         -26.9287    1.1713   29.0083 C.ar    1  UNL1        0.0128
      4 C         -25.7702    2.0341   28.6884 C.ar    1  UNL1        0.0850
      5 C         -24.7141    1.4431   27.9188 C.ar    1  UNL1        0.1506
      6 C         -24.8590    0.0783   27.5836 C.ar    1  UNL1        0.0305
      7 C         -25.9647   -0.6606   27.9164 C.ar    1  UNL1        0.0024
      8 C         -29.2406   -0.2045   29.0738 C.ar    1  UNL1        0.0000
      9 C         -29.3139    1.0974   29.4077 C.ar    1  UNL1        0.0000
     10 C         -28.1415    1.8816   29.2593 C.ar    1  UNL1        0.0009
     11 F         -23.5750    2.0199   27.7255 F       1  UNL1       -0.2033
     12 CL        -25.5963    3.6628   29.1598 Cl      1  UNL1       -0.0799
     13 C         -30.5280    1.7460   29.9276 C.ar    1  UNL1        0.0000
     14 C         -31.4767    1.9216   29.1930 C.ar    1  UNL1        0.0000
     15 C         -32.6726    2.5211   29.6426 C.ar    1  UNL1        0.0000
     16 C         -30.2754    2.7431   30.8788 C.ar    1  UNL1        0.0000
     17 C         -31.3848    3.4138   31.4669 C.ar    1  UNL1        0.0000
     18 C         -32.5664    3.3452   30.7562 C.ar    1  UNL1        0.0000
@<TRIPOS>BOND
     1     5    11    1
     2     4    12    1
     3     9    13    1
     4     3     4   ar
     5     4     5   ar
     6     5     6   ar
     7     6     7   ar
     8     7     2   ar
     9     1     2   ar
    10     2     3   ar
    11     3    10   ar
    12    10     9   ar
    13     9     8   ar
    14     8     1   ar
    15    13    14   ar
    16    14    15   ar
    17    15    18   ar
    18    18    17   ar
    19    17    16   ar
    20    16    13   ar
