@<TRIPOS>MOLECULE
No_4368-gen_results/8p0m/2024-11-26-14-13-15/
 33 38 0 0 0
SMALL
GASTEIGER

@<TRIPOS>ATOM
      1 C         -28.0162   -0.8135   28.8779 C.ar    1  UNL1        0.0000
      2 C         -28.4690   -0.7850   29.8287 C.ar    1  UNL1       -0.0003
      3 C         -27.1356    0.2359   28.5352 C.ar    1  UNL1        0.0005
      4 C         -26.8745    1.2825   29.3982 C.ar    1  UNL1       -0.0042
      5 C         -28.3613    0.1987   30.9244 C.ar    1  UNL1       -0.0043
      6 C         -27.5277    1.2234   30.6356 C.ar    1  UNL1       -0.0222
      7 C         -26.3987    0.2949   27.2279 C.ar    1  UNL1        0.0106
      8 C         -26.9022    0.7280   26.2134 C.ar    1  UNL1        0.0576
      9 C         -26.1747    0.6364   24.9259 C.ar    1  UNL1        0.0114
     10 C         -25.0769   -0.2068   27.2393 C.ar    1  UNL1        0.0008
     11 C         -24.4662   -0.6746   28.5690 C.ar    1  UNL1        0.0000
     12 C         -24.8102    0.2419   24.9847 C.ar    1  UNL1        0.0009
     13 C         -24.2910   -0.1013   26.1508 C.ar    1  UNL1        0.0001
     14 C         -24.0778   -1.5859   29.1453 C.ar    1  UNL1        0.0000
     15 C         -23.4398   -1.6085   30.4007 C.ar    1  UNL1        0.0000
     16 C         -23.6699   -0.5468   31.2326 C.ar    1  UNL1        0.0000
     17 C         -24.4548    0.5897   29.6144 C.ar    1  UNL1        0.0000
     18 C         -23.9156    0.5738   30.7773 C.ar    1  UNL1        0.0000
     19 CL        -28.5685    1.2128   25.9793 Cl      1  UNL1       -0.0822
     20 C         -27.3641    2.3776   31.6190 C.3     1  UNL1        0.0273
     21 C         -28.3061    3.3002   31.7500 C.3     1  UNL1        0.0087
     22 C         -29.4393    3.3390   31.0086 C.3     1  UNL1        0.0007
     23 C         -30.4062    4.4075   31.1636 C.3     1  UNL1        0.0000
     24 C         -30.1185    5.3527   32.1028 C.3     1  UNL1        0.0003
     25 C         -29.0105    5.3619   32.8780 C.3     1  UNL1        0.0047
     26 C         -28.0516    4.3646   32.7316 C.3     1  UNL1        0.0261
     27 C         -26.1273    2.3167   32.4336 C.3     1  UNL1        0.0338
     28 C         -26.2385    1.9495   33.8789 C.2     1  UNL1        0.0148
     29 C         -25.4145    3.7576   32.4122 C.3     1  UNL1        0.0053
     30 C         -24.5614    3.9124   31.2790 C.3     1  UNL1        0.0004
     31 C         -26.4001    4.8970   32.5320 C.3     1  UNL1        0.0050
     32 C         -28.1467    3.6421   34.1914 C.2     1  UNL1        0.0142
     33 C         -27.3829    2.8554   34.5654 C.1     1  UNL1       -0.1099
@<TRIPOS>BOND
     1     3     7    1
     2    10    11    1
     3     8    19    1
     4     6    20    1
     5    21    22    1
     6    22    23    1
     7    24    25    1
     8    21    26    1
     9    25    26    1
    10    20    27    1
    11    27    28    1
    12    27    29    1
    13    29    30    1
    14    26    31    1
    15    29    31    1
    16    26    32    1
    17    28    33    2
    18    32    33    2
    19    23    24    1
    20    21    20    1
    21    11    14   ar
    22    14    15   ar
    23    15    16   ar
    24    16    18   ar
    25    18    17   ar
    26    17    11   ar
    27     7     8   ar
    28     8     9   ar
    29     9    12   ar
    30    12    13   ar
    31    13    10   ar
    32    10     7   ar
    33     1     2   ar
    34     2     5   ar
    35     5     6   ar
    36     6     4   ar
    37     4     3   ar
    38     3     1   ar
