@<TRIPOS>MOLECULE
No_437-gen_results/8p0m/2024-11-26-14-13-15/
 14 16 0 0 0
SMALL
GASTEIGER

@<TRIPOS>ATOM
      1 C         -28.0162   -0.8135   28.8779 C.ar    1  UNL1        0.0000
      2 C         -27.0636   -0.1189   28.6079 C.ar    1  UNL1        0.0000
      3 C         -26.8756    1.1325   28.9134 C.ar    1  UNL1        0.0000
      4 C         -27.9014    1.8066   29.6436 C.ar    1  UNL1        0.0000
      5 C         -29.0458   -0.2316   29.7181 C.ar    1  UNL1        0.0000
      6 C         -28.9402    1.0517   30.0597 C.ar    1  UNL1        0.0000
      7 C         -30.1632   -1.1170   30.1252 C.ar    1  UNL1        0.0000
      8 C         -30.6370   -0.9936   31.3591 C.ar    1  UNL1        0.0000
      9 C         -30.5023    0.3702   31.9290 C.ar    1  UNL1        0.0000
     10 C         -29.5689    1.2764   31.4508 C.ar    1  UNL1        0.0000
     11 C         -25.9407   -0.6887   27.6009 C.ar    1  UNL1        0.0000
     12 C         -25.0015    0.1985   27.0272 C.ar    1  UNL1        0.0000
     13 C         -24.9029    1.5041   27.4146 C.ar    1  UNL1        0.0000
     14 C         -25.7853    1.9941   28.2885 C.ar    1  UNL1        0.0000
@<TRIPOS>BOND
     1     3    14   ar
     2    14    13   ar
     3    13    12   ar
     4    12    11   ar
     5    11     2   ar
     6     1     2   ar
     7     2     3   ar
     8     3     4   ar
     9     4     6   ar
    10     5     1   ar
    11     5     6   ar
    12     6    10   ar
    13    10     9   ar
    14     9     8   ar
    15     8     7   ar
    16     7     5   ar
