@<TRIPOS>MOLECULE
No_4370-gen_results/8p0m/2024-11-26-14-13-15/
 7 7 0 0 0
SMALL
GASTEIGER

@<TRIPOS>ATOM
      1 C         -28.0162   -0.8135   28.8779 C.ar    1  UNL1        0.0067
      2 C         -27.0636   -0.1190   28.6079 C.ar    1  UNL1        0.0346
      3 C         -26.8756    1.1325   28.9134 C.ar    1  UNL1        0.0067
      4 C         -27.9014    1.8066   29.6436 C.ar    1  UNL1        0.0005
      5 C         -29.0458   -0.2316   29.7181 C.ar    1  UNL1        0.0005
      6 C         -28.9402    1.0517   30.0597 C.ar    1  UNL1        0.0000
      7 BR        -25.5888   -0.8931   27.5976 Br      1  UNL1       -0.0490
@<TRIPOS>BOND
     1     2     7    1
     2     1     2   ar
     3     2     3   ar
     4     3     4   ar
     5     4     6   ar
     6     6     5   ar
     7     5     1   ar
