@<TRIPOS>MOLECULE
No_4371-gen_results/8p0m/2024-11-26-14-13-15/
 26 28 0 0 0
SMALL
GASTEIGER

@<TRIPOS>ATOM
      1 C         -28.0162   -0.8135   28.8779 C.ar    1  UNL1        0.0046
      2 C         -27.0636   -0.1189   28.6079 C.ar    1  UNL1        0.0001
      3 C         -25.7923   -0.4302   29.0761 C.ar    1  UNL1        0.0000
      4 C         -24.5456    0.3494   28.8225 C.ar    1  UNL1        0.0000
      5 C         -24.6586    1.4196   27.8878 C.ar    1  UNL1        0.0000
      6 C         -23.5403    2.1791   27.5500 C.ar    1  UNL1        0.0000
      7 C         -22.2925    1.7428   28.0473 C.ar    1  UNL1        0.0000
      8 C         -22.1712    0.7079   28.9284 C.ar    1  UNL1        0.0000
      9 C         -23.3345   -0.0624   29.3081 C.ar    1  UNL1        0.0000
     10 C         -27.9466   -1.8823   29.8708 C.ar    1  UNL1        0.0551
     11 C         -26.7159   -2.3287   30.3060 C.ar    1  UNL1        0.0046
     12 C         -25.5921   -1.5643   29.9672 C.ar    1  UNL1        0.0001
     13 C         -29.1228   -2.6879   30.2451 C.2     1  UNL1        0.2651
     14 O         -29.0387   -3.8965   30.3107 O.2     1  UNL1       -0.2684
     15 N         -30.1014   -2.0451   30.9437 N.am    1  UNL1       -0.1968
     16 C         -31.2619   -2.8058   31.4487 C.3     1  UNL1        0.1418
     17 C         -32.3640   -2.3525   31.0743 C.ar    1  UNL1       -0.0006
     18 C         -32.9859   -2.4944   30.3001 C.ar    1  UNL1       -0.0026
     19 C         -33.7746   -2.1024   29.5999 C.ar    1  UNL1        0.0036
     20 C         -34.4943   -0.8960   30.1784 C.ar    1  UNL1        0.0714
     21 C         -34.0211   -0.4802   31.3420 C.ar    1  UNL1        0.0036
     22 C         -32.8818   -1.1085   31.8643 C.ar    1  UNL1       -0.0026
     23 C         -35.7094   -0.3177   29.5140 C.3     1  UNL1        0.4186
     24 F         -36.3765    0.4343   30.1757 F       1  UNL1       -0.1659
     25 F         -36.4831   -1.3413   29.0444 F       1  UNL1       -0.1659
     26 F         -35.2132    0.3435   28.4066 F       1  UNL1       -0.1659
@<TRIPOS>BOND
     1     3     4    1
     2    10    13    1
     3    13    14    2
     4    13    15   am
     5    15    16    1
     6    16    17    1
     7    20    23    1
     8    23    24    1
     9    23    25    1
    10    23    26    1
    11    17    18   ar
    12    18    19   ar
    13    19    20   ar
    14    20    21   ar
    15    21    22   ar
    16    22    17   ar
    17     1     2   ar
    18     2     3   ar
    19     3    12   ar
    20    12    11   ar
    21    11    10   ar
    22    10     1   ar
    23     4     5   ar
    24     5     6   ar
    25     6     7   ar
    26     7     8   ar
    27     8     9   ar
    28     9     4   ar
