@<TRIPOS>MOLECULE
No_4373-gen_results/8p0m/2024-11-26-14-13-15/
 11 11 0 0 0
SMALL
GASTEIGER

@<TRIPOS>ATOM
      1 C         -28.0162   -0.8135   28.8779 C.3     1  UNL1        0.4186
      2 C         -27.0636   -0.1189   28.6079 C.ar    1  UNL1        0.0714
      3 C         -27.0010    0.6913   27.4910 C.ar    1  UNL1        0.0035
      4 C         -25.8548    1.4825   27.0830 C.ar    1  UNL1       -0.0043
      5 C         -24.6901    1.4526   27.8807 C.ar    1  UNL1       -0.0219
      6 C         -24.7379    0.6010   29.0416 C.ar    1  UNL1       -0.0043
      7 C         -25.8234   -0.1688   29.3887 C.ar    1  UNL1        0.0035
      8 F         -28.6143   -0.4177   29.9932 F       1  UNL1       -0.1659
      9 F         -27.5957   -2.1241   29.1892 F       1  UNL1       -0.1659
     10 F         -29.0555   -0.6171   28.1516 F       1  UNL1       -0.1659
     11 C         -23.5329    2.2458   27.5982 C.3     1  UNL1        0.0310
@<TRIPOS>BOND
     1     1     2    1
     2     1     8    1
     3     1     9    1
     4     1    10    1
     5     5    11    1
     6     2     3   ar
     7     3     4   ar
     8     4     5   ar
     9     5     6   ar
    10     6     7   ar
    11     7     2   ar
