@<TRIPOS>MOLECULE
No_4375-gen_results/8p0m/2024-11-26-14-13-15/
 35 39 0 0 0
SMALL
GASTEIGER

@<TRIPOS>ATOM
      1 C         -28.0162   -0.8135   28.8779 C.ar    1  UNL1        0.0340
      2 C         -27.0636   -0.1189   28.6079 C.ar    1  UNL1        0.0029
      3 C         -26.8756    1.1325   28.9134 C.ar    1  UNL1        0.0000
      4 C         -25.6883    1.9515   28.5672 C.ar    1  UNL1        0.0039
      5 C         -24.6394    1.2834   27.8753 C.ar    1  UNL1        0.0714
      6 C         -24.8181   -0.0802   27.6166 C.ar    1  UNL1        0.0039
      7 C         -25.9311   -0.7717   27.9696 C.ar    1  UNL1        0.0000
      8 C         -28.0898   -1.4945   30.2341 C.ar    1  UNL1        0.0030
      9 C         -29.2073   -2.2991   30.6512 C.ar    1  UNL1        0.0002
     10 C         -30.3614   -2.0537   30.0100 C.ar    1  UNL1        0.0031
     11 C         -30.4489   -1.1712   28.9719 C.ar    1  UNL1        0.0369
     12 C         -29.3379   -0.5404   28.4879 C.ar    1  UNL1        0.1383
     13 C         -23.4153    1.9561   27.5135 C.3     1  UNL1        0.4186
     14 F         -23.3161    2.9902   28.0618 F       1  UNL1       -0.1659
     15 F         -22.3398    1.0892   27.7793 F       1  UNL1       -0.1659
     16 F         -23.4083    2.1653   26.1894 F       1  UNL1       -0.1659
     17 O         -29.4368    0.2487   27.4179 O.3     1  UNL1       -0.4792
     18 C         -29.3349    1.4797   27.3338 C.3     1  UNL1        0.1664
     19 C         -28.9214    2.0207   26.1279 C.3     1  UNL1        0.0481
     20 C         -29.7782    2.3416   28.3696 C.3     1  UNL1        0.0436
     21 C         -29.7592    3.6970   28.2438 C.3     1  UNL1        0.0040
     22 C         -28.8611    3.4435   25.9748 C.3     1  UNL1        0.0223
     23 C         -29.3131    4.2829   27.0319 C.3     1  UNL1        0.0040
     24 C         -28.4125    1.2247   25.0628 C.3     1  UNL1        0.0301
     25 C         -28.6034    1.2864   23.9960 C.3     1  UNL1        0.0305
     26 C         -27.3720    0.2169   25.5430 C.2     1  UNL1       -0.0260
     27 C         -26.7498   -0.5467   24.5184 C.2     1  UNL1       -0.0049
     28 C         -29.6470    2.2650   23.5527 C.ar    1  UNL1       -0.0258
     29 C         -30.5505    2.0295   22.4805 C.ar    1  UNL1       -0.0046
     30 C         -31.8418    2.4915   22.7665 C.ar    1  UNL1       -0.0003
     31 C         -32.1502    3.5290   23.6722 C.ar    1  UNL1       -0.0003
     32 C         -31.1584    3.8192   24.6420 C.ar    1  UNL1       -0.0046
     33 C         -30.0267    3.1607   24.6210 C.ar    1  UNL1       -0.0266
     34 C         -29.2780    5.7587   26.8533 C.3     1  UNL1        0.0003
     35 C         -27.5835    3.9680   25.3266 C.3     1  UNL1        0.0045
@<TRIPOS>BOND
     1     5    13    1
     2    13    14    1
     3    13    15    1
     4    13    16    1
     5    12    17    1
     6    17    18    1
     7    18    20    1
     8    19    22    1
     9    21    23    1
    10    22    23    1
    11    19    24    1
    12    24    26    1
    13    26    27    2
    14    25    28    1
    15    22    33    1
    16    23    34    1
    17    22    35    1
    18     1     2    1
    19    19    18    1
    20    20    21    1
    21    24    25    1
    22     2     3   ar
    23     3     4   ar
    24     4     5   ar
    25     5     6   ar
    26     6     7   ar
    27     7     2   ar
    28    28    29   ar
    29    29    30   ar
    30    30    31   ar
    31    31    32   ar
    32    32    33   ar
    33    33    28   ar
    34     1     8   ar
    35     8     9   ar
    36     9    10   ar
    37    10    11   ar
    38    11    12   ar
    39    12     1   ar
