@<TRIPOS>MOLECULE
No_4376-gen_results/8p0m/2024-11-26-14-13-15/
 14 14 0 0 0
SMALL
GASTEIGER

@<TRIPOS>ATOM
      1 C         -28.0162   -0.8135   28.8779 C.3     1  UNL1        0.0851
      2 C         -27.0636   -0.1189   28.6079 C.ar    1  UNL1       -0.0149
      3 C         -27.0010    0.6913   27.4910 C.ar    1  UNL1       -0.0037
      4 C         -25.8548    1.4825   27.0830 C.ar    1  UNL1        0.0043
      5 C         -24.6901    1.4526   27.8807 C.ar    1  UNL1        0.0566
      6 C         -24.7379    0.6010   29.0416 C.ar    1  UNL1        0.0043
      7 C         -25.8234   -0.1688   29.3887 C.ar    1  UNL1       -0.0037
      8 P         -28.2080   -1.5109   30.4528 P.3     1  UNL1        0.1216
      9 O         -28.8898   -2.7983   30.2830 O.2     1  UNL1       -0.4598
     10 O         -26.7999   -1.7011   30.9967 O.3     1  UNL1       -0.3569
     11 O         -28.9897   -0.5380   31.3027 O.3     1  UNL1       -0.3569
     12 C         -23.5530    2.2817   27.5752 C.2     1  UNL1        0.2842
     13 N         -22.5106    2.2214   28.3533 N.am    1  UNL1       -0.0837
     14 O         -23.5649    2.9828   26.5133 O.2     1  UNL1       -0.2667
@<TRIPOS>BOND
     1     1     2    1
     2     1     8    1
     3     8     9    2
     4     8    10    1
     5     8    11    1
     6     5    12    1
     7    12    13   am
     8    12    14    2
     9     2     3   ar
    10     3     4   ar
    11     4     5   ar
    12     5     6   ar
    13     6     7   ar
    14     7     2   ar
