@<TRIPOS>MOLECULE
No_4377-gen_results/8p0m/2024-11-26-14-13-15/
 28 30 0 0 0
SMALL
GASTEIGER

@<TRIPOS>ATOM
      1 C         -28.0162   -0.8135   28.8779 C.ar    1  UNL1        0.0077
      2 C         -27.0636   -0.1189   28.6079 C.ar    1  UNL1        0.0371
      3 C         -25.7647   -0.3897   29.0360 C.ar    1  UNL1        0.1394
      4 C         -25.5296   -1.5302   29.9014 C.ar    1  UNL1        0.0371
      5 C         -26.6888   -2.2893   30.1810 C.ar    1  UNL1        0.0077
      6 C         -27.8727   -1.9508   29.7373 C.ar    1  UNL1        0.0552
      7 O         -24.6590    0.3822   28.7692 O.3     1  UNL1       -0.4637
      8 C         -23.4062    0.0733   29.1011 C.3     1  UNL1        0.3186
      9 C         -22.3943    1.0175   28.7490 C.2     1  UNL1        0.4084
     10 O         -22.8227    2.2099   28.3798 O.co2   1  UNL1       -0.2415
     11 O         -21.1982    0.8763   28.9925 O.co2   1  UNL1       -0.2415
     12 C         -29.0404   -2.8070   30.1549 C.2     1  UNL1        0.2650
     13 N         -30.2085   -2.2882   30.2304 N.am    1  UNL1       -0.1986
     14 O         -28.8972   -4.1027   30.1140 O.2     1  UNL1       -0.2684
     15 C         -31.3770   -3.1057   30.5553 C.3     1  UNL1        0.1221
     16 C         -32.2363   -3.2698   29.4984 C.ar    1  UNL1       -0.0022
     17 C         -32.4638   -2.2155   28.6638 C.ar    1  UNL1       -0.0026
     18 C         -33.1499   -2.3172   27.4783 C.ar    1  UNL1       -0.0003
     19 C         -33.6666   -3.6232   27.1355 C.ar    1  UNL1       -0.0000
     20 C         -33.4417   -4.7023   27.9535 C.ar    1  UNL1       -0.0003
     21 C         -32.6620   -4.5216   29.0868 C.ar    1  UNL1       -0.0026
     22 C         -31.5448   -3.4443   31.8556 C.3     1  UNL1        0.0525
     23 C         -32.1851   -3.2140   32.6154 C.ar    1  UNL1       -0.0201
     24 C         -33.1804   -2.0187   32.4866 C.ar    1  UNL1       -0.0042
     25 C         -34.0728   -1.6410   33.5343 C.ar    1  UNL1       -0.0003
     26 C         -33.9955   -2.4603   34.6661 C.ar    1  UNL1       -0.0000
     27 C         -33.1867   -3.4912   34.8644 C.ar    1  UNL1       -0.0003
     28 C         -32.2920   -3.8717   33.8703 C.ar    1  UNL1       -0.0042
@<TRIPOS>BOND
     1     3     7    1
     2     7     8    1
     3     8     9    1
     4     9    10   ar
     5     9    11   ar
     6     6    12    1
     7    12    13   am
     8    12    14    2
     9    13    15    1
    10    15    16    1
    11    15    22    1
    12    22    23    1
    13     1     2   ar
    14     2     3   ar
    15     3     4   ar
    16     4     5   ar
    17     5     6   ar
    18     6     1   ar
    19    23    24   ar
    20    24    25   ar
    21    25    26   ar
    22    26    27   ar
    23    27    28   ar
    24    28    23   ar
    25    16    17   ar
    26    17    18   ar
    27    18    19   ar
    28    19    20   ar
    29    20    21   ar
    30    21    16   ar
