@<TRIPOS>MOLECULE
No_4378-gen_results/8p0m/2024-11-26-14-13-15/
 12 13 0 0 0
SMALL
GASTEIGER

@<TRIPOS>ATOM
      1 C         -28.0162   -0.8135   28.8779 C.ar    1  UNL1       -0.0041
      2 C         -27.0636   -0.1190   28.6079 C.ar    1  UNL1       -0.0003
      3 C         -27.0010    0.6913   27.4910 C.ar    1  UNL1        0.0001
      4 C         -28.1373    0.7363   26.6350 C.ar    1  UNL1        0.0042
      5 C         -29.2360    0.0765   27.0690 C.ar    1  UNL1        0.0497
      6 C         -29.2177   -0.6429   28.1747 C.ar    1  UNL1       -0.0161
      7 C         -30.4152    0.1590   26.1820 C.2     1  UNL1        0.2488
      8 N         -31.3727   -0.5052   26.4854 N.am    1  UNL1       -0.2740
      9 O         -30.2154    0.5174   24.9703 O.2     1  UNL1       -0.2699
     10 C         -31.6893   -1.0458   27.7694 C.3     1  UNL1        0.0984
     11 C         -30.5056   -1.2718   28.5496 C.3     1  UNL1        0.0480
     12 C         -32.7342   -0.5036   25.7271 C.3     1  UNL1        0.1152
@<TRIPOS>BOND
     1     5     7    1
     2     7     8   am
     3     7     9    2
     4     8    10    1
     5     6    11    1
     6     8    12    1
     7    11    10    1
     8     1     2   ar
     9     2     3   ar
    10     3     4   ar
    11     4     5   ar
    12     5     6   ar
    13     6     1   ar
