@<TRIPOS>MOLECULE
No_4379-gen_results/8p0m/2024-11-26-14-13-15/
 35 38 0 0 0
SMALL
GASTEIGER

@<TRIPOS>ATOM
      1 O         -28.1229   -1.3353   28.4874 O.2     1  UNL1       -0.2698
      2 C         -27.4806   -0.4044   28.7094 C.2     1  UNL1        0.2507
      3 C         -26.3804   -0.0867   27.9394 C.ar    1  UNL1        0.0497
      4 N         -27.6664    0.4468   29.8988 N.am    1  UNL1       -0.2465
      5 C         -26.4086    0.8567   26.8802 C.ar    1  UNL1        0.0041
      6 C         -25.0824   -0.6970   28.1699 C.ar    1  UNL1       -0.0175
      7 C         -25.2842    1.0488   26.0470 C.ar    1  UNL1        0.0001
      8 C         -24.9046   -1.5806   29.3141 C.3     1  UNL1        0.0312
      9 C         -23.9863    0.7575   26.4120 C.ar    1  UNL1       -0.0003
     10 C         -23.8882   -0.1885   27.4877 C.ar    1  UNL1       -0.0041
     11 C         -28.7859    0.1486   30.7809 C.3     1  UNL1        0.2432
     12 C         -26.8377    1.5368   30.2112 C.3     1  UNL1        0.1225
     13 C         -27.4202    2.7255   30.1158 C.ar    1  UNL1       -0.0040
     14 C         -27.0548    3.6331   30.3244 C.ar    1  UNL1       -0.0028
     15 C         -27.7139    5.0302   30.1986 C.ar    1  UNL1       -0.0003
     16 C         -29.0000    4.9801   29.7621 C.ar    1  UNL1       -0.0003
     17 C         -29.5459    3.7557   29.4420 C.ar    1  UNL1       -0.0022
     18 C         -28.8029    2.6541   29.5990 C.ar    1  UNL1        0.0023
     19 C         -27.7164    1.3882   26.4450 C.2     1  UNL1        0.0001
     20 C         -27.7765    2.4991   25.8315 C.2     1  UNL1        0.0000
     21 C         -29.0256    3.0842   25.4180 C.ar    1  UNL1        0.0000
     22 C         -29.9123    2.4615   24.6755 C.ar    1  UNL1        0.0000
     23 C         -31.1754    3.0715   24.3081 C.ar    1  UNL1        0.0000
     24 C         -31.5035    4.2983   24.8846 C.ar    1  UNL1        0.0000
     25 C         -30.6114    4.9646   25.7514 C.ar    1  UNL1        0.0000
     26 C         -29.3806    4.4243   26.0588 C.ar    1  UNL1        0.0000
     27 C         -29.6195    1.4211   29.5045 C.3     1  UNL1        0.1395
     28 C         -30.9985    1.3731   29.9842 C.3     1  UNL1        0.0389
     29 O         -29.2265    0.3569   29.1849 O.3     1  UNL1       -0.3323
     30 C         -31.9045    0.6632   29.4709 C.3     1  UNL1        0.0289
     31 C         -31.7610    0.0956   28.3374 C.2     1  UNL1       -0.0261
     32 C         -31.7591    0.7289   27.2266 C.2     1  UNL1       -0.0049
     33 C         -31.7130    0.2582   25.8411 C.2     1  UNL1       -0.0049
     34 C         -31.5877   -1.0996   25.7639 C.2     1  UNL1       -0.0258
     35 C         -31.6578   -1.9064   26.9398 C.3     1  UNL1        0.0307
@<TRIPOS>BOND
     1     1     2    2
     2     2     3    1
     3     2     4   am
     4     6     8    1
     5     4    11    1
     6     4    12    1
     7    12    13    1
     8     5    19    1
     9    19    20    2
    10    20    21    1
    11    18    27    1
    12    27    28    1
    13    11    29    1
    14    27    29    1
    15    28    30    1
    16    30    31    1
    17    31    32    2
    18    32    33    1
    19    33    34    2
    20    34    35    1
    21    13    14   ar
    22    14    15   ar
    23    15    16   ar
    24    16    17   ar
    25    17    18   ar
    26    18    13   ar
    27     3     5   ar
    28     5     7   ar
    29     7     9   ar
    30     9    10   ar
    31    10     6   ar
    32     6     3   ar
    33    21    22   ar
    34    22    23   ar
    35    23    24   ar
    36    24    25   ar
    37    25    26   ar
    38    26    21   ar
