@<TRIPOS>MOLECULE
No_4380-gen_results/8p0m/2024-11-26-14-13-15/
 15 16 0 0 0
SMALL
GASTEIGER

@<TRIPOS>ATOM
      1 C         -28.0162   -0.8135   28.8779 C.3     1  UNL1        0.0157
      2 C         -28.4690   -0.7850   29.8287 C.3     1  UNL1        0.0013
      3 C         -28.1960    0.3478   28.0550 C.3     1  UNL1        0.0593
      4 C         -27.4421    0.5100   26.7946 C.3     1  UNL1        0.0236
      5 C         -26.1689   -0.0794   26.6787 C.3     1  UNL1        0.0808
      6 C         -25.7312   -0.9607   27.6875 C.3     1  UNL1        0.0254
      7 C         -26.5043   -1.2222   28.7582 C.3     1  UNL1        0.0815
      8 C         -29.5802   -0.2435   30.2170 C.3     1  UNL1        0.0078
      9 C         -30.0568    0.7240   29.3104 C.3     1  UNL1        0.0645
     10 C         -29.3596    1.0530   28.1223 C.2     1  UNL1        0.1503
     11 O         -29.7670    1.9340   27.2882 O.2     1  UNL1       -0.2961
     12 C         -25.9587   -2.2771   29.7070 C.2     1  UNL1        0.2603
     13 O         -26.6892   -3.1074   30.1098 O.2     1  UNL1       -0.2717
     14 N         -24.7576   -2.0440   30.2450 N.am    1  UNL1       -0.0878
     15 CL        -25.1642    0.2430   25.3842 Cl      1  UNL1       -0.1150
@<TRIPOS>BOND
     1     1     3    1
     2     3     4    1
     3     4     5    1
     4     5     6    1
     5     1     7    1
     6     6     7    1
     7     2     8    1
     8     3    10    1
     9     9    10    1
    10    10    11    2
    11     7    12    1
    12    12    13    2
    13    12    14   am
    14     5    15    1
    15     1     2    1
    16     8     9    1
