@<TRIPOS>MOLECULE
No_4381-gen_results/8p0m/2024-11-26-14-13-15/
 20 21 0 0 0
SMALL
GASTEIGER

@<TRIPOS>ATOM
      1 C         -28.0162   -0.8135   28.8779 C.ar    1  UNL1        0.0039
      2 C         -27.0636   -0.1190   28.6079 C.ar    1  UNL1       -0.0001
      3 C         -25.7923   -0.4302   29.0761 C.ar    1  UNL1       -0.0000
      4 C         -25.5756   -1.5654   29.9363 C.ar    1  UNL1       -0.0001
      5 C         -26.7354   -2.3004   30.2173 C.ar    1  UNL1        0.0039
      6 C         -27.9184   -1.9537   29.7629 C.ar    1  UNL1        0.0714
      7 C         -27.1057    1.1023   27.7593 C.ar    1  UNL1       -0.0001
      8 C         -26.7157    2.2350   27.9945 C.ar    1  UNL1       -0.0000
      9 C         -26.6928    3.3459   27.0337 C.ar    1  UNL1       -0.0001
     10 C         -27.1962    3.0779   25.7437 C.ar    1  UNL1        0.0039
     11 C         -27.5814    0.8882   26.3714 C.ar    1  UNL1        0.0039
     12 C         -27.6131    1.8443   25.4645 C.ar    1  UNL1        0.0714
     13 C         -29.0617   -2.7801   30.2115 C.3     1  UNL1        0.4186
     14 F         -29.4077   -2.6709   31.1941 F       1  UNL1       -0.1659
     15 F         -28.6475   -3.8949   29.6143 F       1  UNL1       -0.1659
     16 F         -30.1340   -2.4945   29.3889 F       1  UNL1       -0.1659
     17 C         -28.1344    1.5848   24.1177 C.3     1  UNL1        0.4186
     18 F         -29.4338    1.2098   24.3575 F       1  UNL1       -0.1659
     19 F         -27.4579    0.5793   23.5765 F       1  UNL1       -0.1659
     20 F         -28.1527    2.5882   23.2638 F       1  UNL1       -0.1659
@<TRIPOS>BOND
     1     2     7    1
     2     6    13    1
     3    13    14    1
     4    13    15    1
     5    13    16    1
     6    12    17    1
     7    17    18    1
     8    17    19    1
     9    17    20    1
    10     7     8   ar
    11     8     9   ar
    12     9    10   ar
    13    10    12   ar
    14    12    11   ar
    15    11     7   ar
    16     1     2   ar
    17     2     3   ar
    18     3     4   ar
    19     4     5   ar
    20     5     6   ar
    21     6     1   ar
