@<TRIPOS>MOLECULE
No_4383-gen_results/8p0m/2024-11-26-14-13-15/
 28 32 0 0 0
SMALL
GASTEIGER

@<TRIPOS>ATOM
      1 C         -28.0162   -0.8135   28.8779 C.ar    1  UNL1        0.0066
      2 C         -27.0636   -0.1189   28.6079 C.ar    1  UNL1        0.0003
      3 C         -25.7923   -0.4302   29.0761 C.ar    1  UNL1        0.0014
      4 C         -24.5456    0.3494   28.8225 C.ar    1  UNL1        0.0182
      5 C         -24.6586    1.4196   27.8878 C.ar    1  UNL1        0.1043
      6 C         -23.5403    2.1791   27.5500 C.ar    1  UNL1        0.1541
      7 C         -22.2925    1.7429   28.0473 C.ar    1  UNL1        0.0383
      8 C         -22.1712    0.7080   28.9284 C.ar    1  UNL1        0.0032
      9 C         -23.3345   -0.0624   29.3081 C.ar    1  UNL1        0.0015
     10 C         -28.2429   -1.2271   30.0750 C.ar    1  UNL1        0.0798
     11 C         -27.0415   -1.6858   30.8121 C.ar    1  UNL1        0.0066
     12 C         -25.7870   -1.2054   30.3618 C.ar    1  UNL1        0.0003
     13 C         -29.4808   -1.9335   30.5416 C.2     1  UNL1        0.3878
     14 O         -29.9112   -1.5622   31.7150 O.co2   1  UNL1       -0.2406
     15 O         -29.9153   -2.9226   30.0218 O.co2   1  UNL1       -0.2406
     16 O         -23.6439    3.1724   26.6936 O.3     1  UNL1       -0.4693
     17 C         -24.4048    3.8869   26.3815 C.3     1  UNL1        0.2333
     18 C         -25.3771    4.3189   27.3996 C.ar    1  UNL1        0.0364
     19 C         -26.0387    5.4713   27.2896 C.ar    1  UNL1        0.0006
     20 C         -27.0977    5.7861   28.0805 C.ar    1  UNL1       -0.0001
     21 C         -27.4787    4.9169   29.1083 C.ar    1  UNL1        0.0012
     22 C         -26.8230    3.7088   29.2628 C.ar    1  UNL1        0.0151
     23 C         -25.7747    3.3921   28.3929 C.ar    1  UNL1        0.0700
     24 N         -25.2669    2.1724   28.4964 N.pl3   1  UNL1       -0.2096
     25 C         -27.2254    2.7927   30.3300 C.ar    1  UNL1        0.0013
     26 C         -28.6165    2.7058   30.7164 C.ar    1  UNL1        0.0000
     27 C         -29.5736    3.4588   30.1744 C.ar    1  UNL1        0.0000
     28 C         -29.0588    4.7268   29.4705 C.ar    1  UNL1        0.0000
@<TRIPOS>BOND
     1     3     4    1
     2    10    13    1
     3    13    14   ar
     4    13    15   ar
     5     6    16    1
     6    16    17    1
     7    17    18    1
     8     5    24    1
     9    24    23    1
    10    18    19   ar
    11    19    20   ar
    12    20    21   ar
    13    22    23   ar
    14    23    18   ar
    15    21    22   ar
    16    22    25   ar
    17    25    26   ar
    18    26    27   ar
    19    27    28   ar
    20    28    21   ar
    21     1     2   ar
    22     2     3   ar
    23     3    12   ar
    24    12    11   ar
    25    11    10   ar
    26    10     1   ar
    27     4     5   ar
    28     5     6   ar
    29     6     7   ar
    30     7     8   ar
    31     8     9   ar
    32     9     4   ar
