@<TRIPOS>MOLECULE
No_4385-gen_results/8p0m/2024-11-26-14-13-15/
 35 39 0 0 0
SMALL
GASTEIGER

@<TRIPOS>ATOM
      1 C         -28.0162   -0.8135   28.8779 C.ar    1  UNL1       -0.0003
      2 C         -28.4690   -0.7850   29.8287 C.ar    1  UNL1       -0.0000
      3 C         -27.0871    0.2903   28.6377 C.ar    1  UNL1       -0.0034
      4 C         -26.2516    0.4114   27.4223 C.ar    1  UNL1        0.0061
      5 C         -28.3913    0.1041   30.9805 C.ar    1  UNL1       -0.0003
      6 C         -27.5332    1.1666   30.7866 C.ar    1  UNL1       -0.0039
      7 C         -26.8281    1.2557   29.6454 C.ar    1  UNL1       -0.0178
      8 C         -24.9667    0.4106   27.5253 C.ar    1  UNL1        0.0002
      9 C         -24.1811    1.0731   26.4795 C.ar    1  UNL1        0.0000
     10 C         -24.7860    1.2411   25.2421 C.ar    1  UNL1        0.0002
     11 C         -26.8048    0.6490   26.1466 C.ar    1  UNL1        0.0798
     12 C         -26.1193    1.0534   25.1188 C.ar    1  UNL1        0.0066
     13 C         -28.2577    0.4014   25.9237 C.2     1  UNL1        0.3878
     14 O         -29.1014    0.7346   26.6930 O.co2   1  UNL1       -0.2406
     15 O         -28.5696   -0.1714   24.8744 O.co2   1  UNL1       -0.2406
     16 C         -25.9560    2.4060   29.4301 C.3     1  UNL1        0.0526
     17 C         -26.2308    3.5221   30.1948 C.ar    1  UNL1       -0.0178
     18 C         -26.6959    4.4345   29.7944 C.ar    1  UNL1       -0.0036
     19 C         -26.8790    5.7184   30.5522 C.ar    1  UNL1       -0.0003
     20 C         -26.3968    5.7535   31.8376 C.ar    1  UNL1       -0.0000
     21 C         -25.5758    3.5859   31.5659 C.ar    1  UNL1       -0.0039
     22 C         -25.6707    4.6883   32.3679 C.ar    1  UNL1       -0.0003
     23 C         -27.2765    4.5818   28.4267 C.ar    1  UNL1       -0.0003
     24 C         -28.4072    5.2257   28.2115 C.ar    1  UNL1       -0.0000
     25 C         -26.5115    4.0895   27.3430 C.ar    1  UNL1       -0.0000
     26 C         -29.0550    5.1220   26.9522 C.ar    1  UNL1       -0.0000
     27 C         -27.0630    4.1332   26.0166 C.ar    1  UNL1       -0.0000
     28 C         -28.3166    4.6399   25.8668 C.ar    1  UNL1       -0.0000
     29 C         -26.4483    7.0143   32.6776 C.ar    1  UNL1       -0.0003
     30 C         -27.3663    7.6589   32.7721 C.ar    1  UNL1       -0.0043
     31 C         -27.4160    8.9074   33.5790 C.ar    1  UNL1       -0.0218
     32 C         -25.0932    7.5095   32.9936 C.ar    1  UNL1       -0.0000
     33 C         -25.0735    8.6966   33.8360 C.ar    1  UNL1       -0.0003
     34 C         -26.1982    9.3866   34.0766 C.ar    1  UNL1       -0.0043
     35 C         -28.6981    9.6169   33.7797 C.3     1  UNL1        0.0310
@<TRIPOS>BOND
     1     3     4    1
     2    11    13    1
     3    13    14   ar
     4    13    15   ar
     5     7    16    1
     6    16    17    1
     7    18    23    1
     8    20    29    1
     9    31    35    1
    10    17    18   ar
    11    18    19   ar
    12    19    20   ar
    13    20    22   ar
    14    22    21   ar
    15    21    17   ar
    16     1     2   ar
    17     2     5   ar
    18     5     6   ar
    19     6     7   ar
    20     7     3   ar
    21     3     1   ar
    22    29    30   ar
    23    30    31   ar
    24    31    34   ar
    25    34    33   ar
    26    33    32   ar
    27    32    29   ar
    28    23    24   ar
    29    24    26   ar
    30    26    28   ar
    31    28    27   ar
    32    27    25   ar
    33    25    23   ar
    34     4     8   ar
    35     8     9   ar
    36     9    10   ar
    37    10    12   ar
    38    12    11   ar
    39    11     4   ar
