@<TRIPOS>MOLECULE
No_4386-gen_results/8p0m/2024-11-26-14-13-15/
 18 19 0 0 0
SMALL
GASTEIGER

@<TRIPOS>ATOM
      1 O         -28.1229   -1.3353   28.4874 O.2     1  UNL1       -0.2728
      2 C         -27.0637   -0.8242   28.8687 C.2     1  UNL1        0.2518
      3 C         -26.9592    0.0926   29.7582 C.3     1  UNL1        0.1811
      4 N         -25.8472   -1.5491   28.6589 N.am    1  UNL1       -0.2049
      5 C         -27.8673    0.9590   30.1109 C.2     1  UNL1        0.3731
      6 C         -24.5647   -1.1378   29.0392 C.3     1  UNL1        0.1169
      7 C         -24.4510   -0.0172   29.7492 C.3     1  UNL1        0.0444
      8 C         -25.5598    0.6710   30.1599 C.3     1  UNL1        0.0241
      9 O         -28.5828    1.5124   29.4485 O.co2   1  UNL1       -0.2451
     10 O         -28.2243    0.8452   31.5250 O.co2   1  UNL1       -0.2451
     11 C         -23.0656    0.4095   30.1446 C.3     1  UNL1        0.1139
     12 N         -22.2404    0.7750   29.4660 N.pl3   1  UNL1       -0.2375
     13 C         -22.4247    1.4711   28.3499 C.ar    1  UNL1        0.0653
     14 C         -23.6279    2.1072   28.0079 C.ar    1  UNL1        0.0161
     15 C         -24.0419    2.2940   26.7304 C.ar    1  UNL1        0.0013
     16 C         -23.0250    2.0937   25.7594 C.ar    1  UNL1        0.0001
     17 C         -21.7932    1.8200   26.0830 C.ar    1  UNL1        0.0013
     18 C         -21.4592    1.3545   27.2951 C.ar    1  UNL1        0.0161
@<TRIPOS>BOND
     1     1     2    2
     2     2     3    1
     3     2     4   am
     4     3     5    1
     5     4     6    1
     6     3     8    1
     7     7     8    1
     8     5     9   ar
     9     5    10   ar
    10     7    11    1
    11    11    12    1
    12    12    13    1
    13     7     6    1
    14    13    14   ar
    15    14    15   ar
    16    15    16   ar
    17    16    17   ar
    18    17    18   ar
    19    18    13   ar
