@<TRIPOS>MOLECULE
No_4387-gen_results/8p0m/2024-11-26-14-13-15/
 14 14 0 0 0
SMALL
GASTEIGER

@<TRIPOS>ATOM
      1 C         -28.0162   -0.8135   28.8779 C.ar    1  UNL1       -0.0000
      2 C         -28.4690   -0.7850   29.8287 C.ar    1  UNL1       -0.0000
      3 C         -27.0871    0.2903   28.6377 C.ar    1  UNL1       -0.0003
      4 C         -26.8317    1.2487   29.5869 C.ar    1  UNL1       -0.0000
      5 C         -28.3914    0.0801   31.0065 C.ar    1  UNL1       -0.0000
      6 C         -27.4940    1.1521   30.7841 C.ar    1  UNL1       -0.0000
      7 C         -26.3172    0.3994   27.3653 C.2     1  UNL1       -0.0042
      8 C         -26.8815    0.9711   26.3721 C.2     1  UNL1       -0.0214
      9 C         -28.2026    1.4637   26.4214 C.3     1  UNL1        0.0520
     10 C         -28.8475    1.7009   27.4515 C.2     1  UNL1       -0.0214
     11 C         -29.9407    2.2689   27.5240 C.2     1  UNL1       -0.0046
     12 C         -30.7358    2.5571   28.7129 C.2     1  UNL1       -0.0049
     13 C         -31.9763    3.1003   28.7532 C.2     1  UNL1       -0.0258
     14 C         -32.5059    3.5076   27.5023 C.3     1  UNL1        0.0307
@<TRIPOS>BOND
     1     3     7    1
     2     7     8    2
     3     8     9    1
     4     9    10    1
     5    10    11    2
     6    11    12    1
     7    12    13    2
     8    13    14    1
     9     1     2   ar
    10     2     5   ar
    11     5     6   ar
    12     6     4   ar
    13     4     3   ar
    14     3     1   ar
