@<TRIPOS>MOLECULE
No_4389-gen_results/8p0m/2024-11-26-14-13-15/
 15 15 0 0 0
SMALL
GASTEIGER

@<TRIPOS>ATOM
      1 C         -28.0162   -0.8135   28.8779 C.3     1  UNL1        0.0506
      2 C         -27.0636   -0.1189   28.6079 C.ar    1  UNL1       -0.0205
      3 C         -26.9716    0.7139   27.5060 C.ar    1  UNL1       -0.0043
      4 C         -25.8205    1.4909   27.1160 C.ar    1  UNL1        0.0035
      5 C         -24.6562    1.4242   27.9180 C.ar    1  UNL1        0.0714
      6 C         -24.6847    0.5901   29.0659 C.ar    1  UNL1        0.0035
      7 C         -25.8099   -0.1266   29.3338 C.ar    1  UNL1       -0.0043
      8 C         -28.6943   -0.4734   30.1587 C.3     1  UNL1        0.1486
      9 CL        -28.5789    0.8148   30.8542 Cl      1  UNL1       -0.1062
     10 C         -29.5815   -1.5842   30.7626 C.2     1  UNL1        0.2236
     11 C         -23.4635    2.1972   27.5956 C.3     1  UNL1        0.4186
     12 F         -23.6775    3.3210   27.1705 F       1  UNL1       -0.1659
     13 F         -22.6310    2.3882   28.6697 F       1  UNL1       -0.1659
     14 F         -22.6551    1.5318   26.7220 F       1  UNL1       -0.1659
     15 O         -29.7248   -1.5928   31.9242 O.2     1  UNL1       -0.2869
@<TRIPOS>BOND
     1     1     8    1
     2     8     9    1
     3     8    10    1
     4     5    11    1
     5    11    12    1
     6    11    13    1
     7    11    14    1
     8    10    15    2
     9     1     2    1
    10     2     3   ar
    11     3     4   ar
    12     4     5   ar
    13     5     6   ar
    14     6     7   ar
    15     7     2   ar
