@<TRIPOS>MOLECULE
No_439-gen_results/8p0m/2024-11-26-14-13-15/
 30 35 0 0 0
SMALL
GASTEIGER

@<TRIPOS>ATOM
      1 C         -28.0162   -0.8135   28.8779 C.ar    1  UNL1        0.0039
      2 C         -28.4690   -0.7850   29.8287 C.ar    1  UNL1        0.0497
      3 C         -26.5455   -0.8762   28.8500 C.ar    1  UNL1       -0.0038
      4 C         -25.8041   -1.0324   30.0571 C.ar    1  UNL1       -0.0006
      5 C         -27.9437   -0.9869   31.2075 C.ar    1  UNL1       -0.0161
      6 C         -26.5825   -1.0386   31.2231 C.ar    1  UNL1       -0.0041
      7 C         -30.0606   -0.7371   29.9024 C.2     1  UNL1        0.2487
      8 O         -30.5524   -0.2769   29.0111 O.2     1  UNL1       -0.2699
      9 N         -30.7429   -1.2889   30.9939 N.am    1  UNL1       -0.2774
     10 C         -32.1712   -1.2600   30.9749 C.3     1  UNL1        0.0937
     11 C         -24.3688   -1.0881   30.0880 C.ar    1  UNL1       -0.0000
     12 C         -23.5808   -0.7799   29.0756 C.ar    1  UNL1       -0.0003
     13 C         -22.1319   -0.6858   29.1927 C.ar    1  UNL1       -0.0000
     14 C         -21.5243    0.4649   28.8594 C.ar    1  UNL1       -0.0000
     15 C         -22.1013    1.3790   27.9077 C.ar    1  UNL1       -0.0000
     16 C         -23.5220    1.2647   27.6913 C.ar    1  UNL1       -0.0003
     17 C         -24.2105    0.2887   28.2588 C.ar    1  UNL1       -0.0040
     18 C         -24.1555    2.2820   26.8502 C.ar    1  UNL1       -0.0000
     19 C         -23.7809    3.3463   26.6278 C.ar    1  UNL1       -0.0000
     20 C         -25.4501    1.7570   26.3273 C.ar    1  UNL1       -0.0000
     21 C         -26.4196    2.5978   25.9205 C.ar    1  UNL1       -0.0000
     22 C         -24.6668    4.3769   26.0059 C.ar    1  UNL1       -0.0000
     23 C         -25.9217    3.9421   25.5887 C.ar    1  UNL1        0.0000
     24 C         -32.7043   -2.0956   31.6940 C.3     1  UNL1        0.0216
     25 C         -32.0018   -2.8924   32.7071 C.3     1  UNL1        0.0035
     26 C         -30.5929   -2.8978   32.6666 C.3     1  UNL1        0.0202
     27 C         -29.9775   -2.2039   31.7629 C.3     1  UNL1        0.0800
     28 C         -28.5600   -2.0165   31.9171 C.3     1  UNL1        0.0463
     29 C         -25.6351   -0.2480   27.8003 C.ar    1  UNL1       -0.0218
     30 C         -25.4783   -1.2918   26.6807 C.3     1  UNL1        0.0310
@<TRIPOS>BOND
     1     2     7    1
     2     7     8    2
     3     7     9   am
     4     9    10    1
     5    16    18    1
     6    24    25    1
     7     9    27    1
     8    26    27    1
     9     5    28    1
    10    27    28    1
    11    29    30    1
    12    10    24    1
    13    25    26    1
    14    12    13   ar
    15    13    14   ar
    16    14    15   ar
    17    15    16   ar
    18    16    17   ar
    19     4    11   ar
    20    11    12   ar
    21    12    17   ar
    22    17    29   ar
    23    29     3   ar
    24    18    19   ar
    25    19    22   ar
    26    22    23   ar
    27    23    21   ar
    28    21    20   ar
    29    20    18   ar
    30     1     2   ar
    31     2     5   ar
    32     5     6   ar
    33     6     4   ar
    34     4     3   ar
    35     3     1   ar
