@<TRIPOS>MOLECULE
No_4390-gen_results/8p0m/2024-11-26-14-13-15/
 18 19 0 0 0
SMALL
GASTEIGER

@<TRIPOS>ATOM
      1 F         -28.0727   -1.2542   28.5316 F       1  UNL1       -0.1957
      2 C         -27.3591   -0.3792   28.7224 C.3     1  UNL1        0.3179
      3 C         -26.8100    0.1885   27.6513 C.3     1  UNL1        0.2307
      4 C         -27.9678    0.6937   29.6182 C.2     1  UNL1        0.0383
      5 F         -26.3101   -0.9058   29.5296 F       1  UNL1       -0.1957
      6 C         -27.4661    1.0098   26.7252 C.3     1  UNL1        0.0543
      7 C         -28.7831    1.6313   28.9248 C.2     1  UNL1       -0.0213
      8 C         -28.2696    2.0148   27.5339 C.3     1  UNL1        0.0301
      9 O         -25.5534   -0.2419   27.1349 O.3     1  UNL1       -0.4732
     10 C         -24.3958    0.3949   27.6051 C.ar    1  UNL1        0.1387
     11 C         -23.5532   -0.1197   28.6155 C.ar    1  UNL1        0.0369
     12 C         -22.3889    0.5337   29.0243 C.ar    1  UNL1        0.0031
     13 C         -21.9229    1.5874   28.2688 C.ar    1  UNL1        0.0002
     14 C         -23.9501    1.5387   26.9312 C.ar    1  UNL1        0.0369
     15 C         -22.7227    2.1269   27.2402 C.ar    1  UNL1        0.0031
     16 C         -28.9509    2.9052   29.7586 C.2     1  UNL1       -0.0090
     17 C         -29.9706    3.6105   29.4603 C.2     1  UNL1       -0.0261
     18 C         -30.9245    3.2627   28.5235 C.3     1  UNL1        0.0307
@<TRIPOS>BOND
     1     1     2    1
     2     2     3    1
     3     2     4    1
     4     2     5    1
     5     3     6    1
     6     4     7    2
     7     6     8    1
     8     7     8    1
     9     3     9    1
    10     9    10    1
    11     7    16    1
    12    16    17    2
    13    17    18    1
    14    10    11   ar
    15    11    12   ar
    16    12    13   ar
    17    13    15   ar
    18    15    14   ar
    19    14    10   ar
