@<TRIPOS>MOLECULE
No_4391-gen_results/8p0m/2024-11-26-14-13-15/
 13 14 0 0 0
SMALL
GASTEIGER

@<TRIPOS>ATOM
      1 C         -28.0162   -0.8135   28.8779 C.ar    1  UNL1        0.0000
      2 C         -27.0636   -0.1190   28.6079 C.ar    1  UNL1        0.0002
      3 C         -26.8756    1.1325   28.9134 C.ar    1  UNL1        0.0066
      4 C         -25.6883    1.9515   28.5672 C.ar    1  UNL1        0.0798
      5 C         -25.5093    3.3042   28.8859 C.2     1  UNL1        0.3878
      6 C         -28.0567   -1.9994   29.2937 C.ar    1  UNL1        0.0000
      7 C         -26.7327   -2.6916   29.5192 C.ar    1  UNL1        0.0000
      8 C         -25.5764   -2.0233   29.1553 C.ar    1  UNL1        0.0000
      9 C         -25.6892   -0.7599   28.8308 C.ar    1  UNL1        0.0000
     10 C         -24.4400    1.0745   28.8479 C.ar    1  UNL1        0.0066
     11 C         -24.4217   -0.2400   28.6779 C.ar    1  UNL1        0.0002
     12 O         -25.6346    3.8686   29.8881 O.co2   1  UNL1       -0.2406
     13 O         -25.0390    3.9703   27.7921 O.co2   1  UNL1       -0.2406
@<TRIPOS>BOND
     1     4     5    1
     2     5    12   ar
     3     5    13   ar
     4     2     3   ar
     5     3     4   ar
     6     4    10   ar
     7    10    11   ar
     8    11     9   ar
     9     1     2   ar
    10     2     9   ar
    11     9     8   ar
    12     8     7   ar
    13     7     6   ar
    14     6     1   ar
