@<TRIPOS>MOLECULE
No_4392-gen_results/8p0m/2024-11-26-14-13-15/
 35 39 0 0 0
SMALL
GASTEIGER

@<TRIPOS>ATOM
      1 C         -28.0162   -0.8135   28.8779 C.ar    1  UNL1        0.0483
      2 C         -27.0636   -0.1189   28.6079 C.ar    1  UNL1        0.0604
      3 C         -25.7647   -0.3897   29.0360 C.ar    1  UNL1        0.0072
      4 C         -25.5296   -1.5302   29.9014 C.ar    1  UNL1        0.0036
      5 C         -26.6577   -2.2915   30.2035 C.ar    1  UNL1        0.0370
      6 C         -27.8548   -1.9555   29.7630 C.ar    1  UNL1        0.1399
      7 C         -24.5441    0.4126   28.7379 C.2     1  UNL1       -0.0155
      8 C         -24.0952    1.3785   29.5751 C.2     1  UNL1        0.0160
      9 C         -22.9715    2.1448   29.2493 C.2     1  UNL1       -0.0030
     10 C         -22.4346    1.8958   27.9699 C.2     1  UNL1       -0.0214
     11 C         -23.6188    0.7764   27.6627 C.3     1  UNL1        0.0524
     12 C         -24.6903    1.5693   31.0162 C.ar    1  UNL1        0.1097
     13 N         -24.8258    0.7015   31.8729 N.ar    1  UNL1       -0.2284
     14 C         -25.1398    2.9267   31.2861 C.ar    1  UNL1        0.1574
     15 C         -25.5131    0.9316   33.0523 C.ar    1  UNL1        0.1318
     16 F         -24.8660    3.8401   30.4432 F       1  UNL1       -0.2026
     17 C         -25.3637    3.2196   32.5791 C.ar    1  UNL1        0.0300
     18 N         -25.7748   -0.0753   33.9440 N.pl3   1  UNL1       -0.2712
     19 C         -25.7524    2.2413   33.4640 C.ar    1  UNL1        0.0164
     20 CL        -27.2624    1.3194   27.5856 Cl      1  UNL1       -0.0822
     21 C         -26.9404   -0.2580   34.5769 C.ar    1  UNL1        0.0490
     22 C         -24.5903   -0.4237   34.7519 C.3     1  UNL1        0.1187
     23 C         -27.0655   -0.8806   35.6557 C.ar    1  UNL1        0.0146
     24 C         -27.4868   -0.4391   36.4721 C.ar    1  UNL1        0.0013
     25 C         -28.7362    0.4190   36.4531 C.ar    1  UNL1       -0.0002
     26 C         -28.9586    0.9822   35.1740 C.ar    1  UNL1       -0.0027
     27 C         -27.7416    1.0379   34.6407 C.ar    1  UNL1       -0.0040
     28 C         -27.2034    1.9840   33.4194 C.3     1  UNL1        0.0568
     29 O         -29.0518   -2.5278   30.1102 O.3     1  UNL1       -0.4710
     30 C         -30.1413   -1.9477   30.4669 C.3     1  UNL1        0.2278
     31 C         -30.9091   -2.5701   31.4280 C.2     1  UNL1       -0.0007
     32 C         -31.9589   -1.8939   31.9509 C.2     1  UNL1       -0.0049
     33 C         -30.7013   -3.9066   31.8276 C.3     1  UNL1        0.0301
     34 C         -32.2366   -0.5373   31.7234 C.2     1  UNL1       -0.0005
     35 C         -31.3910    0.0549   30.7446 C.2     1  UNL1       -0.0000
@<TRIPOS>BOND
     1     3     7    1
     2     7     8    2
     3     8     9    1
     4     9    10    2
     5     7    11    1
     6    10    11    1
     7     8    12    1
     8    14    16    1
     9    15    18    1
    10     2    20    1
    11    18    21    1
    12    18    22    1
    13    19    28    1
    14    27    28    1
    15     6    29    1
    16    29    30    1
    17    30    31    1
    18    31    32    2
    19    31    33    1
    20    32    34    1
    21    34    35    2
    22    21    23   ar
    23    23    24   ar
    24    24    25   ar
    25    25    26   ar
    26    26    27   ar
    27    27    21   ar
    28     1     2   ar
    29     2     3   ar
    30     3     4   ar
    31     4     5   ar
    32     5     6   ar
    33     6     1   ar
    34    12    13   ar
    35    13    15   ar
    36    15    19   ar
    37    19    17   ar
    38    17    14   ar
    39    14    12   ar
