@<TRIPOS>MOLECULE
No_4394-gen_results/8p0m/2024-11-26-14-13-15/
 17 18 0 0 0
SMALL
GASTEIGER

@<TRIPOS>ATOM
      1 C         -28.0162   -0.8135   28.8779 C.3     1  UNL1        0.0310
      2 C         -27.0636   -0.1190   28.6079 C.ar    1  UNL1       -0.0219
      3 C         -27.0010    0.6913   27.4910 C.ar    1  UNL1       -0.0046
      4 C         -25.7770    1.0214   26.9135 C.ar    1  UNL1       -0.0046
      5 C         -24.5088    0.7364   27.5686 C.ar    1  UNL1       -0.0222
      6 C         -24.5930   -0.0361   28.7390 C.ar    1  UNL1       -0.0046
      7 C         -25.8114   -0.4771   29.1584 C.ar    1  UNL1       -0.0046
      8 C         -28.6413   -0.4024   30.1937 C.3     1  UNL1        0.0310
      9 C         -29.6960   -1.1852   30.7378 C.ar    1  UNL1       -0.0218
     10 C         -23.2500    1.2821   27.0867 C.3     1  UNL1        0.0264
     11 C         -22.6605    2.3251   27.6525 C.3     1  UNL1        0.0047
     12 C         -22.0371    1.9126   28.6677 C.3     1  UNL1        0.0004
     13 C         -30.0058   -2.2342   30.0542 C.ar    1  UNL1       -0.0043
     14 C         -30.1897   -3.1772   30.6288 C.ar    1  UNL1       -0.0003
     15 C         -30.1272   -3.1750   31.9395 C.ar    1  UNL1       -0.0000
     16 C         -29.9141   -2.2006   32.8042 C.ar    1  UNL1       -0.0003
     17 C         -29.0587   -1.4210   32.0848 C.ar    1  UNL1       -0.0043
@<TRIPOS>BOND
     1     1     2    1
     2     1     8    1
     3     8     9    1
     4     5    10    1
     5    10    11    1
     6    11    12    1
     7     2     3   ar
     8     3     4   ar
     9     4     5   ar
    10     5     6   ar
    11     6     7   ar
    12     7     2   ar
    13     9    13   ar
    14    13    14   ar
    15    14    15   ar
    16    15    16   ar
    17    16    17   ar
    18    17     9   ar
