@<TRIPOS>MOLECULE
No_4395-gen_results/8p0m/2024-11-26-14-13-15/
 19 21 0 0 0
SMALL
GASTEIGER

@<TRIPOS>ATOM
      1 C         -28.0162   -0.8135   28.8779 C.ar    1  UNL1       -0.0000
      2 C         -28.4690   -0.7850   29.8287 C.ar    1  UNL1       -0.0000
      3 C         -28.1960    0.3478   28.0550 C.ar    1  UNL1       -0.0003
      4 C         -27.4421    0.5100   26.7947 C.ar    1  UNL1       -0.0000
      5 C         -27.8427    1.3330   25.8056 C.ar    1  UNL1       -0.0003
      6 C         -29.4956    0.1092   30.3452 C.ar    1  UNL1       -0.0000
      7 C         -29.7284    1.1870   29.5687 C.ar    1  UNL1       -0.0003
      8 C         -29.0420    1.3665   28.3718 C.ar    1  UNL1       -0.0040
      9 C         -25.9380    0.8282   27.0229 C.ar    1  UNL1        0.0000
     10 C         -25.1952   -0.0729   27.7019 C.ar    1  UNL1        0.0000
     11 C         -23.8457    0.1260   28.0352 C.ar    1  UNL1        0.0016
     12 C         -23.1940    1.2099   27.4793 C.ar    1  UNL1        0.0210
     13 C         -23.8807    2.0906   26.5999 C.ar    1  UNL1        0.0016
     14 C         -25.2917    1.8797   26.3899 C.ar    1  UNL1        0.0000
     15 C         -21.7736    1.5939   27.5747 C.2     1  UNL1        0.1221
     16 C         -28.5108    2.4468   26.0929 C.ar    1  UNL1       -0.0043
     17 C         -29.2293    2.4299   27.4109 C.ar    1  UNL1       -0.0218
     18 C         -30.2658    3.4641   27.6894 C.3     1  UNL1        0.0310
     19 N         -21.2498    1.4907   28.8011 N.2     1  UNL1       -0.1464
@<TRIPOS>BOND
     1     4     9    1
     2    12    15    1
     3    17    18    1
     4    15    19    2
     5     9    10   ar
     6    10    11   ar
     7    11    12   ar
     8    12    13   ar
     9    13    14   ar
    10    14     9   ar
    11     1     2   ar
    12     2     6   ar
    13     6     7   ar
    14     7     8   ar
    15     3     1   ar
    16     3     4   ar
    17     4     5   ar
    18     5    16   ar
    19    16    17   ar
    20    17     8   ar
    21     8     3   ar
