@<TRIPOS>MOLECULE
No_4396-gen_results/8p0m/2024-11-26-14-13-15/
 24 25 0 0 0
SMALL
GASTEIGER

@<TRIPOS>ATOM
      1 F         -28.0727   -1.2542   28.5316 F       1  UNL1       -0.2042
      2 C         -27.3591   -0.3792   28.7224 C.ar    1  UNL1        0.1401
      3 C         -27.7014    0.7608   29.1249 C.ar    1  UNL1        0.0296
      4 C         -25.8844   -0.6918   28.4374 C.ar    1  UNL1        0.0297
      5 C         -24.9212    0.3779   28.6013 C.ar    1  UNL1        0.0034
      6 C         -26.6914    1.8696   29.2705 C.ar    1  UNL1        0.0023
      7 C         -25.3451    1.6252   29.0013 C.ar    1  UNL1        0.0002
      8 C         -23.5124    0.1705   28.3599 C.ar    1  UNL1        0.0137
      9 C         -22.6774   -0.4281   29.3628 C.ar    1  UNL1        0.0012
     10 C         -21.3070   -0.5749   29.0704 C.ar    1  UNL1        0.0001
     11 C         -20.6523    0.3696   28.2855 C.ar    1  UNL1        0.0013
     12 C         -21.4473    1.2607   27.5027 C.ar    1  UNL1        0.0148
     13 C         -22.8718    1.2578   27.5947 C.ar    1  UNL1        0.0516
     14 N         -23.4071    2.2326   26.7747 N.pl3   1  UNL1       -0.2844
     15 C         -23.5792    2.1570   25.4820 C.3     1  UNL1        0.1173
     16 C         -23.8380    3.5077   27.3840 C.2     1  UNL1        0.0611
     17 C         -24.6161    4.3868   26.6048 C.2     1  UNL1       -0.0054
     18 C         -25.7388    4.5535   26.8482 C.3     1  UNL1        0.0533
     19 C         -26.7476    3.8404   26.8336 C.2     1  UNL1       -0.0214
     20 C         -27.8269    4.0210   26.4130 C.2     1  UNL1       -0.0042
     21 C         -28.9485    3.0108   26.2196 C.2     1  UNL1       -0.0003
     22 C         -30.2209    3.3809   26.1801 C.2     1  UNL1       -0.0000
     23 C         -30.5037    4.7909   25.9461 C.2     1  UNL1       -0.0000
     24 C         -29.5578    5.7317   26.0313 C.2     1  UNL1       -0.0000
@<TRIPOS>BOND
     1     1     2    1
     2     5     8    1
     3    13    14    1
     4    14    15    1
     5    14    16    1
     6    16    17    2
     7    17    18    1
     8    18    19    1
     9    19    20    2
    10    20    21    1
    11    21    22    2
    12    22    23    1
    13    23    24    2
    14     2     3   ar
    15     3     6   ar
    16     6     7   ar
    17     7     5   ar
    18     5     4   ar
    19     4     2   ar
    20     8     9   ar
    21     9    10   ar
    22    10    11   ar
    23    11    12   ar
    24    12    13   ar
    25    13     8   ar
