@<TRIPOS>MOLECULE
No_4397-gen_results/8p0m/2024-11-26-14-13-15/
 12 12 0 0 0
SMALL
GASTEIGER

@<TRIPOS>ATOM
      1 C         -28.0162   -0.8135   28.8779 C.ar    1  UNL1       -0.0003
      2 C         -27.0636   -0.1189   28.6079 C.ar    1  UNL1       -0.0039
      3 C         -26.9716    0.7139   27.5060 C.ar    1  UNL1       -0.0178
      4 C         -28.1053    0.7744   26.6421 C.ar    1  UNL1       -0.0039
      5 C         -29.2041    0.1179   27.0477 C.ar    1  UNL1       -0.0003
      6 C         -29.2127   -0.6088   28.1281 C.ar    1  UNL1       -0.0000
      7 C         -25.7106    1.4519   27.1380 C.3     1  UNL1        0.0520
      8 C         -25.2074    2.4128   27.9320 C.2     1  UNL1       -0.0256
      9 C         -25.5898    2.8790   29.0377 C.2     1  UNL1       -0.0257
     10 C         -25.9428    2.1086   29.9487 C.3     1  UNL1        0.0517
     11 C         -26.8082    2.6848   30.9376 C.2     1  UNL1       -0.0214
     12 C         -26.8871    4.0398   31.0919 C.2     1  UNL1       -0.0046
@<TRIPOS>BOND
     1     3     7    1
     2     7     8    1
     3     8     9    2
     4     9    10    1
     5    10    11    1
     6    11    12    2
     7     1     2   ar
     8     2     3   ar
     9     3     4   ar
    10     4     5   ar
    11     5     6   ar
    12     6     1   ar
