@<TRIPOS>MOLECULE
No_4398-gen_results/8p0m/2024-11-26-14-13-15/
 25 27 0 0 0
SMALL
GASTEIGER

@<TRIPOS>ATOM
      1 C         -28.0162   -0.8135   28.8779 C.ar    1  UNL1        0.0029
      2 C         -27.0636   -0.1189   28.6079 C.ar    1  UNL1       -0.0030
      3 C         -25.7923   -0.4302   29.0761 C.ar    1  UNL1       -0.0074
      4 C         -25.5681   -1.2411   29.7572 C.ar    1  UNL1       -0.0030
      5 C         -26.6114   -2.1840   30.2439 C.ar    1  UNL1        0.0027
      6 C         -27.8191   -1.9189   29.8034 C.ar    1  UNL1        0.0345
      7 C         -29.0160   -2.6622   30.2016 C.ar    1  UNL1        0.1454
      8 C         -30.1919   -1.9915   30.4060 C.ar    1  UNL1        0.0441
      9 C         -30.3549   -0.8280   29.5761 C.ar    1  UNL1        0.0828
     10 C         -29.3393   -0.2022   28.9953 C.ar    1  UNL1        0.0068
     11 O         -28.7450   -3.8227   30.8549 O.3     1  UNL1       -0.4535
     12 C         -29.8425   -4.6594   31.0221 C.ar    1  UNL1        0.1453
     13 C         -30.6800   -4.4373   31.9294 C.ar    1  UNL1        0.0375
     14 C         -31.8095   -5.3091   32.1273 C.ar    1  UNL1        0.0031
     15 C         -31.7543   -6.5366   31.4365 C.ar    1  UNL1        0.0002
     16 C         -30.7289   -6.8202   30.5499 C.ar    1  UNL1        0.0031
     17 C         -29.7511   -5.8738   30.3751 C.ar    1  UNL1        0.0375
     18 C         -31.7959   -0.3486   29.4218 C.2     1  UNL1        0.3879
     19 O         -32.3899    0.0127   30.2925 O.co2   1  UNL1       -0.2406
     20 O         -32.3304   -0.7852   28.2007 O.co2   1  UNL1       -0.2406
     21 C         -24.5943    0.4141   28.4443 C.3     1  UNL1        0.1020
     22 CL        -24.5743    1.0687   27.0299 Cl      1  UNL1       -0.1102
     23 C         -23.3440    0.4614   29.2459 C.3     1  UNL1        0.0192
     24 C         -22.6153   -0.6872   29.2362 C.3     1  UNL1        0.0016
     25 C         -22.5863    1.6477   28.9006 C.3     1  UNL1        0.0016
@<TRIPOS>BOND
     1     7    11    1
     2    11    12    1
     3     9    18    1
     4    18    19   ar
     5    18    20   ar
     6     3    21    1
     7    21    22    1
     8    21    23    1
     9    23    24    1
    10    23    25    1
    11    12    13   ar
    12    13    14   ar
    13    14    15   ar
    14    15    16   ar
    15    16    17   ar
    16    17    12   ar
    17     1     2   ar
    18     2     3   ar
    19     3     4   ar
    20     4     5   ar
    21     5     6   ar
    22     1     6   ar
    23     6     7   ar
    24     7     8   ar
    25     8     9   ar
    26     9    10   ar
    27    10     1   ar
