@<TRIPOS>MOLECULE
No_4399-gen_results/8p0m/2024-11-26-14-13-15/
 18 19 0 0 0
SMALL
GASTEIGER

@<TRIPOS>ATOM
      1 C         -28.0162   -0.8135   28.8779 C.ar    1  UNL1        0.0111
      2 C         -27.0636   -0.1190   28.6079 C.ar    1  UNL1       -0.0027
      3 C         -25.7647   -0.3897   29.0360 C.ar    1  UNL1       -0.0135
      4 C         -25.5296   -1.5302   29.9014 C.ar    1  UNL1       -0.0029
      5 C         -26.6577   -2.2915   30.2035 C.ar    1  UNL1        0.0111
      6 C         -27.8548   -1.9555   29.7630 C.ar    1  UNL1        0.0577
      7 C         -24.5441    0.4126   28.7379 C.3     1  UNL1        0.1048
      8 C         -24.0952    1.3785   29.5751 C.2     1  UNL1        0.2774
      9 N         -23.3679    2.0816   29.4623 N.2     1  UNL1       -0.1068
     10 O         -24.8287    1.4582   30.7791 O.2     1  UNL1       -0.2683
     11 CL        -29.2402   -2.9115   30.2227 Cl      1  UNL1       -0.0822
     12 C         -27.1982    1.0186   27.6485 C.ar    1  UNL1       -0.0003
     13 C         -27.6993    1.8881   27.8585 C.ar    1  UNL1       -0.0000
     14 C         -26.6370    0.6949   26.2625 C.ar    1  UNL1       -0.0000
     15 C         -27.9793    2.9890   26.9302 C.ar    1  UNL1       -0.0000
     16 C         -26.7855    1.6553   25.3362 C.ar    1  UNL1       -0.0000
     17 C         -27.4423    2.8583   25.6278 C.ar    1  UNL1       -0.0000
     18 C         -23.8163    0.1173   27.5713 C.3     1  UNL1        0.0147
@<TRIPOS>BOND
     1     3     7    1
     2     7     8    1
     3     8     9    2
     4     8    10    1
     5     6    11    1
     6     2    12    1
     7     7    18    1
     8     1     2   ar
     9     2     3   ar
    10     3     4   ar
    11     4     5   ar
    12     5     6   ar
    13     6     1   ar
    14    12    13   ar
    15    13    15   ar
    16    15    17   ar
    17    17    16   ar
    18    16    14   ar
    19    14    12   ar
