@<TRIPOS>MOLECULE
No_44-gen_results/8p0m/2024-11-26-14-13-15/
 33 36 0 0 0
SMALL
GASTEIGER

@<TRIPOS>ATOM
      1 C         -28.0162   -0.8135   28.8779 C.ar    1  UNL1        0.0023
      2 C         -27.0636   -0.1189   28.6079 C.ar    1  UNL1       -0.0220
      3 C         -26.8756    1.1325   28.9134 C.ar    1  UNL1       -0.0043
      4 C         -27.9014    1.8066   29.6436 C.ar    1  UNL1       -0.0004
      5 C         -29.0458   -0.2316   29.7181 C.ar    1  UNL1        0.0795
      6 C         -28.9402    1.0517   30.0597 C.ar    1  UNL1        0.0065
      7 C         -25.8732   -0.7125   27.8045 C.3     1  UNL1        0.0267
      8 C         -24.7599   -1.1987   28.6570 C.3     1  UNL1        0.0090
      9 C         -24.2774   -0.5180   29.6587 C.3     1  UNL1        0.0224
     10 C         -23.3485   -0.1468   30.0338 C.2     1  UNL1       -0.0439
     11 C         -23.0216    0.6279   31.2390 C.2     1  UNL1       -0.0090
     12 C         -24.1905    0.9760   32.0070 C.2     1  UNL1       -0.0068
     13 C         -25.4237    0.6507   31.5978 C.2     1  UNL1       -0.0173
     14 C         -25.5750   -0.0579   30.5290 C.3     1  UNL1        0.0243
     15 C         -26.4490   -1.2625   30.7669 C.3     1  UNL1        0.0044
     16 C         -30.1512   -1.1374   30.1945 C.2     1  UNL1        0.3877
     17 O         -29.8273   -2.0302   30.8550 O.co2   1  UNL1       -0.2406
     18 O         -31.2915   -1.0162   29.6020 O.co2   1  UNL1       -0.2406
     19 C         -22.0177   -0.3576   29.2101 C.3     1  UNL1        0.0264
     20 C         -26.5326    1.0315   32.5262 C.3     1  UNL1        0.1386
     21 C         -26.2802    1.1523   33.8928 C.3     1  UNL1        0.0596
     22 C         -25.7276   -2.1889   31.7930 C.3     1  UNL1        0.0003
     23 C         -27.0785    2.1085   34.5473 C.2     1  UNL1       -0.0249
     24 C         -27.9004    2.7930   33.8497 C.2     1  UNL1        0.0046
     25 C         -28.7901    3.6777   34.6059 C.2     1  UNL1       -0.0019
     26 C         -29.7764    4.4699   33.8890 C.2     1  UNL1       -0.0005
     27 C         -29.8421    4.2387   32.5156 C.2     1  UNL1       -0.0018
     28 C         -29.0148    3.4330   31.8479 C.2     1  UNL1        0.0073
     29 C         -28.0369    2.7050   32.5529 C.3     1  UNL1        0.1595
     30 O         -27.5210    1.5845   31.9505 O.3     1  UNL1       -0.3455
     31 C         -28.5443    2.9165   28.6334 C.2     1  UNL1       -0.0046
     32 C         -29.6956    2.8540   28.0254 C.2     1  UNL1       -0.0258
     33 C         -30.1072    3.8190   27.1787 C.3     1  UNL1        0.0307
@<TRIPOS>BOND
     1     1     2   ar
     2     2     3   ar
     3     3     4   ar
     4     1     5   ar
     5     4     6   ar
     6     5     6   ar
     7     2     7    1
     8     7     8    1
     9     8     9    1
    10     9    10    1
    11    10    11    2
    12    11    12    1
    13    12    13    2
    14     9    14    1
    15    13    14    1
    16    14    15    1
    17     5    16    1
    18    16    17   ar
    19    16    18   ar
    20    10    19    1
    21    13    20    1
    22    20    21    1
    23    15    22    1
    24    21    23    1
    25    23    24    2
    26    24    25    1
    27    25    26    2
    28    26    27    1
    29    27    28    2
    30    24    29    1
    31    28    29    1
    32    20    30    1
    33    29    30    1
    34     4    31    1
    35    31    32    2
    36    32    33    1
