@<TRIPOS>MOLECULE
No_440-gen_results/8p0m/2024-11-26-14-13-15/
 17 18 0 0 0
SMALL
GASTEIGER

@<TRIPOS>ATOM
      1 C         -28.0162   -0.8135   28.8779 C.ar    1  UNL1        0.0597
      2 C         -28.4690   -0.7850   29.8287 C.ar    1  UNL1        0.1421
      3 C         -27.0871    0.2903   28.6377 C.ar    1  UNL1        0.1482
      4 C         -26.8317    1.2487   29.5869 C.ar    1  UNL1        0.0585
      5 C         -28.3914    0.0801   31.0065 C.ar    1  UNL1        0.0263
      6 C         -27.4940    1.1521   30.7841 C.ar    1  UNL1       -0.0070
      7 F         -26.4060    0.3541   27.4873 F       1  UNL1       -0.2036
      8 BR        -25.6513    2.6460   29.2861 Br      1  UNL1       -0.0470
      9 F         -29.3727   -1.9354   30.1419 F       1  UNL1       -0.2041
     10 C         -27.3177    2.1725   31.8907 C.3     1  UNL1        0.0565
     11 C         -26.4340    2.5817   32.3694 C.ar    1  UNL1        0.0211
     12 C         -26.2748    3.6280   33.4121 C.ar    1  UNL1       -0.0008
     13 C         -25.1542    4.4520   33.6121 C.ar    1  UNL1       -0.0001
     14 C         -24.1192    4.3641   32.6215 C.ar    1  UNL1        0.0033
     15 C         -24.0953    3.3405   31.6959 C.ar    1  UNL1        0.0417
     16 C         -25.1528    2.6120   31.5099 C.ar    1  UNL1        0.1920
     17 O         -24.5692    1.3658   31.7815 O.3     1  UNL1       -0.2869
@<TRIPOS>BOND
     1     3     7    1
     2     4     8    1
     3     2     9    1
     4     6    10    1
     5    16    17    1
     6    10    11    1
     7    11    12   ar
     8    12    13   ar
     9    13    14   ar
    10    14    15   ar
    11    15    16   ar
    12    16    11   ar
    13     1     2   ar
    14     2     5   ar
    15     5     6   ar
    16     6     4   ar
    17     4     3   ar
    18     3     1   ar
