@<TRIPOS>MOLECULE
No_4400-gen_results/8p0m/2024-11-26-14-13-15/
 18 19 0 0 0
SMALL
GASTEIGER

@<TRIPOS>ATOM
      1 O         -28.1229   -1.3353   28.4874 O.2     1  UNL1       -0.2745
      2 C         -27.0637   -0.8242   28.8687 C.2     1  UNL1        0.2293
      3 C         -26.4017   -0.0623   28.6224 C.3     1  UNL1        0.0992
      4 N         -26.2652   -1.8674   29.7609 N.am    1  UNL1       -0.2772
      5 C         -25.0436    0.3924   29.0662 C.3     1  UNL1        0.0237
      6 C         -24.4726   -0.5445   29.9870 C.3     1  UNL1        0.1157
      7 C         -23.1066   -0.2962   30.5132 C.3     1  UNL1        0.3991
      8 C         -25.0979   -1.7219   30.3405 C.3     1  UNL1        0.1019
      9 C         -26.9046    1.0981   27.6524 C.ar    1  UNL1       -0.0139
     10 C         -27.0507    2.1102   27.7637 C.ar    1  UNL1       -0.0038
     11 C         -27.5031    3.1027   26.7178 C.ar    1  UNL1       -0.0003
     12 C         -27.8566    2.5707   25.4616 C.ar    1  UNL1       -0.0000
     13 C         -27.6247    1.2378   25.2517 C.ar    1  UNL1       -0.0003
     14 C         -27.1527    0.4253   26.2423 C.ar    1  UNL1       -0.0038
     15 F         -23.1205   -0.1418   31.7413 F       1  UNL1       -0.1700
     16 F         -22.6163    0.9328   30.0307 F       1  UNL1       -0.1700
     17 F         -22.2380   -1.2076   30.1342 F       1  UNL1       -0.1700
     18 C         -27.2796   -2.9309   30.1349 C.3     1  UNL1        0.1149
@<TRIPOS>BOND
     1     1     2    2
     2     2     3    1
     3     2     4   am
     4     5     6    1
     5     6     7    1
     6     4     8    1
     7     6     8    1
     8     3     9    1
     9     7    15    1
    10     7    16    1
    11     7    17    1
    12     4    18    1
    13     3     5    1
    14     9    10   ar
    15    10    11   ar
    16    11    12   ar
    17    12    13   ar
    18    13    14   ar
    19    14     9   ar
