@<TRIPOS>MOLECULE
No_4401-gen_results/8p0m/2024-11-26-14-13-15/
 14 15 0 0 0
SMALL
GASTEIGER

@<TRIPOS>ATOM
      1 C         -28.0162   -0.8135   28.8779 C.ar    1  UNL1       -0.0000
      2 C         -28.4690   -0.7850   29.8287 C.ar    1  UNL1        0.0000
      3 C         -26.5455   -0.8762   28.8500 C.ar    1  UNL1       -0.0000
      4 C         -25.8974   -0.8267   29.8894 C.ar    1  UNL1       -0.0000
      5 C         -26.4945   -0.7976   31.1740 C.ar    1  UNL1       -0.0000
      6 C         -27.8589   -0.7585   31.1651 C.ar    1  UNL1       -0.0000
      7 C         -24.3633   -0.8582   29.9307 C.ar    1  UNL1       -0.0003
      8 C         -23.7364   -1.5283   30.4583 C.ar    1  UNL1       -0.0000
      9 C         -23.7323    0.1937   29.0491 C.ar    1  UNL1       -0.0030
     10 C         -22.3284    0.2399   29.0010 C.ar    1  UNL1       -0.0059
     11 C         -22.2561   -1.5634   30.5656 C.ar    1  UNL1       -0.0003
     12 C         -21.6122   -0.6443   29.7215 C.ar    1  UNL1       -0.0030
     13 C         -21.7022    1.2606   28.1195 C.3     1  UNL1        0.1211
     14 CL        -22.5092    2.1197   26.9047 Cl      1  UNL1       -0.1085
@<TRIPOS>BOND
     1     4     7    1
     2    10    13    1
     3    13    14    1
     4     1     2   ar
     5     2     6   ar
     6     6     5   ar
     7     5     4   ar
     8     4     3   ar
     9     3     1   ar
    10     7     8   ar
    11     8    11   ar
    12    11    12   ar
    13    12    10   ar
    14    10     9   ar
    15     9     7   ar
