@<TRIPOS>MOLECULE
No_4402-gen_results/8p0m/2024-11-26-14-13-15/
 24 28 0 0 0
SMALL
GASTEIGER

@<TRIPOS>ATOM
      1 C         -28.0162   -0.8135   28.8779 C.ar    1  UNL1        0.0520
      2 C         -28.4690   -0.7850   29.8287 C.ar    1  UNL1        0.1465
      3 C         -26.5042   -0.7777   28.8766 C.ar    1  UNL1        0.0509
      4 C         -25.8103   -0.8531   30.1028 C.ar    1  UNL1       -0.0039
      5 C         -27.9906   -0.8916   31.2257 C.ar    1  UNL1        0.0373
      6 C         -26.6042   -0.8676   31.2652 C.ar    1  UNL1        0.0004
      7 O         -29.9385   -0.8194   29.8358 O.3     1  UNL1       -0.4535
      8 C         -30.5356   -0.1119   28.9448 C.ar    1  UNL1        0.1453
      9 C         -31.4501   -0.5434   28.1111 C.ar    1  UNL1        0.0375
     10 C         -32.0404    0.1645   27.0421 C.ar    1  UNL1        0.0031
     11 C         -31.6050    1.5042   26.9115 C.ar    1  UNL1        0.0002
     12 C         -30.6305    2.0115   27.7313 C.ar    1  UNL1        0.0031
     13 C         -30.0462    1.2281   28.7239 C.ar    1  UNL1        0.0375
     14 C         -24.3763   -0.8403   30.1385 C.3     1  UNL1        0.0551
     15 C         -23.6218   -0.6032   29.0639 C.ar    1  UNL1       -0.0044
     16 C         -22.4701    0.0212   29.0568 C.ar    1  UNL1       -0.0027
     17 C         -21.9858    0.8829   28.3578 C.ar    1  UNL1       -0.0006
     18 C         -22.8530    1.5256   27.3720 C.ar    1  UNL1       -0.0031
     19 C         -24.1291    1.0434   27.1743 C.ar    1  UNL1       -0.0088
     20 C         -24.5765    0.0771   28.0385 C.ar    1  UNL1        0.0438
     21 N         -25.8235   -0.3210   27.8335 N.pl3   1  UNL1       -0.2875
     22 C         -26.3501   -0.3583   26.5538 C.3     1  UNL1        0.0959
     23 C         -25.7170   -0.1717   25.4398 C.3     1  UNL1        0.0265
     24 C         -24.4913    0.8919   25.6931 C.3     1  UNL1        0.0294
@<TRIPOS>BOND
     1     2     7    1
     2     7     8    1
     3     4    14    1
     4     3    21    1
     5    20    21    1
     6    21    22    1
     7    19    24    1
     8    23    24    1
     9    14    15    1
    10    23    22    1
    11    15    16   ar
    12    16    17   ar
    13    17    18   ar
    14    18    19   ar
    15    19    20   ar
    16    20    15   ar
    17     1     2   ar
    18     2     5   ar
    19     5     6   ar
    20     6     4   ar
    21     4     3   ar
    22     3     1   ar
    23     8     9   ar
    24     9    10   ar
    25    10    11   ar
    26    11    12   ar
    27    12    13   ar
    28    13     8   ar
