@<TRIPOS>MOLECULE
No_4403-gen_results/8p0m/2024-11-26-14-13-15/
 25 26 0 0 0
SMALL
GASTEIGER

@<TRIPOS>ATOM
      1 C         -28.0162   -0.8135   28.8779 C.3     1  UNL1        0.1213
      2 C         -27.0636   -0.1189   28.6079 C.ar    1  UNL1        0.0080
      3 C         -25.7923   -0.4302   29.0761 C.ar    1  UNL1       -0.0054
      4 C         -24.5456    0.3494   28.8225 C.ar    1  UNL1       -0.0087
      5 C         -24.6586    1.4196   27.8878 C.ar    1  UNL1        0.0527
      6 C         -25.9471    1.6811   27.3792 C.ar    1  UNL1        0.0154
      7 C         -27.0439    0.9739   27.6871 C.ar    1  UNL1        0.0554
      8 N         -28.6567   -0.5529   30.0960 N.am    1  UNL1       -0.2668
      9 C         -29.5646   -0.5256   30.5354 C.2     1  UNL1        0.3213
     10 C         -30.7160   -0.6890   29.7092 C.3     1  UNL1        0.4697
     11 O         -29.9572   -0.2776   31.8044 O.2     1  UNL1       -0.2658
     12 C         -23.4581    2.1675   27.5881 C.2     1  UNL1        0.2687
     13 N         -22.5210    1.8381   27.1895 N.am    1  UNL1       -0.1745
     14 O         -23.7110    3.5073   27.5635 O.2     1  UNL1       -0.2680
     15 F         -31.2580   -1.6393   29.7477 F       1  UNL1       -0.1620
     16 F         -31.6165    0.3854   29.9501 F       1  UNL1       -0.1620
     17 F         -30.4065   -0.4434   28.4439 F       1  UNL1       -0.1620
     18 C         -23.2785   -0.0604   29.3796 C.3     1  UNL1        0.1125
     19 C         -21.5130    0.8956   27.9626 C.2     1  UNL1        0.0849
     20 C         -23.3419   -1.0202   30.4823 C.3     1  UNL1        0.3264
     21 C         -21.8709    0.4242   29.0822 C.2     1  UNL1        0.0015
     22 F         -22.6298   -0.6758   31.5231 F       1  UNL1       -0.1977
     23 F         -23.7681   -2.0921   30.3260 F       1  UNL1       -0.1977
     24 CL        -28.5357    1.4260   26.9654 Cl      1  UNL1       -0.0825
     25 C         -27.4917   -0.3661   31.1833 C.3     1  UNL1        0.1154
@<TRIPOS>BOND
     1     1     2    1
     2     1     8    1
     3     8     9   am
     4     9    10    1
     5     9    11    2
     6     5    12    1
     7    12    13   am
     8    12    14    2
     9    10    15    1
    10    10    16    1
    11    10    17    1
    12     4    18    1
    13    13    19    1
    14    18    20    1
    15    18    21    1
    16    19    21    2
    17    20    22    1
    18    20    23    1
    19     7    24    1
    20     8    25    1
    21     2     3   ar
    22     3     4   ar
    23     4     5   ar
    24     5     6   ar
    25     6     7   ar
    26     7     2   ar
