@<TRIPOS>MOLECULE
No_4405-gen_results/8p0m/2024-11-26-14-13-15/
 14 15 0 0 0
SMALL
GASTEIGER

@<TRIPOS>ATOM
      1 C         -28.0162   -0.8135   28.8779 C.ar    1  UNL1        0.0001
      2 C         -28.4690   -0.7850   29.8287 C.ar    1  UNL1        0.0000
      3 C         -27.1356    0.2359   28.5352 C.ar    1  UNL1        0.0022
      4 C         -26.8745    1.2825   29.3982 C.ar    1  UNL1        0.0277
      5 C         -27.5070    1.2380   30.6295 C.ar    1  UNL1        0.0022
      6 C         -28.3293    0.1745   30.9350 C.ar    1  UNL1        0.0001
      7 C         -26.4077    0.3070   27.2259 C.ar    1  UNL1        0.0004
      8 C         -25.7128    1.4905   26.9212 C.ar    1  UNL1        0.0089
      9 C         -25.4301    2.4538   27.8655 C.ar    1  UNL1        0.1071
     10 C         -26.0916    2.4163   29.0923 C.ar    1  UNL1        0.1464
     11 F         -25.8798    3.4053   29.9374 F       1  UNL1       -0.2040
     12 C         -24.5882    3.6498   27.4505 C.2     1  UNL1        0.3899
     13 O         -24.4844    4.5383   28.1772 O.co2   1  UNL1       -0.2405
     14 O         -24.2271    3.7465   26.1954 O.co2   1  UNL1       -0.2405
@<TRIPOS>BOND
     1    10    11    1
     2     9    12    1
     3    12    13   ar
     4    12    14   ar
     5     4    10   ar
     6    10     9   ar
     7     9     8   ar
     8     8     7   ar
     9     7     3   ar
    10     1     2   ar
    11     2     6   ar
    12     6     5   ar
    13     5     4   ar
    14     4     3   ar
    15     3     1   ar
