@<TRIPOS>MOLECULE
No_4406-gen_results/8p0m/2024-11-26-14-13-15/
 21 23 0 0 0
SMALL
GASTEIGER

@<TRIPOS>ATOM
      1 C         -28.0162   -0.8135   28.8779 C.ar    1  UNL1       -0.0039
      2 C         -28.4690   -0.7850   29.8287 C.ar    1  UNL1       -0.0003
      3 C         -28.1960    0.3478   28.0550 C.ar    1  UNL1       -0.0154
      4 C         -27.4421    0.5100   26.7946 C.3     1  UNL1        0.0814
      5 C         -26.4394    0.8329   26.6142 C.ar    1  UNL1       -0.0154
      6 C         -25.3816    0.5403   27.6600 C.ar    1  UNL1       -0.0039
      7 C         -24.0343    0.9634   27.4949 C.ar    1  UNL1       -0.0003
      8 C         -23.7167    1.6022   26.2745 C.ar    1  UNL1       -0.0000
      9 C         -24.5692    1.8225   25.2674 C.ar    1  UNL1       -0.0003
     10 C         -25.8455    1.3846   25.4477 C.ar    1  UNL1       -0.0039
     11 C         -29.4699    0.1197   30.3590 C.ar    1  UNL1       -0.0000
     12 C         -29.1015    1.3090   28.3834 C.ar    1  UNL1       -0.0039
     13 C         -29.7474    1.1998   29.5903 C.ar    1  UNL1       -0.0003
     14 C         -28.4475    0.4778   25.8266 C.3     1  UNL1        0.1912
     15 F         -28.0095   -0.0914   24.7554 F       1  UNL1       -0.2317
     16 C         -29.8120    0.8344   25.7858 C.ar    1  UNL1        0.0105
     17 C         -30.5287    0.1735   25.5023 C.ar    1  UNL1       -0.0016
     18 C         -31.8773    0.2925   25.5451 C.ar    1  UNL1       -0.0002
     19 C         -32.3496    1.5669   25.9680 C.ar    1  UNL1       -0.0000
     20 C         -31.4731    2.5402   26.2963 C.ar    1  UNL1       -0.0002
     21 C         -30.1032    2.2146   26.2697 C.ar    1  UNL1       -0.0016
@<TRIPOS>BOND
     1     3     4    1
     2     4    14    1
     3    14    15    1
     4    14    16    1
     5     4     5    1
     6     1     2   ar
     7     2    11   ar
     8    11    13   ar
     9    13    12   ar
    10    12     3   ar
    11     3     1   ar
    12     5     6   ar
    13     6     7   ar
    14     7     8   ar
    15     8     9   ar
    16     9    10   ar
    17    10     5   ar
    18    16    17   ar
    19    17    18   ar
    20    18    19   ar
    21    19    20   ar
    22    20    21   ar
    23    21    16   ar
