@<TRIPOS>MOLECULE
No_4407-gen_results/8p0m/2024-11-26-14-13-15/
 17 18 0 0 0
SMALL
GASTEIGER

@<TRIPOS>ATOM
      1 C         -28.0162   -0.8135   28.8779 C.ar    1  UNL1       -0.0039
      2 C         -28.4690   -0.7850   29.8287 C.ar    1  UNL1       -0.0003
      3 C         -27.1356    0.2359   28.5352 C.ar    1  UNL1       -0.0162
      4 C         -26.8745    1.2825   29.3982 C.ar    1  UNL1       -0.0039
      5 C         -28.3613    0.1987   30.9244 C.ar    1  UNL1       -0.0000
      6 C         -27.5277    1.2234   30.6356 C.ar    1  UNL1       -0.0003
      7 C         -26.3987    0.2949   27.2279 C.3     1  UNL1        0.0702
      8 C         -25.8882    1.5487   26.8334 C.3     1  UNL1        0.0110
      9 C         -24.9236    1.6099   26.0119 C.3     1  UNL1        0.0007
     10 C         -23.8385    0.8413   26.1742 C.3     1  UNL1        0.0000
     11 C         -23.9786   -0.2407   26.9874 C.3     1  UNL1        0.0007
     12 C         -25.0075   -0.5144   27.7012 C.3     1  UNL1        0.0110
     13 C         -27.0596   -0.2696   26.0780 C.2     1  UNL1        0.1536
     14 C         -26.7269    0.1225   24.8558 C.3     1  UNL1        0.0648
     15 C         -27.8411   -0.0452   23.9054 C.3     1  UNL1        0.0078
     16 C         -29.0850    0.2122   24.5086 C.3     1  UNL1        0.0005
     17 O         -28.2396   -0.7182   26.2645 O.2     1  UNL1       -0.2958
@<TRIPOS>BOND
     1     3     7    1
     2     7     8    1
     3     9    10    1
     4     7    12    1
     5    11    12    1
     6     7    13    1
     7    13    14    1
     8    14    15    1
     9    15    16    1
    10    13    17    2
    11     8     9    1
    12    10    11    1
    13     1     2   ar
    14     2     5   ar
    15     5     6   ar
    16     6     4   ar
    17     4     3   ar
    18     3     1   ar
