@<TRIPOS>MOLECULE
No_4410-gen_results/8p0m/2024-11-26-14-13-15/
 24 26 0 0 0
SMALL
GASTEIGER

@<TRIPOS>ATOM
      1 C         -28.0162   -0.8135   28.8779 C.ar    1  UNL1       -0.0007
      2 C         -27.0636   -0.1190   28.6079 C.ar    1  UNL1       -0.0002
      3 C         -25.7923   -0.4302   29.0761 C.ar    1  UNL1       -0.0000
      4 C         -24.5456    0.3494   28.8225 C.ar    1  UNL1        0.0000
      5 C         -23.2409    0.0217   29.3323 C.ar    1  UNL1        0.0000
      6 C         -23.1926   -1.2816   29.8967 C.ar    1  UNL1       -0.0000
      7 C         -27.8703   -1.9138   29.8642 C.ar    1  UNL1        0.0212
      8 C         -26.6310   -2.3256   30.2990 C.ar    1  UNL1       -0.0007
      9 C         -25.5115   -1.5728   29.9655 C.ar    1  UNL1       -0.0002
     10 C         -24.2167   -1.9673   30.3246 C.ar    1  UNL1       -0.0000
     11 C         -24.5912    1.5912   27.9920 C.ar    1  UNL1        0.0001
     12 C         -23.6429    1.7197   26.9963 C.ar    1  UNL1        0.0000
     13 C         -23.7354    2.8606   26.1435 C.ar    1  UNL1        0.0001
     14 C         -24.5079    2.8860   28.8328 C.ar    1  UNL1        0.0046
     15 C         -25.0289    4.0297   28.0752 C.ar    1  UNL1        0.0550
     16 C         -25.3487    5.2059   28.7844 C.2     1  UNL1        0.2648
     17 C         -24.5655    4.0464   26.6717 C.ar    1  UNL1        0.0046
     18 O         -25.7792    5.0966   29.8906 O.2     1  UNL1       -0.2684
     19 N         -25.5507    6.3583   28.0441 N.am    1  UNL1       -0.1998
     20 C         -25.9825    7.6218   28.6625 C.3     1  UNL1        0.1388
     21 C         -29.1131   -2.6931   30.2222 C.3     1  UNL1        0.2321
     22 O         -29.3536   -2.6921   31.5286 O.2     1  UNL1       -0.4676
     23 C         -30.6081   -2.3806   31.9125 C.2     1  UNL1        0.1728
     24 C         -31.3263   -3.3469   32.0245 C.2     1  UNL1        0.0433
@<TRIPOS>BOND
     1     4    11    1
     2    15    16    1
     3    16    18    2
     4    16    19   am
     5    19    20    1
     6     7    21    1
     7    21    22    1
     8    22    23    1
     9    23    24    2
    10    11    12   ar
    11    12    13   ar
    12    13    17   ar
    13    17    15   ar
    14    15    14   ar
    15    14    11   ar
    16     1     2   ar
    17     2     3   ar
    18     9     8   ar
    19     8     7   ar
    20     7     1   ar
    21     3     4   ar
    22     4     5   ar
    23     5     6   ar
    24     6    10   ar
    25    10     9   ar
    26     9     3   ar
