@<TRIPOS>MOLECULE
No_4411-gen_results/8p0m/2024-11-26-14-13-15/
 15 16 0 0 0
SMALL
GASTEIGER

@<TRIPOS>ATOM
      1 C         -28.0162   -0.8135   28.8779 C.ar    1  UNL1        0.0166
      2 C         -28.4690   -0.7850   29.8287 C.ar    1  UNL1        0.0737
      3 C         -26.5042   -0.7777   28.8766 C.ar    1  UNL1        0.0013
      4 C         -25.8103   -0.8531   30.1028 C.ar    1  UNL1        0.0001
      5 C         -27.9906   -0.8916   31.2257 C.ar    1  UNL1        0.0166
      6 C         -26.6042   -0.8676   31.2652 C.ar    1  UNL1        0.0013
      7 N         -29.9765   -0.8288   29.8497 N.am    1  UNL1       -0.1754
      8 C         -30.5795   -0.1232   28.9820 C.2     1  UNL1        0.2690
      9 O         -31.6492   -0.5564   28.5139 O.2     1  UNL1       -0.2680
     10 C         -30.1187    1.1939   28.4936 C.ar    1  UNL1        0.0554
     11 C         -30.1272    1.4408   27.3324 C.ar    1  UNL1        0.0046
     12 C         -29.5277    2.7306   26.8497 C.ar    1  UNL1        0.0001
     13 C         -28.8697    3.5363   27.7911 C.ar    1  UNL1        0.0000
     14 C         -29.3502    1.9163   29.4590 C.ar    1  UNL1        0.0046
     15 C         -28.8287    3.1652   29.0867 C.ar    1  UNL1        0.0001
@<TRIPOS>BOND
     1     2     7    1
     2     7     8   am
     3     8     9    2
     4     8    10    1
     5    10    11   ar
     6    11    12   ar
     7    12    13   ar
     8    13    15   ar
     9    15    14   ar
    10    14    10   ar
    11     1     2   ar
    12     2     5   ar
    13     5     6   ar
    14     6     4   ar
    15     4     3   ar
    16     3     1   ar
