@<TRIPOS>MOLECULE
No_4412-gen_results/8p0m/2024-11-26-14-13-15/
 18 19 0 0 0
SMALL
GASTEIGER

@<TRIPOS>ATOM
      1 C         -28.0162   -0.8135   28.8779 C.ar    1  UNL1        0.0123
      2 C         -27.0636   -0.1189   28.6079 C.ar    1  UNL1        0.0577
      3 C         -26.9287    1.1713   29.0083 C.ar    1  UNL1        0.0114
      4 C         -27.9560    1.7411   29.7840 C.ar    1  UNL1        0.0122
      5 C         -29.0569   -0.3271   29.7466 C.ar    1  UNL1        0.0123
      6 C         -28.9828    0.9722   30.1516 C.ar    1  UNL1        0.0577
      7 CL        -25.7000   -0.5793   27.5849 Cl      1  UNL1       -0.0822
      8 CL        -30.2558    1.3919   31.2414 Cl      1  UNL1       -0.0822
      9 C         -25.9050    2.2140   28.5942 C.ar    1  UNL1        0.0047
     10 C         -24.6997    2.1133   29.2248 C.ar    1  UNL1        0.0715
     11 C         -23.4364    2.3685   28.4802 C.ar    1  UNL1        0.0039
     12 C         -23.5655    2.6704   27.0900 C.ar    1  UNL1       -0.0001
     13 C         -24.8484    2.8149   26.5500 C.ar    1  UNL1       -0.0000
     14 C         -25.9749    2.6275   27.2274 C.ar    1  UNL1       -0.0000
     15 C         -24.5077    1.7508   30.6423 C.3     1  UNL1        0.4186
     16 F         -24.3474    2.7647   31.4578 F       1  UNL1       -0.1659
     17 F         -23.4273    0.9013   30.8299 F       1  UNL1       -0.1659
     18 F         -25.5771    1.1339   31.1314 F       1  UNL1       -0.1659
@<TRIPOS>BOND
     1     2     7    1
     2     6     8    1
     3     3     9    1
     4    10    15    1
     5    15    16    1
     6    15    17    1
     7    15    18    1
     8     1     2   ar
     9     2     3   ar
    10     3     4   ar
    11     4     6   ar
    12     6     5   ar
    13     5     1   ar
    14     9    10   ar
    15    10    11   ar
    16    11    12   ar
    17    12    13   ar
    18    13    14   ar
    19    14     9   ar
