@<TRIPOS>MOLECULE
No_4413-gen_results/8p0m/2024-11-26-14-13-15/
 22 23 0 0 0
SMALL
GASTEIGER

@<TRIPOS>ATOM
      1 C         -28.0162   -0.8135   28.8779 C.ar    1  UNL1        0.0556
      2 C         -28.4690   -0.7850   29.8287 C.2     1  UNL1        0.2690
      3 C         -28.1816    0.4277   28.1134 C.ar    1  UNL1        0.0077
      4 C         -27.4498    0.6435   26.8500 C.ar    1  UNL1        0.0376
      5 C         -26.1815    0.0357   26.7145 C.ar    1  UNL1        0.1454
      6 C         -25.7800   -0.9326   27.6938 C.ar    1  UNL1        0.0376
      7 C         -26.5568   -1.2134   28.7413 C.ar    1  UNL1        0.0077
      8 N         -28.3021   -1.9782   30.6613 N.am    1  UNL1       -0.1754
      9 O         -29.5330   -0.1613   30.2779 O.2     1  UNL1       -0.2680
     10 C         -28.9684   -2.6353   31.0233 C.ar    1  UNL1        0.0737
     11 O         -25.3587    0.3024   25.6682 O.3     1  UNL1       -0.4504
     12 C         -29.7908   -3.5448   30.1690 C.ar    1  UNL1        0.0166
     13 C         -30.5099   -4.6200   30.7980 C.ar    1  UNL1        0.0013
     14 C         -30.6241   -4.6988   32.2087 C.ar    1  UNL1        0.0001
     15 C         -29.9272   -3.8434   33.0095 C.ar    1  UNL1        0.0013
     16 C         -29.1201   -2.8740   32.5041 C.ar    1  UNL1        0.0166
     17 C         -24.4849    1.2847   25.7116 C.2     1  UNL1        0.1795
     18 C         -24.7246    2.4776   26.2577 C.2     1  UNL1        0.0407
     19 C         -24.1549    3.0343   27.0930 C.2     1  UNL1        0.0032
     20 C         -24.6905    4.2236   27.8483 C.2     1  UNL1        0.0001
     21 C         -25.8094    4.8515   27.2470 C.2     1  UNL1        0.0000
     22 C         -26.4491    4.2500   26.2175 C.2     1  UNL1        0.0000
@<TRIPOS>BOND
     1     1     2    1
     2     2     8   am
     3     2     9    2
     4     5    11    1
     5    11    17    1
     6    17    18    2
     7    18    19    1
     8    19    20    2
     9    20    21    1
    10    21    22    2
    11     8    10    1
    12    10    12   ar
    13    12    13   ar
    14    13    14   ar
    15    14    15   ar
    16    15    16   ar
    17    16    10   ar
    18     1     3   ar
    19     3     4   ar
    20     4     5   ar
    21     5     6   ar
    22     6     7   ar
    23     7     1   ar
