@<TRIPOS>MOLECULE
No_4414-gen_results/8p0m/2024-11-26-14-13-15/
 11 11 0 0 0
SMALL
GASTEIGER

@<TRIPOS>ATOM
      1 C         -28.0162   -0.8135   28.8779 C.3     1  UNL1        0.1386
      2 C         -27.0636   -0.1189   28.6079 C.ar    1  UNL1       -0.0006
      3 C         -26.9287    1.1713   29.0083 C.ar    1  UNL1       -0.0017
      4 C         -25.7702    2.0341   28.6884 C.ar    1  UNL1        0.0111
      5 C         -24.7141    1.4431   27.9188 C.ar    1  UNL1        0.0577
      6 C         -24.8590    0.0783   27.5836 C.ar    1  UNL1        0.0111
      7 C         -25.9647   -0.6606   27.9164 C.ar    1  UNL1       -0.0017
      8 N         -28.6995   -0.6441   30.0766 N.pl3   1  UNL1       -0.2315
      9 C         -29.8035   -1.3645   30.5061 C.2     1  UNL1        0.0805
     10 C         -30.3770   -1.0468   31.7411 C.2     1  UNL1        0.0188
     11 CL        -23.3498    2.3076   27.5108 Cl      1  UNL1       -0.0822
@<TRIPOS>BOND
     1     1     2    1
     2     1     8    1
     3     8     9    1
     4     9    10    2
     5     5    11    1
     6     2     3   ar
     7     3     4   ar
     8     4     5   ar
     9     5     6   ar
    10     6     7   ar
    11     7     2   ar
