@<TRIPOS>MOLECULE
No_4415-gen_results/8p0m/2024-11-26-14-13-15/
 20 22 0 0 0
SMALL
GASTEIGER

@<TRIPOS>ATOM
      1 C         -28.0162   -0.8135   28.8779 C.ar    1  UNL1        0.0106
      2 C         -28.4690   -0.7850   29.8287 C.ar    1  UNL1        0.0475
      3 C         -26.5042   -0.7777   28.8766 C.ar    1  UNL1       -0.0169
      4 C         -25.6540   -0.6597   27.7191 C.3     1  UNL1        0.0487
      5 C         -27.9180   -0.9374   31.1824 C.ar    1  UNL1        0.0145
      6 C         -26.5423   -0.9399   31.2606 C.ar    1  UNL1        0.0010
      7 C         -25.7832   -0.8935   30.1201 C.ar    1  UNL1       -0.0039
      8 C         -25.9259    0.2819   26.7445 C.2     1  UNL1       -0.0355
      9 C         -24.9904    0.6776   25.8676 C.2     1  UNL1       -0.0078
     10 C         -24.1885    1.6080   25.8479 C.2     1  UNL1       -0.0006
     11 C         -24.1204    2.5824   26.9652 C.2     1  UNL1       -0.0003
     12 C         -25.3103    3.1437   27.3184 C.2     1  UNL1       -0.0042
     13 C         -26.3989    2.2622   27.7436 C.2     1  UNL1       -0.0217
     14 C         -26.8552    1.2291   27.1369 C.3     1  UNL1        0.0483
     15 N         -29.9536   -0.7847   29.8945 N.pl3   1  UNL1       -0.3075
     16 C         -30.7069   -1.5975   30.3426 C.3     1  UNL1        0.0908
     17 C         -32.1077   -1.4357   30.1926 C.3     1  UNL1        0.0215
     18 C         -30.5382    0.3410   29.2264 C.3     1  UNL1        0.0908
     19 C         -31.8384    0.5335   29.0493 C.3     1  UNL1        0.0215
     20 C         -32.6587   -0.4124   29.5985 C.3     1  UNL1        0.0035
@<TRIPOS>BOND
     1     3     4    1
     2     4     8    1
     3     8     9    2
     4     9    10    1
     5    10    11    2
     6    11    12    1
     7    12    13    2
     8     8    14    1
     9    13    14    1
    10     2    15    1
    11    15    16    1
    12    15    18    1
    13    17    20    1
    14    19    20    1
    15    16    17    1
    16    19    18    1
    17     1     2   ar
    18     2     5   ar
    19     5     6   ar
    20     6     7   ar
    21     7     3   ar
    22     3     1   ar
