@<TRIPOS>MOLECULE
No_4416-gen_results/8p0m/2024-11-26-14-13-15/
 32 35 0 0 0
SMALL
GASTEIGER

@<TRIPOS>ATOM
      1 C         -28.0162   -0.8135   28.8779 C.ar    1  UNL1        0.1327
      2 C         -28.4690   -0.7850   29.8287 C.ar    1  UNL1        0.1511
      3 N         -26.6082   -0.9454   28.8569 N.ar    1  UNL1       -0.2433
      4 C         -26.1169   -1.1514   30.1215 C.ar    1  UNL1        0.0826
      5 N         -28.0962   -1.0255   31.1447 N.ar    1  UNL1       -0.2263
      6 C         -26.7736   -1.1693   31.2389 C.ar    1  UNL1        0.1153
      7 N         -29.9950   -0.6395   29.8051 N.pl3   1  UNL1       -0.2920
      8 C         -30.8248   -1.3044   30.4133 C.3     1  UNL1        0.0922
      9 C         -32.2011   -1.0553   30.1926 C.3     1  UNL1        0.0227
     10 C         -30.5162    0.2479   28.8620 C.3     1  UNL1        0.0922
     11 C         -31.7934    0.4691   28.6216 C.3     1  UNL1        0.0227
     12 C         -32.6853   -0.2452   29.3577 C.3     1  UNL1        0.0188
     13 C         -24.5390   -1.3311   30.1720 C.3     1  UNL1        0.0737
     14 C         -23.7721   -0.2665   29.6804 C.ar    1  UNL1       -0.0162
     15 C         -22.5007   -0.4241   29.1530 C.ar    1  UNL1       -0.0039
     16 C         -21.6929    0.6160   28.6911 C.ar    1  UNL1       -0.0003
     17 C         -22.2869    1.8007   28.2958 C.ar    1  UNL1       -0.0000
     18 C         -23.6106    2.0190   28.6431 C.ar    1  UNL1       -0.0003
     19 C         -24.3748    1.0241   29.3587 C.ar    1  UNL1       -0.0039
     20 C         -34.1407   -0.0688   29.1683 C.3     1  UNL1        0.0843
     21 CL        -34.7557    1.2637   28.5149 Cl      1  UNL1       -0.1147
     22 C         -35.0163   -1.1233   29.5421 C.3     1  UNL1        0.0426
     23 C         -35.7028   -0.9791   30.6538 C.ar    1  UNL1       -0.0210
     24 C         -36.6390   -2.0504   31.0374 C.ar    1  UNL1       -0.0043
     25 C         -37.4418   -1.9811   32.2015 C.ar    1  UNL1        0.0035
     26 C         -37.3005   -0.7803   32.9805 C.ar    1  UNL1        0.0714
     27 C         -36.4409    0.2278   32.6461 C.ar    1  UNL1        0.0035
     28 C         -35.6642    0.1398   31.5494 C.ar    1  UNL1       -0.0043
     29 C         -38.1820   -0.6983   34.1946 C.3     1  UNL1        0.4186
     30 F         -37.6597   -0.3994   35.2116 F       1  UNL1       -0.1659
     31 F         -39.1700    0.2432   33.8481 F       1  UNL1       -0.1659
     32 F         -38.8069   -1.9183   34.2927 F       1  UNL1       -0.1659
@<TRIPOS>BOND
     1     2     7    1
     2     7     8    1
     3     7    10    1
     4     9    12    1
     5    11    12    1
     6     4    13    1
     7    13    14    1
     8    12    20    1
     9    20    21    1
    10    20    22    1
    11    26    29    1
    12    29    30    1
    13    29    31    1
    14    29    32    1
    15    22    23    1
    16     8     9    1
    17    11    10    1
    18    14    15   ar
    19    15    16   ar
    20    16    17   ar
    21    17    18   ar
    22    18    19   ar
    23    19    14   ar
    24    23    24   ar
    25    24    25   ar
    26    25    26   ar
    27    26    27   ar
    28    27    28   ar
    29    28    23   ar
    30     1     2   ar
    31     2     5   ar
    32     5     6   ar
    33     6     4   ar
    34     4     3   ar
    35     3     1   ar
