@<TRIPOS>MOLECULE
No_4417-gen_results/8p0m/2024-11-26-14-13-15/
 22 24 0 0 0
SMALL
GASTEIGER

@<TRIPOS>ATOM
      1 C         -28.0162   -0.8135   28.8779 C.ar    1  UNL1        0.0362
      2 C         -28.4690   -0.7850   29.8287 C.ar    1  UNL1        0.0820
      3 C         -27.1356    0.2359   28.5352 C.ar    1  UNL1        0.1403
      4 C         -26.8050    1.0509   29.2763 C.ar    1  UNL1        0.0275
      5 C         -28.2372    0.1503   30.9300 C.ar    1  UNL1        0.0067
      6 C         -27.3522    1.1239   30.6071 C.ar    1  UNL1        0.0024
      7 F         -26.5569    0.1568   27.2643 F       1  UNL1       -0.2042
      8 C         -29.4647   -1.9339   30.3569 C.2     1  UNL1        0.3878
      9 O         -29.2647   -3.1339   30.3083 O.co2   1  UNL1       -0.2406
     10 O         -30.7838   -1.5751   30.5649 O.co2   1  UNL1       -0.2406
     11 C         -25.8173    2.2303   28.9324 C.ar    1  UNL1        0.0022
     12 C         -25.1144    2.3547   28.1245 C.ar    1  UNL1        0.0001
     13 C         -24.3190    3.5548   27.7084 C.ar    1  UNL1        0.0000
     14 C         -24.9508    4.3750   27.3142 C.ar    1  UNL1        0.0000
     15 C         -26.0294    4.9052   28.2114 C.ar    1  UNL1        0.0000
     16 C         -26.5019    3.7396   29.3120 C.ar    1  UNL1        0.0001
     17 C         -26.6027    6.1465   28.3584 C.ar    1  UNL1        0.0000
     18 C         -27.0465    6.6482   27.3577 C.ar    1  UNL1        0.0000
     19 C         -27.6800    8.0043   27.3402 C.ar    1  UNL1        0.0000
     20 C         -27.4820    6.3745   29.5098 C.ar    1  UNL1        0.0000
     21 C         -28.0253    7.7327   29.6777 C.ar    1  UNL1        0.0000
     22 C         -27.8837    8.5147   28.7447 C.ar    1  UNL1        0.0000
@<TRIPOS>BOND
     1     3     7    1
     2     2     8    1
     3     8     9   ar
     4     8    10   ar
     5     4    11    1
     6    15    17    1
     7    11    12   ar
     8    12    13   ar
     9    13    14   ar
    10    14    15   ar
    11    15    16   ar
    12    16    11   ar
    13    17    18   ar
    14    18    19   ar
    15    19    22   ar
    16    22    21   ar
    17    21    20   ar
    18    20    17   ar
    19     1     2   ar
    20     2     5   ar
    21     5     6   ar
    22     6     4   ar
    23     4     3   ar
    24     3     1   ar
