@<TRIPOS>MOLECULE
No_4418-gen_results/8p0m/2024-11-26-14-13-15/
 16 16 0 0 0
SMALL
GASTEIGER

@<TRIPOS>ATOM
      1 C         -28.0162   -0.8135   28.8779 C.2     1  UNL1        0.2528
      2 C         -27.0636   -0.1190   28.6079 C.ar    1  UNL1        0.0539
      3 C         -26.9287    1.1713   29.0083 C.ar    1  UNL1        0.0043
      4 C         -25.7702    2.0341   28.6884 C.ar    1  UNL1       -0.0000
      5 C         -24.7141    1.4431   27.9188 C.ar    1  UNL1        0.0281
      6 C         -24.8590    0.0783   27.5836 C.ar    1  UNL1       -0.0000
      7 C         -25.9647   -0.6606   27.9164 C.ar    1  UNL1        0.0043
      8 N         -29.1778   -0.3051   28.9638 N.am    1  UNL1       -0.2525
      9 C         -30.1765   -0.9070   29.7369 C.3     1  UNL1        0.1204
     10 C         -23.5156    2.1616   27.5794 C.3     1  UNL1        0.2736
     11 N         -22.3584    2.0907   28.0229 N.3     1  UNL1       -0.0898
     12 F         -23.6898    2.8872   26.4809 F       1  UNL1       -0.2112
     13 O         -27.8573   -1.8003   29.7148 O.2     1  UNL1       -0.2696
     14 C         -29.6612    0.1371   27.6699 C.2     1  UNL1        0.0632
     15 C         -29.3286    0.8916   26.9555 C.2     1  UNL1       -0.0096
     16 C         -29.8587    1.2929   25.6727 C.3     1  UNL1        0.0321
@<TRIPOS>BOND
     1     1     2    1
     2     1     8   am
     3     8     9    1
     4     5    10    1
     5    10    11    1
     6    10    12    1
     7     1    13    2
     8     8    14    1
     9    14    15    2
    10    15    16    1
    11     2     3   ar
    12     3     4   ar
    13     4     5   ar
    14     5     6   ar
    15     6     7   ar
    16     7     2   ar
