@<TRIPOS>MOLECULE
No_4419-gen_results/8p0m/2024-11-26-14-13-15/
 18 19 0 0 0
SMALL
GASTEIGER

@<TRIPOS>ATOM
      1 C         -28.0162   -0.8135   28.8779 C.ar    1  UNL1        0.0228
      2 C         -27.0636   -0.1189   28.6079 C.ar    1  UNL1        0.0585
      3 C         -26.9287    1.1713   29.0083 C.ar    1  UNL1        0.0114
      4 C         -27.9560    1.7411   29.7840 C.ar    1  UNL1        0.0017
      5 C         -29.0569   -0.3271   29.7466 C.ar    1  UNL1        0.0585
      6 C         -28.9828    0.9722   30.1516 C.ar    1  UNL1        0.0106
      7 CL        -25.7352   -0.7297   27.6631 Cl      1  UNL1       -0.0822
      8 C         -30.0810    1.5109   31.0108 C.ar    1  UNL1        0.0011
      9 C         -31.1301    1.7095   30.8945 C.ar    1  UNL1        0.0075
     10 C         -32.0707    2.2777   31.8475 C.ar    1  UNL1        0.0903
     11 C         -29.4780    1.8359   32.4146 C.ar    1  UNL1        0.0009
     12 C         -30.3068    2.3882   33.3794 C.ar    1  UNL1        0.0116
     13 C         -31.5943    2.6125   33.0865 C.ar    1  UNL1        0.0640
     14 CL        -32.6438    3.3016   34.2480 Cl      1  UNL1       -0.0820
     15 C         -33.4835    2.4735   31.4464 C.2     1  UNL1        0.3886
     16 O         -34.0337    1.8032   30.6868 O.co2   1  UNL1       -0.2405
     17 O         -34.1311    3.2984   32.1030 O.co2   1  UNL1       -0.2405
     18 CL        -30.3518   -1.3539   30.1653 Cl      1  UNL1       -0.0822
@<TRIPOS>BOND
     1     2     7    1
     2     6     8    1
     3    13    14    1
     4    10    15    1
     5    15    16   ar
     6    15    17   ar
     7     5    18    1
     8     8     9   ar
     9     9    10   ar
    10    10    13   ar
    11    13    12   ar
    12    12    11   ar
    13    11     8   ar
    14     1     2   ar
    15     2     3   ar
    16     3     4   ar
    17     4     6   ar
    18     6     5   ar
    19     5     1   ar
