@<TRIPOS>MOLECULE
No_442-gen_results/8p0m/2024-11-26-14-13-15/
 25 28 0 0 0
SMALL
GASTEIGER

@<TRIPOS>ATOM
      1 O         -28.1229   -1.3353   28.4874 O.2     1  UNL1       -0.2730
      2 C         -27.4806   -0.4044   28.7094 C.2     1  UNL1        0.2450
      3 N         -26.4599   -0.1104   28.0051 N.am    1  UNL1       -0.2062
      4 C         -25.4297    0.8788   28.3572 C.3     1  UNL1        0.1096
      5 C         -24.3600    1.0559   27.5650 C.3     1  UNL1        0.0659
      6 C         -27.7374    0.5007   29.9644 C.3     1  UNL1        0.1010
      7 C         -24.3412    1.6188   26.4311 C.3     1  UNL1        0.0057
      8 C         -23.1172    1.8808   25.6302 C.3     1  UNL1        0.0003
      9 C         -21.9235    1.8536   26.3939 C.3     1  UNL1        0.0041
     10 C         -21.8923    1.4272   27.7108 C.3     1  UNL1        0.0493
     11 C         -23.0562    1.1491   28.3359 C.3     1  UNL1        0.2080
     12 C         -25.6710    1.5334   29.6016 C.3     1  UNL1        0.1199
     13 C         -26.8040    1.3815   30.3989 C.3     1  UNL1        0.0264
     14 C         -24.6436    2.5521   30.0527 C.2     1  UNL1        0.3184
     15 O         -23.3145    2.2678   29.6354 O.3     1  UNL1       -0.4467
     16 C         -22.8036   -0.2370   28.9933 C.2     1  UNL1        0.2971
     17 O         -23.4636   -1.1143   29.0670 O.2     1  UNL1       -0.2679
     18 N         -21.4965   -0.3384   29.6234 N.am    1  UNL1       -0.0848
     19 O         -24.7696    3.6841   30.3311 O.2     1  UNL1       -0.2500
     20 C         -28.9056    0.1214   30.7346 C.ar    1  UNL1       -0.0138
     21 C         -28.7425   -0.5787   31.7965 C.ar    1  UNL1       -0.0038
     22 C         -29.9012   -0.8881   32.6667 C.ar    1  UNL1       -0.0003
     23 C         -31.1290   -0.5747   32.2128 C.ar    1  UNL1       -0.0000
     24 C         -30.1615    0.4866   30.2408 C.ar    1  UNL1       -0.0038
     25 C         -31.2906    0.1833   31.0215 C.ar    1  UNL1       -0.0003
@<TRIPOS>BOND
     1     1     2    2
     2     2     3   am
     3     3     4    1
     4     4     5    1
     5     2     6    1
     6     7     8    1
     7     9    10    1
     8     5    11    1
     9    10    11    1
    10     4    12    1
    11    12    13    1
    12    12    14    1
    13    11    15    1
    14    14    15    1
    15    11    16    1
    16    16    17    2
    17    16    18   am
    18    14    19    2
    19     6    20    1
    20     5     7    1
    21     8     9    1
    22    13     6    1
    23    20    21   ar
    24    21    22   ar
    25    22    23   ar
    26    23    25   ar
    27    25    24   ar
    28    24    20   ar
