@<TRIPOS>MOLECULE
No_4420-gen_results/8p0m/2024-11-26-14-13-15/
 26 29 0 0 0
SMALL
GASTEIGER

@<TRIPOS>ATOM
      1 C         -28.0162   -0.8135   28.8779 C.ar    1  UNL1        0.0208
      2 C         -28.4690   -0.7850   29.8287 C.ar    1  UNL1        0.0567
      3 C         -26.5042   -0.7777   28.8766 C.ar    1  UNL1        0.0670
      4 C         -25.9150   -0.6580   29.9230 C.ar    1  UNL1       -0.0025
      5 C         -27.9691   -0.7243   31.2047 C.ar    1  UNL1        0.0043
      6 C         -26.5847   -0.6393   31.2062 C.ar    1  UNL1       -0.0025
      7 C         -30.0752   -0.8832   29.9049 C.2     1  UNL1        0.2690
      8 O         -30.5929   -0.4839   28.9435 O.2     1  UNL1       -0.2680
      9 N         -30.7205   -1.0947   31.0849 N.am    1  UNL1       -0.1754
     10 C         -32.1600   -1.1508   31.0786 C.ar    1  UNL1        0.0746
     11 C         -32.8971   -0.6842   30.5039 C.ar    1  UNL1        0.0175
     12 C         -34.3428   -0.7566   30.6019 C.ar    1  UNL1        0.0136
     13 C         -34.7669   -1.5546   31.6968 C.ar    1  UNL1        0.0683
     14 C         -33.8465   -2.1798   32.4818 C.ar    1  UNL1        0.0695
     15 C         -32.4671   -2.0078   32.3197 C.ar    1  UNL1        0.0288
     16 CL        -36.4332   -1.7190   31.9382 Cl      1  UNL1       -0.0814
     17 C         -24.3730   -0.5985   30.0140 C.3     1  UNL1        0.0553
     18 C         -23.6958    0.1509   29.0633 C.ar    1  UNL1       -0.0020
     19 C         -23.2083    1.0610   29.0567 C.ar    1  UNL1       -0.0026
     20 C         -22.4697    1.7379   27.9004 C.ar    1  UNL1        0.0003
     21 C         -22.8219    2.0123   26.9076 C.ar    1  UNL1        0.0080
     22 C         -24.0894    1.1265   26.5846 C.ar    1  UNL1        0.0495
     23 C         -24.4236    0.2578   27.5441 C.ar    1  UNL1        0.0730
     24 N         -25.7563   -0.3522   27.7812 N.pl3   1  UNL1       -0.2126
     25 BR        -24.8919    1.2303   24.9813 Br      1  UNL1       -0.0477
     26 CL        -34.3753   -3.1117   33.8407 Cl      1  UNL1       -0.0813
@<TRIPOS>BOND
     1     2     7    1
     2     7     8    2
     3     7     9   am
     4     9    10    1
     5    13    16    1
     6     4    17    1
     7    17    18    1
     8     3    24    1
     9    23    24    1
    10    22    25    1
    11    14    26    1
    12    18    19   ar
    13    19    20   ar
    14    20    21   ar
    15    21    22   ar
    16    22    23   ar
    17    23    18   ar
    18     1     2   ar
    19     2     5   ar
    20     5     6   ar
    21     6     4   ar
    22     4     3   ar
    23     3     1   ar
    24    10    11   ar
    25    11    12   ar
    26    12    13   ar
    27    13    14   ar
    28    14    15   ar
    29    15    10   ar
