@<TRIPOS>MOLECULE
No_4421-gen_results/8p0m/2024-11-26-14-13-15/
 21 22 0 0 0
SMALL
GASTEIGER

@<TRIPOS>ATOM
      1 C         -28.0162   -0.8135   28.8779 C.2     1  UNL1        0.2490
      2 C         -27.0636   -0.1190   28.6079 C.ar    1  UNL1        0.0536
      3 C         -26.9287    1.1713   29.0083 C.ar    1  UNL1        0.0045
      4 C         -25.7702    2.0341   28.6884 C.ar    1  UNL1        0.0040
      5 C         -24.7141    1.4431   27.9188 C.ar    1  UNL1        0.0714
      6 C         -24.8590    0.0783   27.5836 C.ar    1  UNL1        0.0040
      7 C         -25.9647   -0.6606   27.9164 C.ar    1  UNL1        0.0045
      8 N         -29.1778   -0.3051   28.9638 N.am    1  UNL1       -0.2755
      9 C         -29.7429    0.3639   28.0669 C.3     1  UNL1        0.1049
     10 C         -30.7508    0.3561   27.5991 C.3     1  UNL1        0.1232
     11 C         -31.7613   -0.5500   28.1516 C.3     1  UNL1        0.0147
     12 C         -30.1336   -0.7903   29.9946 C.3     1  UNL1        0.0937
     13 C         -31.4479   -1.0076   29.4649 C.3     1  UNL1        0.0221
     14 C         -23.4915    2.1209   27.5925 C.3     1  UNL1        0.4186
     15 F         -22.5968    1.6204   27.3773 F       1  UNL1       -0.1659
     16 F         -23.8547    2.9727   26.4440 F       1  UNL1       -0.1659
     17 F         -23.2542    3.1298   28.5692 F       1  UNL1       -0.1659
     18 O         -27.8007   -1.9655   29.4499 O.2     1  UNL1       -0.2699
     19 C         -31.2797    0.9725   26.2875 C.2     1  UNL1        0.3660
     20 O         -31.7888    1.9753   26.3542 O.co2   1  UNL1       -0.2456
     21 O         -31.1551    0.1860   25.1780 O.co2   1  UNL1       -0.2456
@<TRIPOS>BOND
     1     1     2    1
     2     1     8   am
     3     8     9    1
     4    10    11    1
     5     8    12    1
     6     5    14    1
     7    14    15    1
     8    14    16    1
     9    14    17    1
    10     1    18    2
    11    10    19    1
    12    19    20   ar
    13    19    21   ar
    14     9    10    1
    15    11    13    1
    16    13    12    1
    17     2     3   ar
    18     3     4   ar
    19     4     5   ar
    20     5     6   ar
    21     6     7   ar
    22     7     2   ar
