@<TRIPOS>MOLECULE
No_4422-gen_results/8p0m/2024-11-26-14-13-15/
 17 18 0 0 0
SMALL
GASTEIGER

@<TRIPOS>ATOM
      1 C         -28.0162   -0.8135   28.8779 C.ar    1  UNL1        0.0113
      2 C         -27.0636   -0.1189   28.6079 C.ar    1  UNL1        0.0576
      3 C         -26.9287    1.1713   29.0083 C.ar    1  UNL1        0.0105
      4 C         -27.9560    1.7411   29.7840 C.ar    1  UNL1        0.0047
      5 C         -29.0569   -0.3271   29.7466 C.ar    1  UNL1        0.0047
      6 C         -28.9828    0.9722   30.1516 C.ar    1  UNL1        0.0715
      7 CL        -25.7249   -0.7275   27.6731 Cl      1  UNL1       -0.0822
      8 C         -30.0369    1.6979   30.9188 C.3     1  UNL1        0.4186
      9 F         -30.8608    0.9401   31.4026 F       1  UNL1       -0.1659
     10 F         -29.4437    2.3419   31.9565 F       1  UNL1       -0.1659
     11 F         -30.5762    2.6064   30.0927 F       1  UNL1       -0.1659
     12 C         -25.7144    2.0056   28.5594 C.ar    1  UNL1        0.0008
     13 C         -25.6307    2.4608   27.2245 C.ar    1  UNL1        0.0000
     14 C         -24.4844    2.8405   26.7221 C.ar    1  UNL1        0.0000
     15 C         -23.2208    2.6425   27.3303 C.ar    1  UNL1        0.0000
     16 C         -23.3473    2.0196   28.6256 C.ar    1  UNL1        0.0000
     17 C         -24.5217    1.7486   29.2968 C.ar    1  UNL1        0.0000
@<TRIPOS>BOND
     1     2     7    1
     2     6     8    1
     3     8     9    1
     4     8    10    1
     5     8    11    1
     6     3    12    1
     7    12    13   ar
     8    13    14   ar
     9    14    15   ar
    10    15    16   ar
    11    16    17   ar
    12    17    12   ar
    13     1     2   ar
    14     2     3   ar
    15     3     4   ar
    16     4     6   ar
    17     6     5   ar
    18     5     1   ar
