@<TRIPOS>MOLECULE
No_4423-gen_results/8p0m/2024-11-26-14-13-15/
 8 8 0 0 0
SMALL
GASTEIGER

@<TRIPOS>ATOM
      1 C         -28.0162   -0.8135   28.8779 C.ar    1  UNL1       -0.0017
      2 C         -28.4690   -0.7850   29.8287 C.ar    1  UNL1        0.0106
      3 C         -27.0871    0.2903   28.6377 C.ar    1  UNL1       -0.0002
      4 C         -26.7676    1.0274   29.4716 C.ar    1  UNL1       -0.0000
      5 C         -29.4593   -1.9217   30.2024 C.3     1  UNL1        0.2086
      6 C         -27.3079    1.0334   30.7802 C.ar    1  UNL1       -0.0002
      7 C         -28.2256   -0.0215   31.0470 C.ar    1  UNL1       -0.0017
      8 O         -29.9014   -1.8474   31.4731 O.3     1  UNL1       -0.2152
@<TRIPOS>BOND
     1     2     5    1
     2     5     8    1
     3     1     2   ar
     4     2     7   ar
     5     7     6   ar
     6     6     4   ar
     7     4     3   ar
     8     3     1   ar
