@<TRIPOS>MOLECULE
No_4425-gen_results/8p0m/2024-11-26-14-13-15/
 5 4 0 0 0
SMALL
GASTEIGER

@<TRIPOS>ATOM
      1 CL        -28.1493   -0.8198   28.9079 Cl      1  UNL1       -0.0814
      2 C         -28.5324   -0.0471   29.7727 C.2     1  UNL1        0.0682
      3 C         -27.6024    0.7852   30.3185 C.2     1  UNL1        0.0122
      4 C         -26.2136    0.8161   29.9376 C.2     1  UNL1        0.0009
      5 C         -25.8920   -0.2038   28.9478 C.2     1  UNL1        0.0000
@<TRIPOS>BOND
     1     1     2    1
     2     2     3    2
     3     3     4    1
     4     4     5    2
