@<TRIPOS>MOLECULE
No_4426-gen_results/8p0m/2024-11-26-14-13-15/
 27 29 0 0 0
SMALL
GASTEIGER

@<TRIPOS>ATOM
      1 C         -28.0162   -0.8135   28.8779 C.ar    1  UNL1        0.0063
      2 C         -28.4690   -0.7850   29.8287 C.ar    1  UNL1        0.0798
      3 C         -26.5455   -0.8762   28.8500 C.ar    1  UNL1       -0.0038
      4 C         -25.8041   -1.0324   30.0571 C.ar    1  UNL1       -0.0190
      5 C         -27.9437   -0.9869   31.2075 C.ar    1  UNL1        0.0063
      6 C         -26.5825   -1.0386   31.2231 C.ar    1  UNL1       -0.0038
      7 C         -30.0606   -0.7371   29.9024 C.2     1  UNL1        0.3878
      8 O         -30.6052    0.0855   30.7066 O.co2   1  UNL1       -0.2406
      9 O         -30.6701   -1.4594   29.0728 O.co2   1  UNL1       -0.2406
     10 C         -24.3711   -1.0948   30.0783 C.3     1  UNL1        0.0377
     11 C         -23.5788   -0.5891   29.1099 C.ar    1  UNL1       -0.0193
     12 C         -22.9080    0.5743   29.2134 C.ar    1  UNL1       -0.0040
     13 C         -22.0692    1.0825   28.1604 C.ar    1  UNL1       -0.0006
     14 C         -22.7226    1.5722   27.0441 C.ar    1  UNL1       -0.0043
     15 C         -24.0547    1.0914   26.7710 C.ar    1  UNL1       -0.0222
     16 C         -24.2855   -0.1682   27.5165 C.ar    1  UNL1       -0.0082
     17 C         -24.6948    1.3419   25.5948 C.3     1  UNL1        0.0307
     18 C         -25.7651    1.0302   25.2989 C.3     1  UNL1        0.0267
     19 C         -26.9111    1.7521   25.5853 C.ar    1  UNL1       -0.0222
     20 C         -28.2437    1.3452   25.2306 C.ar    1  UNL1       -0.0043
     21 C         -29.3800    2.0008   25.6694 C.ar    1  UNL1       -0.0003
     22 C         -29.1770    3.2182   26.4031 C.ar    1  UNL1       -0.0000
     23 C         -27.9294    3.7024   26.6943 C.ar    1  UNL1       -0.0003
     24 C         -26.8260    2.9627   26.3389 C.ar    1  UNL1       -0.0043
     25 C         -26.0144   -0.3065   24.6785 C.3     1  UNL1        0.0050
     26 C         -23.9595   -2.5805   30.3180 C.3     1  UNL1        0.0088
     27 C         -23.9218   -0.3030   31.4130 C.3     1  UNL1        0.0088
@<TRIPOS>BOND
     1     2     7    1
     2     7     8   ar
     3     7     9   ar
     4     4    10    1
     5    10    11    1
     6    15    17    1
     7    17    18    1
     8    18    25    1
     9    10    26    1
    10    10    27    1
    11    18    19    1
    12    11    12   ar
    13    12    13   ar
    14    13    14   ar
    15    14    15   ar
    16    15    16   ar
    17    16    11   ar
    18     1     2   ar
    19     2     5   ar
    20     5     6   ar
    21     6     4   ar
    22     4     3   ar
    23     3     1   ar
    24    19    20   ar
    25    20    21   ar
    26    21    22   ar
    27    22    23   ar
    28    23    24   ar
    29    24    19   ar
