@<TRIPOS>MOLECULE
No_4427-gen_results/8p0m/2024-11-26-14-13-15/
 28 30 0 0 0
SMALL
GASTEIGER

@<TRIPOS>ATOM
      1 C         -28.0162   -0.8135   28.8779 C.3     1  UNL1        0.1024
      2 C         -27.0636   -0.1190   28.6079 C.ar    1  UNL1       -0.0061
      3 C         -26.9287    1.1713   29.0083 C.ar    1  UNL1       -0.0031
      4 C         -25.7702    2.0341   28.6884 C.ar    1  UNL1        0.0009
      5 C         -24.7141    1.4431   27.9188 C.ar    1  UNL1        0.0436
      6 C         -24.8590    0.0783   27.5836 C.ar    1  UNL1        0.0009
      7 C         -25.9647   -0.6606   27.9164 C.ar    1  UNL1       -0.0031
      8 N         -29.1778   -0.3051   28.9638 N.3     1  UNL1       -0.2626
      9 C         -30.1765   -0.9070   29.7369 C.3     1  UNL1        0.1370
     10 C         -23.5156    2.1616   27.5794 C.3     1  UNL1        0.3410
     11 F         -23.3842    2.9011   26.8246 F       1  UNL1       -0.1933
     12 F         -22.3571    1.6084   28.1035 F       1  UNL1       -0.1933
     13 C         -31.5123   -0.7022   29.4473 C.3     1  UNL1        0.0298
     14 C         -29.8405   -1.7946   30.8468 C.2     1  UNL1        0.2559
     15 N         -28.6067   -1.9375   31.2346 N.am    1  UNL1       -0.2025
     16 C         -27.6072   -1.7497   30.0940 C.3     1  UNL1        0.1355
     17 C         -29.6409    0.5951   28.0040 C.3     1  UNL1        0.0731
     18 C         -30.4612    0.7076   27.4183 C.3     1  UNL1        0.0217
     19 C         -31.7029    0.2327   28.2605 C.3     1  UNL1        0.0252
     20 C         -33.0971    0.4190   27.8086 C.2     1  UNL1       -0.0263
     21 O         -30.6793   -2.5118   31.3730 O.2     1  UNL1       -0.2719
     22 C         -33.9294    0.7108   28.5830 C.2     1  UNL1       -0.0039
     23 C         -34.7906    1.0935   28.9467 C.2     1  UNL1        0.0085
     24 C         -35.9743    1.5805   29.5951 C.2     1  UNL1        0.0493
     25 C         -36.6681    2.0575   30.3104 C.1     1  UNL1       -0.0629
     26 C         -37.5438    2.6075   31.0126 C.1     1  UNL1       -0.0739
     27 C         -38.0862    3.0020   31.9973 C.3     1  UNL1        0.1433
     28 BR        -39.2099    3.6201   32.5661 Br      1  UNL1       -0.0654
@<TRIPOS>BOND
     1     1     2    1
     2     1     8    1
     3     8     9    1
     4     5    10    1
     5    10    11    1
     6    10    12    1
     7     9    14    1
     8    14    15   am
     9     1    16    1
    10    15    16    1
    11     8    17    1
    12    13    19    1
    13    18    19    1
    14    19    20    1
    15    14    21    2
    16    20    22    2
    17    22    23    1
    18    23    24    2
    19    24    25    1
    20    25    26    3
    21    26    27    1
    22    27    28    1
    23     9    13    1
    24    18    17    1
    25     2     3   ar
    26     3     4   ar
    27     4     5   ar
    28     5     6   ar
    29     6     7   ar
    30     7     2   ar
