@<TRIPOS>MOLECULE
No_4429-gen_results/8p0m/2024-11-26-14-13-15/
 19 20 0 0 0
SMALL
GASTEIGER

@<TRIPOS>ATOM
      1 C         -28.0162   -0.8135   28.8779 C.ar    1  UNL1        0.0001
      2 C         -27.0636   -0.1189   28.6079 C.ar    1  UNL1        0.0046
      3 C         -27.0010    0.6913   27.4910 C.ar    1  UNL1        0.0550
      4 C         -25.8548    1.4825   27.0830 C.ar    1  UNL1        0.0047
      5 C         -24.9008    1.3894   27.5922 C.ar    1  UNL1        0.0047
      6 C         -24.6783    0.5764   28.8299 C.ar    1  UNL1        0.0550
      7 C         -25.7704   -0.2051   29.2800 C.ar    1  UNL1        0.0046
      8 C         -27.9632   -1.4284   30.2685 C.ar    1  UNL1        0.0000
      9 C         -26.7440   -1.7577   30.8419 C.ar    1  UNL1        0.0000
     10 C         -25.6336   -0.9974   30.4485 C.ar    1  UNL1        0.0001
     11 C         -23.3348    0.5646   29.5044 C.2     1  UNL1        0.2648
     12 N         -22.2346    0.7013   28.7935 N.am    1  UNL1       -0.1998
     13 O         -23.3149    0.4060   30.7324 O.2     1  UNL1       -0.2684
     14 C         -20.8139    0.4296   29.2531 C.3     1  UNL1        0.1388
     15 C         -28.0945    0.7844   26.4947 C.2     1  UNL1        0.2648
     16 O         -29.1244    0.4993   26.6608 O.2     1  UNL1       -0.2684
     17 N         -27.6240    0.9274   25.1575 N.am    1  UNL1       -0.2017
     18 C         -28.5757    0.8887   24.0544 C.3     1  UNL1        0.1155
     19 C         -29.5561    0.2579   24.4017 C.3     1  UNL1        0.0253
@<TRIPOS>BOND
     1     6    11    1
     2    11    12   am
     3    11    13    2
     4    12    14    1
     5     3    15    1
     6    15    16    2
     7    15    17   am
     8    17    18    1
     9    18    19    1
    10     2     3   ar
    11     3     4   ar
    12     4     5   ar
    13     5     6   ar
    14     6     7   ar
    15     1     2   ar
    16     2     7   ar
    17     7    10   ar
    18    10     9   ar
    19     9     8   ar
    20     8     1   ar
