@<TRIPOS>MOLECULE
No_443-gen_results/8p0m/2024-11-26-14-13-15/
 28 29 0 0 0
SMALL
GASTEIGER

@<TRIPOS>ATOM
      1 F         -28.0727   -1.2542   28.5316 F       1  UNL1       -0.1993
      2 C         -27.0607   -0.6291   28.8721 C.ar    1  UNL1        0.1976
      3 C         -26.1528   -1.1557   29.4537 C.ar    1  UNL1        0.1700
      4 C         -24.8778   -0.5788   29.8639 C.ar    1  UNL1        0.0397
      5 C         -24.7426    0.8273   29.4808 C.ar    1  UNL1        0.0940
      6 C         -25.7883    1.3927   28.7628 C.ar    1  UNL1        0.1725
      7 C         -26.9145    0.7309   28.4427 C.ar    1  UNL1        0.2034
      8 C         -23.5403    1.5267   29.8447 C.2     1  UNL1        0.2744
      9 N         -22.4127    1.2112   29.3122 N.am    1  UNL1       -0.1409
     10 O         -23.6279    2.4204   30.8055 O.2     1  UNL1       -0.2678
     11 C         -22.1809    0.3260   28.2762 C.2     1  UNL1        0.2486
     12 F         -27.8781    1.3002   27.7806 F       1  UNL1       -0.1985
     13 F         -26.2118   -2.4743   29.9118 F       1  UNL1       -0.2017
     14 C         -20.7431    0.4024   28.0648 C.3     1  UNL1        0.0969
     15 O         -22.8469   -0.5255   28.1983 O.2     1  UNL1       -0.2729
     16 O         -25.6112    2.6985   28.3770 O.3     1  UNL1       -0.4737
     17 C         -25.0258    3.0180   27.1574 C.3     1  UNL1        0.1999
     18 C         -24.9414    4.3497   26.8979 C.3     1  UNL1        0.2044
     19 C         -24.5916    2.1200   26.2055 C.3     1  UNL1        0.0504
     20 N         -24.4333    4.7370   25.7233 N.3     1  UNL1       -0.1098
     21 N         -25.3106    5.3435   27.8223 N.3     1  UNL1       -0.1930
     22 C         -25.1440    6.6788   27.4979 C.3     1  UNL1        0.1167
     23 C         -25.2049    7.5828   28.6388 C.ar    1  UNL1       -0.0047
     24 C         -25.4668    7.0737   29.8704 C.ar    1  UNL1       -0.0029
     25 C         -25.5735    7.8927   31.0237 C.ar    1  UNL1       -0.0003
     26 C         -25.3477    9.2603   30.7959 C.ar    1  UNL1       -0.0000
     27 C         -25.0732    9.8437   29.5985 C.ar    1  UNL1       -0.0003
     28 C         -24.9604    8.9613   28.4449 C.ar    1  UNL1       -0.0029
@<TRIPOS>BOND
     1     1     2    1
     2     5     8    1
     3     8     9   am
     4     8    10    2
     5     9    11   am
     6     7    12    1
     7     3    13    1
     8    11    14    1
     9    11    15    2
    10     6    16    1
    11    16    17    1
    12    17    18    1
    13    17    19    1
    14    18    20    1
    15    18    21    1
    16    21    22    1
    17    22    23    1
    18     2     3   ar
    19     3     4   ar
    20     4     5   ar
    21     5     6   ar
    22     6     7   ar
    23     7     2   ar
    24    23    24   ar
    25    24    25   ar
    26    25    26   ar
    27    26    27   ar
    28    27    28   ar
    29    28    23   ar
