@<TRIPOS>MOLECULE
No_4430-gen_results/8p0m/2024-11-26-14-13-15/
 12 12 0 0 0
SMALL
GASTEIGER

@<TRIPOS>ATOM
      1 C         -28.0162   -0.8135   28.8779 C.ar    1  UNL1        0.0378
      2 C         -27.0636   -0.1189   28.6079 C.ar    1  UNL1        0.0145
      3 C         -25.7647   -0.3897   29.0360 C.ar    1  UNL1        0.0579
      4 C         -25.5296   -1.5302   29.9014 C.ar    1  UNL1        0.0145
      5 C         -26.6888   -2.2893   30.1810 C.ar    1  UNL1        0.0378
      6 C         -27.8727   -1.9508   29.7373 C.ar    1  UNL1        0.1394
      7 CL        -24.3819    0.5593   28.6789 Cl      1  UNL1       -0.0822
      8 O         -28.9605   -2.7338   30.0969 O.3     1  UNL1       -0.4637
      9 C         -30.0552   -2.1400   30.6083 C.3     1  UNL1        0.3186
     10 C         -30.6149   -2.9276   31.6189 C.2     1  UNL1        0.4084
     11 O         -31.5873   -2.4956   32.1700 O.co2   1  UNL1       -0.2415
     12 O         -29.8890   -3.7978   32.2165 O.co2   1  UNL1       -0.2415
@<TRIPOS>BOND
     1     3     7    1
     2     6     8    1
     3     8     9    1
     4     9    10    1
     5    10    11   ar
     6    10    12   ar
     7     1     2   ar
     8     2     3   ar
     9     3     4   ar
    10     4     5   ar
    11     5     6   ar
    12     6     1   ar
