@<TRIPOS>MOLECULE
No_4432-gen_results/8p0m/2024-11-26-14-13-15/
 16 17 0 0 0
SMALL
GASTEIGER

@<TRIPOS>ATOM
      1 C         -28.0162   -0.8135   28.8779 C.ar    1  UNL1        0.0000
      2 C         -27.0636   -0.1189   28.6079 C.ar    1  UNL1        0.0000
      3 C         -25.7647   -0.3897   29.0360 C.ar    1  UNL1        0.0010
      4 C         -25.5296   -1.5302   29.9014 C.ar    1  UNL1        0.0000
      5 C         -26.6577   -2.2915   30.2035 C.ar    1  UNL1        0.0000
      6 C         -27.8548   -1.9555   29.7630 C.ar    1  UNL1        0.0000
      7 C         -24.4274    0.2189   28.7748 C.2     1  UNL1        0.0140
      8 C         -24.0094    1.2736   29.4388 C.2     1  UNL1        0.0711
      9 N         -22.8045    1.8417   29.0019 N.pl3   1  UNL1       -0.1324
     10 C         -24.6688    1.9068   30.5474 C.3     1  UNL1        0.0710
     11 C         -25.9062    2.3373   30.4813 C.ar    1  UNL1       -0.0164
     12 C         -26.1780    3.5303   29.8163 C.ar    1  UNL1       -0.0039
     13 C         -27.4670    4.1204   29.7915 C.ar    1  UNL1       -0.0003
     14 C         -28.4511    3.4309   30.5067 C.ar    1  UNL1       -0.0000
     15 C         -28.1951    2.3270   31.2607 C.ar    1  UNL1       -0.0003
     16 C         -26.9192    1.8197   31.3518 C.ar    1  UNL1       -0.0039
@<TRIPOS>BOND
     1     3     7    1
     2     7     8    2
     3     8     9    1
     4     8    10    1
     5    10    11    1
     6    11    12   ar
     7    12    13   ar
     8    13    14   ar
     9    14    15   ar
    10    15    16   ar
    11    16    11   ar
    12     1     2   ar
    13     2     3   ar
    14     3     4   ar
    15     4     5   ar
    16     5     6   ar
    17     6     1   ar
