@<TRIPOS>MOLECULE
No_4433-gen_results/8p0m/2024-11-26-14-13-15/
 16 18 0 0 0
SMALL
GASTEIGER

@<TRIPOS>ATOM
      1 C         -28.0162   -0.8135   28.8779 C.ar    1  UNL1        0.0165
      2 C         -28.4690   -0.7850   29.8287 C.ar    1  UNL1        0.0013
      3 C         -26.5042   -0.7777   28.8766 C.ar    1  UNL1        0.0716
      4 C         -25.8103   -0.8531   30.1028 C.ar    1  UNL1        0.0309
      5 C         -27.9906   -0.8916   31.2257 C.ar    1  UNL1        0.0001
      6 C         -24.3976   -0.8364   30.1775 C.2     1  UNL1        0.0861
      7 C         -26.5754   -0.8899   31.2661 C.ar    1  UNL1        0.0025
      8 N         -23.7809   -1.1141   31.0773 N.2     1  UNL1       -0.1523
      9 C         -23.6013   -0.4400   28.9855 C.3     1  UNL1        0.0752
     10 C         -23.9187    0.2688   27.9086 C.ar    1  UNL1       -0.0009
     11 C         -23.5304    1.5826   27.6074 C.ar    1  UNL1       -0.0026
     12 C         -23.8809    2.2451   26.4119 C.ar    1  UNL1       -0.0002
     13 C         -24.8068    1.5661   25.5697 C.ar    1  UNL1        0.0013
     14 C         -25.2708    0.3189   25.9381 C.ar    1  UNL1        0.0162
     15 C         -24.8376   -0.2958   27.0085 C.ar    1  UNL1        0.0669
     16 N         -25.7494   -0.5486   27.7538 N.pl3   1  UNL1       -0.2127
@<TRIPOS>BOND
     1     4     6    1
     2     6     8    2
     3     6     9    1
     4     9    10    1
     5     3    16    1
     6    15    16    1
     7    10    11   ar
     8    11    12   ar
     9    12    13   ar
    10    13    14   ar
    11    14    15   ar
    12    15    10   ar
    13     1     2   ar
    14     2     5   ar
    15     5     7   ar
    16     7     4   ar
    17     4     3   ar
    18     3     1   ar
