@<TRIPOS>MOLECULE
No_4434-gen_results/8p0m/2024-11-26-14-13-15/
 14 14 0 0 0
SMALL
GASTEIGER

@<TRIPOS>ATOM
      1 O         -28.1229   -1.3353   28.4874 O.2     1  UNL1       -0.2730
      2 C         -28.5208   -0.4363   29.0779 C.2     1  UNL1        0.2459
      3 C         -29.6977    0.0507   28.9764 C.3     1  UNL1        0.0918
      4 N         -27.7059   -0.0219   30.1625 N.am    1  UNL1       -0.1782
      5 C         -26.3949   -0.3536   30.3653 C.2     1  UNL1        0.0841
      6 C         -29.9125    0.6261   27.6920 C.3     1  UNL1        0.0360
      7 C         -28.9136    1.1132   27.0435 C.ar    1  UNL1       -0.0217
      8 C         -28.7271    1.0743   25.6481 C.ar    1  UNL1       -0.0043
      9 C         -27.5179    1.5235   24.9516 C.ar    1  UNL1       -0.0003
     10 C         -26.4237    1.9527   25.7381 C.ar    1  UNL1       -0.0000
     11 C         -26.5556    1.9388   27.1272 C.ar    1  UNL1       -0.0003
     12 C         -27.6901    1.4983   27.7207 C.ar    1  UNL1       -0.0043
     13 C         -25.7103   -1.0896   29.9369 C.2     1  UNL1       -0.0079
     14 C         -26.0536   -2.0413   28.8961 C.3     1  UNL1        0.0321
@<TRIPOS>BOND
     1     1     2    2
     2     2     3    1
     3     2     4   am
     4     4     5    1
     5     3     6    1
     6     6     7    1
     7     5    13    2
     8    13    14    1
     9     7     8   ar
    10     8     9   ar
    11     9    10   ar
    12    10    11   ar
    13    11    12   ar
    14    12     7   ar
