@<TRIPOS>MOLECULE
No_4435-gen_results/8p0m/2024-11-26-14-13-15/
 17 19 0 0 0
SMALL
GASTEIGER

@<TRIPOS>ATOM
      1 O         -28.1229   -1.3353   28.4874 O.2     1  UNL1       -0.2698
      2 C         -27.4806   -0.4044   28.7094 C.2     1  UNL1        0.2515
      3 C         -26.3804   -0.0867   27.9394 C.ar    1  UNL1        0.0697
      4 N         -27.4232    0.1749   30.0549 N.am    1  UNL1       -0.2602
      5 C         -26.1558    0.1159   26.9677 C.ar    1  UNL1        0.0059
      6 C         -24.8999    0.6041   26.2250 C.ar    1  UNL1        0.0016
      7 C         -23.8294    0.8007   27.0443 C.ar    1  UNL1        0.0174
      8 C         -23.9618    0.5852   28.4110 C.ar    1  UNL1        0.0803
      9 C         -25.0820    0.2407   28.9595 C.ar    1  UNL1        0.0862
     10 C         -28.6139   -0.1699   30.9103 C.3     1  UNL1        0.0953
     11 N         -22.8482    0.9310   29.2144 N.pl3   1  UNL1       -0.2344
     12 C         -21.8452   -0.0602   29.3208 C.3     1  UNL1        0.1355
     13 C         -28.3119   -0.1637   32.1292 C.3     1  UNL1        0.0217
     14 C         -27.2243    0.5289   32.7455 C.3     1  UNL1        0.0053
     15 C         -26.1931    0.9185   31.8159 C.3     1  UNL1        0.0424
     16 C         -26.3417    0.6488   30.5430 C.3     1  UNL1        0.1693
     17 N         -25.2493    0.7423   29.7823 N.pl3   1  UNL1       -0.2177
@<TRIPOS>BOND
     1     1     2    2
     2     2     3    1
     3     2     4   am
     4     4    10    1
     5     8    11    1
     6    11    12    1
     7    13    14    1
     8    14    15    1
     9     4    16    1
    10     9    17    1
    11    16    17    1
    12    10    13    1
    13    15    16    1
    14     3     5   ar
    15     5     6   ar
    16     6     7   ar
    17     7     8   ar
    18     8     9   ar
    19     9     3   ar
