@<TRIPOS>MOLECULE
No_4436-gen_results/8p0m/2024-11-26-14-13-15/
 14 15 0 0 0
SMALL
GASTEIGER

@<TRIPOS>ATOM
      1 C         -28.0162   -0.8135   28.8779 C.ar    1  UNL1        0.0638
      2 C         -27.0636   -0.1189   28.6079 C.ar    1  UNL1        0.0119
      3 C         -25.7923   -0.4302   29.0761 C.ar    1  UNL1        0.0009
      4 C         -24.5456    0.3494   28.8225 C.ar    1  UNL1        0.0000
      5 C         -23.2409    0.0217   29.3323 C.ar    1  UNL1        0.0000
      6 C         -22.1362    0.7695   29.0059 C.ar    1  UNL1        0.0000
      7 C         -27.9050   -1.8984   29.8729 C.ar    1  UNL1        0.0451
      8 C         -26.6795   -2.3145   30.3184 C.ar    1  UNL1        0.0075
      9 C         -25.5203   -1.5564   29.9775 C.ar    1  UNL1        0.0006
     10 C         -22.1253    1.7361   28.0244 C.ar    1  UNL1        0.0000
     11 C         -24.5436    1.3861   27.7916 C.ar    1  UNL1        0.0000
     12 C         -23.3374    2.0469   27.4517 C.ar    1  UNL1        0.0000
     13 BR        -29.3935   -2.9202   30.3873 Br      1  UNL1       -0.0481
     14 CL        -29.6094   -0.4032   28.3705 Cl      1  UNL1       -0.0817
@<TRIPOS>BOND
     1     3     4    1
     2     7    13    1
     3     1    14    1
     4     1     2   ar
     5     2     3   ar
     6     3     9   ar
     7     9     8   ar
     8     8     7   ar
     9     7     1   ar
    10     4     5   ar
    11     5     6   ar
    12     6    10   ar
    13    10    12   ar
    14    12    11   ar
    15    11     4   ar
