@<TRIPOS>MOLECULE
No_4437-gen_results/8p0m/2024-11-26-14-13-15/
 10 10 0 0 0
SMALL
GASTEIGER

@<TRIPOS>ATOM
      1 C         -28.0162   -0.8135   28.8779 C.3     1  UNL1        0.1263
      2 N         -27.1876   -0.3590   28.4524 N.am    1  UNL1       -0.2048
      3 C         -28.1059   -1.6261   30.0720 C.3     1  UNL1        0.1255
      4 C         -26.7940   -1.9729   30.6057 C.3     1  UNL1        0.0227
      5 C         -25.6390   -1.4719   30.0298 C.3     1  UNL1        0.0874
      6 C         -25.8378   -0.6143   28.9259 C.2     1  UNL1        0.2414
      7 O         -24.7628   -0.0359   28.3886 O.2     1  UNL1       -0.2733
      8 C         -29.2555   -2.2516   30.6781 C.2     1  UNL1        0.3661
      9 O         -29.4511   -2.2050   31.8836 O.co2   1  UNL1       -0.2456
     10 O         -30.0221   -2.9134   29.8787 O.co2   1  UNL1       -0.2456
@<TRIPOS>BOND
     1     1     3    1
     2     3     4    1
     3     4     5    1
     4     2     6   am
     5     5     6    1
     6     6     7    2
     7     3     8    1
     8     8     9   ar
     9     8    10   ar
    10     2     1    1
