@<TRIPOS>MOLECULE
No_4438-gen_results/8p0m/2024-11-26-14-13-15/
 17 18 0 0 0
SMALL
GASTEIGER

@<TRIPOS>ATOM
      1 C         -28.0162   -0.8135   28.8779 C.ar    1  UNL1        0.0270
      2 C         -28.4690   -0.7850   29.8287 C.ar    1  UNL1       -0.0021
      3 C         -27.0871    0.2903   28.6377 C.ar    1  UNL1        0.1399
      4 C         -26.7676    1.0274   29.4716 C.ar    1  UNL1        0.0296
      5 C         -28.2764    0.0268   31.0145 C.ar    1  UNL1       -0.0025
      6 C         -27.3287    1.0538   30.7535 C.ar    1  UNL1        0.0020
      7 F         -26.4387    0.4214   27.4276 F       1  UNL1       -0.2042
      8 C         -29.5072   -1.9673   30.2528 C.3     1  UNL1        0.0955
      9 N         -29.2565   -3.2017   30.3280 N.pl3   1  UNL1       -0.3036
     10 C         -30.8653   -1.7939   29.5350 C.3     1  UNL1        0.0263
     11 C         -27.9898   -3.5717   30.8579 C.3     1  UNL1        0.1124
     12 C         -30.1117   -4.2502   30.1492 C.ar    1  UNL1        0.0481
     13 C         -30.9717   -4.5460   31.0804 C.ar    1  UNL1        0.0145
     14 C         -31.8268   -5.5688   30.9538 C.ar    1  UNL1        0.0013
     15 C         -31.9281   -6.1012   30.0982 C.ar    1  UNL1        0.0001
     16 C         -31.0964   -5.9343   28.8512 C.ar    1  UNL1        0.0013
     17 C         -30.1528   -4.9516   28.9888 C.ar    1  UNL1        0.0145
@<TRIPOS>BOND
     1     3     7    1
     2     2     8    1
     3     8     9    1
     4     8    10    1
     5     9    11    1
     6     9    12    1
     7    12    13   ar
     8    13    14   ar
     9    14    15   ar
    10    15    16   ar
    11    16    17   ar
    12    17    12   ar
    13     1     2   ar
    14     2     5   ar
    15     5     6   ar
    16     6     4   ar
    17     4     3   ar
    18     3     1   ar
