@<TRIPOS>MOLECULE
No_4439-gen_results/8p0m/2024-11-26-14-13-15/
 19 21 0 0 0
SMALL
GASTEIGER

@<TRIPOS>ATOM
      1 C         -28.0162   -0.8135   28.8779 C.ar    1  UNL1       -0.0043
      2 C         -28.4690   -0.7850   29.8287 C.ar    1  UNL1       -0.0003
      3 C         -27.1356    0.2359   28.5352 C.ar    1  UNL1       -0.0222
      4 C         -26.8745    1.2825   29.3982 C.ar    1  UNL1       -0.0043
      5 C         -28.3613    0.1987   30.9244 C.ar    1  UNL1       -0.0000
      6 C         -27.5277    1.2234   30.6356 C.ar    1  UNL1       -0.0003
      7 C         -26.3987    0.2949   27.2279 C.3     1  UNL1        0.0267
      8 C         -25.0392    0.2356   27.3538 C.3     1  UNL1        0.0307
      9 C         -26.8419    1.2723   26.2572 C.3     1  UNL1        0.0050
     10 C         -24.2363    1.2186   27.7916 C.ar    1  UNL1       -0.0219
     11 C         -22.8225    1.0346   28.0790 C.ar    1  UNL1       -0.0043
     12 C         -22.3639    0.0689   28.9599 C.ar    1  UNL1       -0.0003
     13 C         -23.2919   -0.6353   29.7337 C.ar    1  UNL1       -0.0000
     14 C         -23.1214   -1.4727   30.6481 C.ar    1  UNL1       -0.0000
     15 C         -24.2280   -1.9304   31.4798 C.ar    1  UNL1       -0.0000
     16 C         -25.4241   -1.3060   31.0549 C.ar    1  UNL1       -0.0000
     17 C         -25.3365   -0.5156   30.0809 C.ar    1  UNL1       -0.0000
     18 C         -24.1837   -0.0693   29.4081 C.ar    1  UNL1       -0.0003
     19 C         -24.5079    0.9039   28.8777 C.ar    1  UNL1       -0.0043
@<TRIPOS>BOND
     1     3     7    1
     2     7     8    1
     3     7     9    1
     4     8    10    1
     5    13    14   ar
     6    14    15   ar
     7    15    16   ar
     8    16    17   ar
     9    17    18   ar
    10     1     2   ar
    11     2     5   ar
    12     5     6   ar
    13     6     4   ar
    14     4     3   ar
    15     3     1   ar
    16    10    11   ar
    17    11    12   ar
    18    12    13   ar
    19    13    18   ar
    20    18    19   ar
    21    19    10   ar
