@<TRIPOS>MOLECULE
No_444-gen_results/8p0m/2024-11-26-14-13-15/
 15 15 0 0 0
SMALL
GASTEIGER

@<TRIPOS>ATOM
      1 C         -28.0162   -0.8135   28.8779 C.3     1  UNL1        0.2047
      2 C         -27.0636   -0.1190   28.6079 C.ar    1  UNL1        0.0034
      3 C         -25.7647   -0.3897   29.0360 C.ar    1  UNL1       -0.0024
      4 C         -24.5516    0.4058   28.7646 C.ar    1  UNL1        0.0045
      5 C         -24.6957    1.4480   27.7988 C.ar    1  UNL1        0.0575
      6 C         -25.9755    1.7250   27.3077 C.ar    1  UNL1        0.0045
      7 C         -27.0718    1.0134   27.6535 C.ar    1  UNL1       -0.0024
      8 CL        -29.5298   -0.2777   28.6674 Cl      1  UNL1       -0.0980
      9 C         -27.8231   -1.6548   30.1194 C.2     1  UNL1        0.3835
     10 O         -28.7362   -2.2287   30.6341 O.co2   1  UNL1       -0.2439
     11 O         -26.6605   -2.1523   30.4170 O.co2   1  UNL1       -0.2439
     12 C         -23.5083    2.2573   27.5333 C.2     1  UNL1        0.2749
     13 N         -22.5749    1.9737   27.2507 N.2     1  UNL1       -0.2319
     14 O         -23.8172    3.5957   27.3891 O.2     1  UNL1       -0.2656
     15 C         -21.4603    1.2916   27.9834 C.3     1  UNL1        0.1551
@<TRIPOS>BOND
     1     1     8    1
     2     1     9    1
     3     9    10   ar
     4     9    11   ar
     5     5    12    1
     6    12    13    2
     7    12    14    1
     8    13    15    1
     9     1     2    1
    10     2     3   ar
    11     3     4   ar
    12     4     5   ar
    13     5     6   ar
    14     6     7   ar
    15     7     2   ar
