@<TRIPOS>MOLECULE
No_4442-gen_results/8p0m/2024-11-26-14-13-15/
 29 32 0 0 0
SMALL
GASTEIGER

@<TRIPOS>ATOM
      1 O         -28.1229   -1.3353   28.4874 O.2     1  UNL1       -0.2730
      2 C         -27.4806   -0.4044   28.7094 C.2     1  UNL1        0.2463
      3 C         -27.1904    0.2460   29.5268 C.3     1  UNL1        0.1036
      4 N         -26.6871   -0.0001   27.4423 N.am    1  UNL1       -0.1902
      5 C         -26.3501    1.4331   29.7418 C.3     1  UNL1        0.0169
      6 C         -25.8445    1.0999   27.3990 C.3     1  UNL1        0.1546
      7 C         -25.6695    1.8265   28.6078 C.3     1  UNL1        0.0393
      8 C         -27.8616   -0.0980   30.9546 C.ar    1  UNL1        0.0251
      9 C         -29.0777    0.7053   31.1694 C.ar    1  UNL1       -0.0006
     10 C         -29.7865    0.3024   32.1263 C.ar    1  UNL1       -0.0001
     11 C         -29.4274   -0.8028   33.0351 C.ar    1  UNL1        0.0033
     12 C         -28.2944   -1.4998   32.7556 C.ar    1  UNL1        0.0417
     13 C         -27.4938   -1.1803   31.6667 C.ar    1  UNL1        0.1922
     14 N         -25.1643    1.2494   26.3175 N.3     1  UNL1       -0.2570
     15 C         -24.8779    0.5269   25.4204 C.3     1  UNL1        0.0909
     16 C         -24.4244    2.5423   26.1781 C.3     1  UNL1        0.0591
     17 C         -23.0534    2.5327   25.8845 C.3     1  UNL1        0.0174
     18 C         -25.1722    3.6661   25.5523 C.3     1  UNL1        0.0174
     19 O         -26.4139   -1.8536   31.3040 O.3     1  UNL1       -0.2869
     20 C         -31.0124    1.1210   32.5505 C.ar    1  UNL1       -0.0000
     21 C         -32.0586    0.8793   32.1240 C.ar    1  UNL1       -0.0000
     22 C         -33.2552    1.7156   32.4064 C.ar    1  UNL1       -0.0000
     23 C         -33.0684    2.7694   33.3119 C.ar    1  UNL1        0.0000
     24 C         -31.8540    3.0237   33.8295 C.ar    1  UNL1       -0.0000
     25 C         -30.7613    2.2388   33.4681 C.ar    1  UNL1       -0.0000
     26 C         -34.2727    3.5911   33.6614 C.ar    1  UNL1        0.0000
     27 C         -34.0886    4.5286   34.5583 C.ar    1  UNL1        0.0000
     28 C         -32.7458    4.7780   35.0887 C.ar    1  UNL1        0.0000
     29 C         -31.6644    4.0856   34.7726 C.ar    1  UNL1        0.0000
@<TRIPOS>BOND
     1     1     2    2
     2     2     3    1
     3     2     4   am
     4     3     5    1
     5     6     7    1
     6     3     8    1
     7     6    14    1
     8    14    15    1
     9    14    16    1
    10    16    17    1
    11    16    18    1
    12    13    19    1
    13    10    20    1
    14     5     7    1
    15     6     4    1
    16    24    29   ar
    17    29    28   ar
    18    28    27   ar
    19    27    26   ar
    20    26    23   ar
    21     8     9   ar
    22     9    10   ar
    23    10    11   ar
    24    11    12   ar
    25    12    13   ar
    26    13     8   ar
    27    20    21   ar
    28    21    22   ar
    29    22    23   ar
    30    23    24   ar
    31    24    25   ar
    32    25    20   ar
