@<TRIPOS>MOLECULE
No_4443-gen_results/8p0m/2024-11-26-14-13-15/
 26 27 0 0 0
SMALL
GASTEIGER

@<TRIPOS>ATOM
      1 C         -28.0162   -0.8135   28.8779 C.ar    1  UNL1        0.0064
      2 C         -28.4690   -0.7850   29.8287 C.ar    1  UNL1        0.0757
      3 C         -26.5455   -0.8762   28.8500 C.ar    1  UNL1        0.0002
      4 C         -25.8041   -1.0324   30.0571 C.ar    1  UNL1        0.0000
      5 C         -27.9437   -0.9869   31.2075 C.ar    1  UNL1        0.0064
      6 C         -24.4008   -1.0969   30.0965 C.ar    1  UNL1        0.0000
      7 C         -26.5612   -1.0746   31.2270 C.ar    1  UNL1        0.0002
      8 C         -23.7638   -1.1467   30.8905 C.ar    1  UNL1        0.0000
      9 C         -22.2432   -1.0645   30.9799 C.ar    1  UNL1        0.0000
     10 C         -21.6912   -0.8391   29.7618 C.ar    1  UNL1        0.0000
     11 C         -22.4311   -0.6908   28.5842 C.ar    1  UNL1        0.0000
     12 C         -23.8512   -0.8076   28.7241 C.ar    1  UNL1        0.0000
     13 C         -30.0805   -0.6738   29.8803 C.2     1  UNL1        0.3416
     14 O         -30.5926    0.2901   30.5079 O.3     1  UNL1       -0.4378
     15 O         -30.7201   -1.4737   29.2016 O.2     1  UNL1       -0.2449
     16 C         -31.5549    0.9306   30.2134 C.3     1  UNL1        0.2653
     17 C         -31.4953    2.0234   29.3452 C.2     1  UNL1        0.1552
     18 CL        -32.1628    2.7314   28.5521 Cl      1  UNL1       -0.0627
     19 N         -30.0308    2.4270   29.3303 N.2     1  UNL1       -0.2551
     20 C         -29.5642    3.4333   28.4622 C.3     1  UNL1        0.1524
     21 C         -28.2711    3.1867   27.9604 C.2     1  UNL1       -0.0000
     22 C         -27.1713    3.2382   28.8542 C.2     1  UNL1       -0.0026
     23 C         -25.8963    2.8114   28.4247 C.2     1  UNL1       -0.0003
     24 C         -24.7996    2.7867   29.3900 C.2     1  UNL1       -0.0000
     25 C         -25.0172    3.1359   30.7318 C.2     1  UNL1       -0.0000
     26 C         -26.2519    3.5664   31.1550 C.2     1  UNL1       -0.0000
@<TRIPOS>BOND
     1     4     6    1
     2     2    13    1
     3    13    14    1
     4    13    15    2
     5    14    16    1
     6    16    17    1
     7    17    18    1
     8    17    19    2
     9    19    20    1
    10    20    21    1
    11    21    22    2
    12    22    23    1
    13    23    24    2
    14    24    25    1
    15    25    26    2
    16     6     8   ar
    17     8     9   ar
    18     9    10   ar
    19    10    11   ar
    20    11    12   ar
    21    12     6   ar
    22     1     2   ar
    23     2     5   ar
    24     5     7   ar
    25     7     4   ar
    26     4     3   ar
    27     3     1   ar
