@<TRIPOS>MOLECULE
No_4444-gen_results/8p0m/2024-11-26-14-13-15/
 10 10 0 0 0
SMALL
GASTEIGER

@<TRIPOS>ATOM
      1 C         -28.0162   -0.8135   28.8779 C.ar    1  UNL1        0.0192
      2 C         -27.0636   -0.1189   28.6079 C.ar    1  UNL1        0.0859
      3 C         -25.7923   -0.4302   29.0761 C.ar    1  UNL1        0.0192
      4 C         -25.5314   -1.5876   29.6105 C.ar    1  UNL1        0.0015
      5 C         -26.6366   -2.4336   29.9654 C.ar    1  UNL1        0.0001
      6 C         -27.8411   -2.0285   29.6196 C.ar    1  UNL1        0.0015
      7 N         -27.1705    1.1462   27.9776 N.2     1  UNL1       -0.1928
      8 C         -27.8033    1.9438   28.0076 C.2     1  UNL1        0.3657
      9 F         -28.8303    1.9599   28.7242 F       1  UNL1       -0.1503
     10 F         -27.7076    3.0276   27.2178 F       1  UNL1       -0.1503
@<TRIPOS>BOND
     1     2     7    1
     2     7     8    2
     3     8     9    1
     4     8    10    1
     5     1     2   ar
     6     2     3   ar
     7     3     4   ar
     8     4     5   ar
     9     5     6   ar
    10     6     1   ar
