@<TRIPOS>MOLECULE
No_4446-gen_results/8p0m/2024-11-26-14-13-15/
 14 14 0 0 0
SMALL
GASTEIGER

@<TRIPOS>ATOM
      1 C         -28.0162   -0.8135   28.8779 C.ar    1  UNL1       -0.0001
      2 C         -27.0636   -0.1190   28.6079 C.ar    1  UNL1        0.0038
      3 C         -26.9716    0.7139   27.5060 C.ar    1  UNL1        0.0714
      4 C         -28.1053    0.7744   26.6421 C.ar    1  UNL1        0.0077
      5 C         -29.2008    0.1044   27.0527 C.ar    1  UNL1        0.0714
      6 C         -29.2096   -0.6029   28.1853 C.ar    1  UNL1        0.0038
      7 C         -30.3702    0.2264   26.1604 C.3     1  UNL1        0.4186
      8 F         -30.8993    1.2632   26.1932 F       1  UNL1       -0.1659
      9 F         -31.2899   -0.7321   26.5963 F       1  UNL1       -0.1659
     10 F         -29.9088   -0.3679   25.0242 F       1  UNL1       -0.1659
     11 C         -25.6814    1.4090   27.1151 C.3     1  UNL1        0.4186
     12 F         -25.5264    2.4437   27.8115 F       1  UNL1       -0.1659
     13 F         -24.6400    0.6340   27.4606 F       1  UNL1       -0.1659
     14 F         -25.5981    1.6792   25.8227 F       1  UNL1       -0.1659
@<TRIPOS>BOND
     1     5     7    1
     2     7     8    1
     3     7     9    1
     4     7    10    1
     5     3    11    1
     6    11    12    1
     7    11    13    1
     8    11    14    1
     9     1     2   ar
    10     2     3   ar
    11     3     4   ar
    12     4     5   ar
    13     5     6   ar
    14     6     1   ar
