@<TRIPOS>MOLECULE
No_4447-gen_results/8p0m/2024-11-26-14-13-15/
 8 8 0 0 0
SMALL
GASTEIGER

@<TRIPOS>ATOM
      1 C         -28.0162   -0.8135   28.8779 C.2     1  UNL1        0.2342
      2 C         -27.0636   -0.1190   28.6079 C.ar    1  UNL1        0.0422
      3 C         -26.9716    0.7139   27.5060 C.ar    1  UNL1        0.0033
      4 C         -25.8205    1.4909   27.1160 C.ar    1  UNL1        0.0001
      5 C         -24.6562    1.4242   27.9180 C.ar    1  UNL1        0.0000
      6 C         -24.7114    0.5419   29.0507 C.ar    1  UNL1        0.0001
      7 C         -25.8042   -0.2058   29.3881 C.ar    1  UNL1        0.0033
      8 O         -29.0984   -0.4447   28.5318 O.2     1  UNL1       -0.2831
@<TRIPOS>BOND
     1     1     8    2
     2     1     2    1
     3     2     3   ar
     4     3     4   ar
     5     4     5   ar
     6     5     6   ar
     7     6     7   ar
     8     7     2   ar
