@<TRIPOS>MOLECULE
No_4449-gen_results/8p0m/2024-11-26-14-13-15/
 29 32 0 0 0
SMALL
GASTEIGER

@<TRIPOS>ATOM
      1 C         -28.0162   -0.8135   28.8779 C.ar    1  UNL1        0.0085
      2 C         -27.0636   -0.1189   28.6079 C.ar    1  UNL1       -0.0018
      3 C         -25.7647   -0.3897   29.0360 C.ar    1  UNL1       -0.0161
      4 C         -25.5296   -1.5302   29.9014 C.ar    1  UNL1       -0.0032
      5 C         -26.6888   -2.2893   30.1810 C.ar    1  UNL1        0.0111
      6 C         -27.8727   -1.9508   29.7373 C.ar    1  UNL1        0.0574
      7 CL        -29.2926   -2.7683   30.1523 Cl      1  UNL1       -0.0823
      8 C         -24.5222    0.4049   28.7207 C.3     1  UNL1        0.1002
      9 C         -24.0819    1.4019   29.5474 C.2     1  UNL1        0.2450
     10 O         -24.6013    1.7079   30.5859 O.2     1  UNL1       -0.2730
     11 N         -22.9138    2.1195   29.1200 N.am    1  UNL1       -0.2052
     12 C         -22.1510    1.8298   27.9401 C.3     1  UNL1        0.1152
     13 C         -23.6681    0.3026   27.5799 C.3     1  UNL1        0.0154
     14 C         -22.6300    0.9462   27.2473 C.3     1  UNL1        0.0243
     15 C         -27.1665    1.0708   27.6497 C.3     1  UNL1        0.1701
     16 CL        -27.7243    2.4042   28.3527 Cl      1  UNL1       -0.1007
     17 C         -27.9075    0.7217   26.4003 C.2     1  UNL1        0.1385
     18 C         -27.2141    0.7630   25.2138 C.2     1  UNL1        0.0266
     19 C         -25.8969    1.2453   25.3155 C.2     1  UNL1        0.0011
     20 C         -25.3329    2.0063   26.2528 C.2     1  UNL1        0.0186
     21 C         -25.9890    1.8715   27.5891 C.3     1  UNL1        0.2113
     22 O         -25.6689    2.7059   28.5198 O.3     1  UNL1       -0.4728
     23 C         -25.8570    4.1362   28.3664 C.ar    1  UNL1        0.1389
     24 C         -26.6952    4.7989   28.7644 C.ar    1  UNL1        0.0369
     25 C         -24.6058    4.6983   27.7011 C.ar    1  UNL1        0.0369
     26 C         -26.6832    6.2576   28.6365 C.ar    1  UNL1        0.0031
     27 C         -24.5736    6.1124   27.5290 C.ar    1  UNL1        0.0031
     28 C         -25.5870    6.8893   28.0301 C.ar    1  UNL1        0.0002
     29 F         -29.0147    0.1113   26.4731 F       1  UNL1       -0.2072
@<TRIPOS>BOND
     1     6     7    1
     2     3     8    1
     3     8     9    1
     4     9    10    2
     5     9    11   am
     6     8    13    1
     7    12    14    1
     8    13    14    1
     9     2    15    1
    10    15    16    1
    11    15    17    1
    12    17    18    2
    13    18    19    1
    14    19    20    2
    15    15    21    1
    16    20    21    1
    17    21    22    1
    18    22    23    1
    19    17    29    1
    20    12    11    1
    21     1     2   ar
    22     2     3   ar
    23     3     4   ar
    24     4     5   ar
    25     5     6   ar
    26     6     1   ar
    27    23    24   ar
    28    24    26   ar
    29    26    28   ar
    30    28    27   ar
    31    27    25   ar
    32    25    23   ar
