@<TRIPOS>MOLECULE
No_445-gen_results/8p0m/2024-11-26-14-13-15/
 4 3 0 0 0
SMALL
GASTEIGER

@<TRIPOS>ATOM
      1 C         -28.0162   -0.8135   28.8779 C.1     1  UNL1       -0.0779
      2 C         -28.4690   -0.7850   29.8287 C.1     1  UNL1       -0.0141
      3 C         -28.1915    0.1474   27.8715 C.3     1  UNL1        0.0771
      4 C         -29.2816    1.0120   27.9611 C.3     1  UNL1        0.0150
@<TRIPOS>BOND
     1     1     2    3
     2     1     3    1
     3     3     4    1
