@<TRIPOS>MOLECULE
No_4450-gen_results/8p0m/2024-11-26-14-13-15/
 13 14 0 0 0
SMALL
GASTEIGER

@<TRIPOS>ATOM
      1 C         -28.0162   -0.8135   28.8779 C.ar    1  UNL1        0.0066
      2 C         -27.0636   -0.1190   28.6079 C.ar    1  UNL1        0.0006
      3 C         -25.7647   -0.3897   29.0360 C.ar    1  UNL1        0.0064
      4 C         -25.5296   -1.5302   29.9014 C.ar    1  UNL1        0.0006
      5 C         -26.6577   -2.2915   30.2035 C.ar    1  UNL1        0.0066
      6 C         -27.8548   -1.9555   29.7630 C.ar    1  UNL1        0.0798
      7 C         -24.5349    0.4128   28.7431 C.2     1  UNL1        0.0555
      8 C         -24.0543    1.3255   29.5757 C.1     1  UNL1       -0.0101
      9 N         -22.9482    2.0148   29.1082 N.2     1  UNL1       -0.2234
     10 C         -23.5541    1.1527   27.8682 C.3     1  UNL1        0.1708
     11 C         -29.0033   -2.7966   30.1761 C.2     1  UNL1        0.3878
     12 O         -30.0600   -2.4652   30.0559 O.co2   1  UNL1       -0.2406
     13 O         -28.7044   -3.9656   30.7692 O.co2   1  UNL1       -0.2406
@<TRIPOS>BOND
     1     3     7    1
     2     7     8    2
     3     8     9    2
     4     7    10    1
     5     9    10    1
     6     6    11    1
     7    11    12   ar
     8    11    13   ar
     9     1     2   ar
    10     2     3   ar
    11     3     4   ar
    12     4     5   ar
    13     5     6   ar
    14     6     1   ar
