@<TRIPOS>MOLECULE
No_4452-gen_results/8p0m/2024-11-26-14-13-15/
 20 22 0 0 0
SMALL
GASTEIGER

@<TRIPOS>ATOM
      1 C         -28.0162   -0.8135   28.8779 C.3     1  UNL1        0.0526
      2 C         -27.0636   -0.1190   28.6079 C.ar    1  UNL1       -0.0178
      3 C         -25.7923   -0.4302   29.0761 C.ar    1  UNL1       -0.0037
      4 C         -24.5456    0.3494   28.8225 C.ar    1  UNL1        0.0077
      5 C         -24.6586    1.4196   27.8878 C.ar    1  UNL1        0.0975
      6 C         -25.9471    1.6811   27.3792 C.ar    1  UNL1        0.0077
      7 C         -27.0439    0.9739   27.6871 C.ar    1  UNL1       -0.0037
      8 C         -29.2364   -0.0611   29.2668 C.ar    1  UNL1       -0.0178
      9 C         -29.8066   -0.3562   30.3832 C.ar    1  UNL1       -0.0039
     10 C         -30.9421    0.4176   30.8227 C.ar    1  UNL1       -0.0003
     11 C         -31.4533    1.3446   29.9244 C.ar    1  UNL1       -0.0000
     12 C         -30.8565    1.5531   28.7362 C.ar    1  UNL1       -0.0003
     13 C         -29.7215    0.8825   28.3822 C.ar    1  UNL1       -0.0036
     14 C         -23.4626    2.1556   27.5834 C.2     1  UNL1        0.4766
     15 N         -22.2478    1.7232   28.0600 N.pl3   1  UNL1        0.2047
     16 N         -23.4813    3.0305   26.5794 N.pl3   1  UNL1        0.2047
     17 C         -31.3791    2.6117   27.8183 C.ar    1  UNL1       -0.0000
     18 C         -31.1231    2.5655   26.5795 C.ar    1  UNL1       -0.0000
     19 C         -29.9695    1.7719   26.1545 C.ar    1  UNL1       -0.0000
     20 C         -29.2906    0.9858   27.0100 C.ar    1  UNL1       -0.0003
@<TRIPOS>BOND
     1     1     2    1
     2     1     8    1
     3     5    14    1
     4    14    15    2
     5    14    16    1
     6     2     3   ar
     7     3     4   ar
     8     4     5   ar
     9     5     6   ar
    10     6     7   ar
    11     7     2   ar
    12    13    20   ar
    13    20    19   ar
    14    19    18   ar
    15    18    17   ar
    16    17    12   ar
    17     8     9   ar
    18     9    10   ar
    19    10    11   ar
    20    11    12   ar
    21    12    13   ar
    22    13     8   ar
