@<TRIPOS>MOLECULE
No_4454-gen_results/8p0m/2024-11-26-14-13-15/
 22 22 0 0 0
SMALL
GASTEIGER

@<TRIPOS>ATOM
      1 C         -28.0162   -0.8135   28.8779 C.ar    1  UNL1        0.0537
      2 C         -27.0636   -0.1189   28.6079 C.ar    1  UNL1        0.0045
      3 C         -26.9716    0.7139   27.5060 C.ar    1  UNL1        0.0003
      4 C         -28.1053    0.7744   26.6421 C.ar    1  UNL1        0.0046
      5 C         -29.2008    0.1044   27.0527 C.ar    1  UNL1        0.0552
      6 C         -29.2096   -0.6029   28.1853 C.ar    1  UNL1        0.0091
      7 C         -30.3749    0.2232   26.1670 C.2     1  UNL1        0.2648
      8 O         -30.3266    0.0573   24.9664 O.2     1  UNL1       -0.2684
      9 N         -31.6321    0.2796   26.7595 N.am    1  UNL1       -0.1998
     10 C         -32.7999    0.2424   25.9576 C.3     1  UNL1        0.1388
     11 C         -28.0347   -1.6638   30.1457 C.2     1  UNL1        0.2491
     12 N         -28.6980   -1.5835   31.0839 N.am    1  UNL1       -0.2740
     13 O         -26.9661   -2.4641   30.2379 O.2     1  UNL1       -0.2699
     14 C         -28.7127   -2.5068   32.2349 C.3     1  UNL1        0.0984
     15 C         -29.9076   -0.6249   31.1368 C.3     1  UNL1        0.1152
     16 C         -30.0742   -2.6061   32.9080 C.3     1  UNL1        0.0472
     17 C         -30.6951   -3.2403   32.2463 C.2     1  UNL1       -0.0286
     18 C         -31.5361   -4.1466   32.8796 C.2     1  UNL1       -0.0260
     19 C         -31.5131   -5.1652   32.9924 C.3     1  UNL1        0.0513
     20 C         -32.4412   -6.1502   33.6171 C.2     1  UNL1       -0.0260
     21 C         -33.6083   -5.6342   34.0611 C.2     1  UNL1       -0.0300
     22 C         -33.8281   -4.3093   33.9011 C.3     1  UNL1        0.0304
@<TRIPOS>BOND
     1     5     7    1
     2     7     8    2
     3     7     9   am
     4     9    10    1
     5     1    11    1
     6    11    12   am
     7    11    13    2
     8    12    14    1
     9    12    15    1
    10    14    16    1
    11    16    17    1
    12    17    18    2
    13    18    19    1
    14    19    20    1
    15    20    21    2
    16    21    22    1
    17     1     2   ar
    18     2     3   ar
    19     3     4   ar
    20     4     5   ar
    21     5     6   ar
    22     6     1   ar
