@<TRIPOS>MOLECULE
No_4455-gen_results/8p0m/2024-11-26-14-13-15/
 32 35 0 0 0
SMALL
GASTEIGER

@<TRIPOS>ATOM
      1 C         -28.0162   -0.8135   28.8779 C.ar    1  UNL1        0.0178
      2 C         -28.4690   -0.7850   29.8287 C.ar    1  UNL1        0.0769
      3 C         -26.5042   -0.7777   28.8766 C.ar    1  UNL1        0.0580
      4 C         -25.8103   -0.8531   30.1028 C.ar    1  UNL1        0.0135
      5 C         -27.9906   -0.8916   31.2257 C.ar    1  UNL1        0.0065
      6 C         -26.6042   -0.8676   31.2652 C.ar    1  UNL1        0.0011
      7 C         -30.0739   -0.8360   29.8615 C.2     1  UNL1        0.3457
      8 O         -30.6891   -1.6554   30.2229 O.2     1  UNL1       -0.2445
      9 O         -30.6062    0.2402   29.2675 O.3     1  UNL1       -0.4210
     10 CL        -25.5451   -0.7085   27.4807 Cl      1  UNL1       -0.0822
     11 C         -31.7044    0.5236   29.0789 C.ar    1  UNL1        0.1488
     12 C         -32.0453    0.7836   27.8976 C.ar    1  UNL1        0.0378
     13 C         -33.4500    1.0873   27.5326 C.ar    1  UNL1        0.0097
     14 C         -34.3801    1.1336   28.6032 C.ar    1  UNL1        0.0800
     15 C         -33.9256    0.8629   29.8674 C.ar    1  UNL1        0.0097
     16 C         -32.5919    0.5652   30.1568 C.ar    1  UNL1        0.0378
     17 C         -35.7406    1.4924   28.2924 C.2     1  UNL1        0.3878
     18 O         -36.3155    2.2539   28.9878 O.co2   1  UNL1       -0.2406
     19 O         -36.2358    0.9064   27.2277 O.co2   1  UNL1       -0.2406
     20 C         -24.3663   -0.8403   30.1987 C.ar    1  UNL1        0.0354
     21 C         -23.7069    0.0907   30.9156 C.ar    1  UNL1        0.1452
     22 C         -22.2873    0.2556   30.7481 C.ar    1  UNL1        0.0375
     23 C         -21.6939   -0.4729   29.6507 C.ar    1  UNL1        0.0031
     24 C         -22.4467   -1.3861   28.9257 C.ar    1  UNL1        0.0002
     25 C         -23.7722   -1.5955   29.1907 C.ar    1  UNL1        0.0031
     26 O         -24.2582    0.8102   31.9085 O.3     1  UNL1       -0.4535
     27 C         -24.4253    2.2103   31.6281 C.ar    1  UNL1        0.1453
     28 C         -25.3944    2.8698   32.5177 C.ar    1  UNL1        0.0375
     29 C         -25.4451    4.2466   32.4942 C.ar    1  UNL1        0.0031
     30 C         -24.9753    4.9036   31.3894 C.ar    1  UNL1        0.0002
     31 C         -24.3843    4.1807   30.3564 C.ar    1  UNL1        0.0031
     32 C         -24.0039    2.8376   30.5313 C.ar    1  UNL1        0.0375
@<TRIPOS>BOND
     1     2     7    1
     2     7     8    2
     3     7     9    1
     4     3    10    1
     5     9    11    1
     6    14    17    1
     7    17    18   ar
     8    17    19   ar
     9     4    20    1
    10    21    26    1
    11    26    27    1
    12    11    12   ar
    13    12    13   ar
    14    13    14   ar
    15    14    15   ar
    16    15    16   ar
    17    16    11   ar
    18    27    28   ar
    19    28    29   ar
    20    29    30   ar
    21    30    31   ar
    22    31    32   ar
    23    32    27   ar
    24     1     2   ar
    25     2     5   ar
    26     5     6   ar
    27     6     4   ar
    28     4     3   ar
    29     3     1   ar
    30    20    21   ar
    31    21    22   ar
    32    22    23   ar
    33    23    24   ar
    34    24    25   ar
    35    25    20   ar
