@<TRIPOS>MOLECULE
No_4456-gen_results/8p0m/2024-11-26-14-13-15/
 11 11 0 0 0
SMALL
GASTEIGER

@<TRIPOS>ATOM
      1 C         -28.0162   -0.8135   28.8779 C.ar    1  UNL1       -0.0003
      2 C         -27.0636   -0.1190   28.6079 C.ar    1  UNL1       -0.0040
      3 C         -25.7647   -0.3897   29.0360 C.ar    1  UNL1       -0.0184
      4 C         -25.5296   -1.5302   29.9014 C.ar    1  UNL1       -0.0040
      5 C         -26.6577   -2.2915   30.2035 C.ar    1  UNL1       -0.0003
      6 C         -27.8548   -1.9555   29.7630 C.ar    1  UNL1       -0.0000
      7 C         -24.5349    0.4128   28.7431 C.3     1  UNL1        0.0439
      8 C         -24.4835    1.2431   27.7398 C.2     1  UNL1       -0.0266
      9 C         -23.3130    1.8552   27.3514 C.2     1  UNL1       -0.0300
     10 C         -23.2550    2.8121   26.2799 C.3     1  UNL1        0.0304
     11 C         -23.5808    0.7453   29.8242 C.3     1  UNL1        0.0094
@<TRIPOS>BOND
     1     3     7    1
     2     7     8    1
     3     8     9    2
     4     9    10    1
     5     7    11    1
     6     1     2   ar
     7     2     3   ar
     8     3     4   ar
     9     4     5   ar
    10     5     6   ar
    11     6     1   ar
