@<TRIPOS>MOLECULE
No_4457-gen_results/8p0m/2024-11-26-14-13-15/
 15 16 0 0 0
SMALL
GASTEIGER

@<TRIPOS>ATOM
      1 C         -28.0162   -0.8135   28.8779 C.ar    1  UNL1        0.0029
      2 C         -28.4690   -0.7850   29.8287 C.ar    1  UNL1        0.0351
      3 C         -28.1816    0.4277   28.1134 C.ar    1  UNL1       -0.0142
      4 C         -27.4498    0.6435   26.8500 C.3     1  UNL1        0.0798
      5 C         -27.8596    1.4573   25.9076 C.3     1  UNL1        0.0117
      6 C         -29.4263    0.1097   30.4178 C.ar    1  UNL1        0.0181
      7 C         -29.6233    1.2198   29.7351 C.ar    1  UNL1        0.0579
      8 C         -28.9609    1.4529   28.5513 C.ar    1  UNL1        0.0076
      9 C         -27.1843    1.5820   24.6996 C.3     1  UNL1        0.0012
     10 C         -26.1000    0.7426   24.4149 C.3     1  UNL1        0.0078
     11 C         -25.6591   -0.1235   25.3867 C.3     1  UNL1        0.0648
     12 C         -26.2924   -0.2106   26.5790 C.2     1  UNL1        0.1543
     13 CL        -30.6781    2.4680   30.3297 Cl      1  UNL1       -0.0822
     14 BR        -28.0486   -2.3998   30.8819 Br      1  UNL1       -0.0490
     15 O         -25.6477   -1.0782   27.3290 O.2     1  UNL1       -0.2957
@<TRIPOS>BOND
     1     3     4    1
     2     5     9    1
     3    10    11    1
     4     4    12    1
     5    11    12    1
     6     7    13    1
     7     2    14    1
     8    12    15    2
     9     4     5    1
    10     9    10    1
    11     1     2   ar
    12     2     6   ar
    13     6     7   ar
    14     7     8   ar
    15     8     3   ar
    16     3     1   ar
