@<TRIPOS>MOLECULE
No_4458-gen_results/8p0m/2024-11-26-14-13-15/
 16 16 0 0 0
SMALL
GASTEIGER

@<TRIPOS>ATOM
      1 O         -28.1229   -1.3353   28.4874 O.3     1  UNL1       -0.2193
      2 C         -27.0637   -0.8242   28.8687 C.3     1  UNL1        0.1924
      3 C         -27.0246    0.1877   29.7358 C.3     1  UNL1        0.2008
      4 O         -26.0012    0.7006   29.9803 O.2     1  UNL1       -0.4701
      5 C         -24.9521    0.2361   29.6109 C.2     1  UNL1        0.1898
      6 C         -23.6978    1.1262   29.7483 C.1     1  UNL1        0.1660
      7 C         -25.7579   -1.0937   28.2743 C.3     1  UNL1        0.0454
      8 C         -24.6450   -0.2245   28.3266 C.3     1  UNL1        0.0782
      9 O         -23.1991    1.6754   28.8469 O.2     1  UNL1       -0.2283
     10 C         -28.2707    0.3707   30.5114 C.3     1  UNL1        0.0722
     11 C         -28.3230    1.2248   31.4997 C.2     1  UNL1       -0.0223
     12 C         -29.0834    1.6270   32.1490 C.2     1  UNL1       -0.0045
     13 C         -29.0369    2.6195   33.2612 C.2     1  UNL1       -0.0003
     14 C         -27.7784    3.2018   33.4970 C.2     1  UNL1       -0.0000
     15 C         -26.6842    2.7769   32.7021 C.2     1  UNL1       -0.0000
     16 C         -26.8998    1.8504   31.7634 C.2     1  UNL1       -0.0000
@<TRIPOS>BOND
     1     1     2    1
     2     2     3    1
     3     3     4    1
     4     4     5    1
     5     5     6    2
     6     2     7    1
     7     5     8    1
     8     7     8    1
     9     6     9    2
    10     3    10    1
    11    10    11    1
    12    11    12    2
    13    12    13    1
    14    13    14    2
    15    14    15    1
    16    15    16    2
