@<TRIPOS>MOLECULE
No_446-gen_results/8p0m/2024-11-26-14-13-15/
 14 14 0 0 0
SMALL
GASTEIGER

@<TRIPOS>ATOM
      1 C         -28.0162   -0.8135   28.8779 C.ar    1  UNL1       -0.0043
      2 C         -28.4690   -0.7850   29.8287 C.ar    1  UNL1       -0.0003
      3 C         -26.5455   -0.8762   28.8500 C.ar    1  UNL1       -0.0222
      4 C         -25.6825   -0.7773   27.6829 C.3     1  UNL1        0.0270
      5 C         -27.9181   -1.0034   31.1877 C.ar    1  UNL1       -0.0000
      6 C         -26.5308   -1.0794   31.2463 C.ar    1  UNL1       -0.0003
      7 C         -25.7798   -1.0462   30.0905 C.ar    1  UNL1       -0.0043
      8 C         -25.2322    0.5793   27.3292 C.3     1  UNL1        0.0134
      9 C         -23.9816    0.8698   27.7676 C.3     1  UNL1        0.0440
     10 C         -23.1871    0.2885   28.7222 C.2     1  UNL1       -0.0266
     11 C         -21.8601    0.5861   28.9922 C.2     1  UNL1       -0.0300
     12 C         -21.2146    1.5171   28.1759 C.3     1  UNL1        0.0304
     13 C         -23.2468    1.8808   26.8925 C.2     1  UNL1       -0.0221
     14 C         -23.9546    2.5523   25.9031 C.2     1  UNL1       -0.0046
@<TRIPOS>BOND
     1     3     4    1
     2     4     8    1
     3     8     9    1
     4     9    10    1
     5    10    11    2
     6    11    12    1
     7     9    13    1
     8    13    14    2
     9     1     2   ar
    10     2     5   ar
    11     5     6   ar
    12     6     7   ar
    13     7     3   ar
    14     3     1   ar
