@<TRIPOS>MOLECULE
No_4460-gen_results/8p0m/2024-11-26-14-13-15/
 8 7 0 0 0
SMALL
GASTEIGER

@<TRIPOS>ATOM
      1 O         -28.1229   -1.3353   28.4874 O.2     1  UNL1       -0.2733
      2 C         -27.4806   -0.4044   28.7094 C.2     1  UNL1        0.2414
      3 N         -26.4599   -0.1104   28.0051 N.am    1  UNL1       -0.2054
      4 C         -25.8102    0.6598   28.0792 C.3     1  UNL1        0.1151
      5 C         -25.8032    1.6173   29.1338 C.3     1  UNL1        0.0234
      6 C         -27.6891    0.2894   29.9988 C.3     1  UNL1        0.0868
      7 C         -26.7830    1.3987   30.1503 C.3     1  UNL1        0.0101
      8 C         -24.8568    2.7153   29.2955 C.3     1  UNL1        0.0019
@<TRIPOS>BOND
     1     1     2    2
     2     2     3   am
     3     3     4    1
     4     4     5    1
     5     2     6    1
     6     6     7    1
     7     5     8    1
