@<TRIPOS>MOLECULE
No_4461-gen_results/8p0m/2024-11-26-14-13-15/
 29 32 0 0 0
SMALL
GASTEIGER

@<TRIPOS>ATOM
      1 C         -28.0162   -0.8135   28.8779 C.ar    1  UNL1        0.0369
      2 C         -27.0636   -0.1190   28.6079 C.ar    1  UNL1        0.0028
      3 C         -25.7647   -0.3897   29.0360 C.ar    1  UNL1       -0.0027
      4 C         -25.5296   -1.5302   29.9014 C.ar    1  UNL1       -0.0031
      5 C         -24.3236   -1.9076   30.4324 C.3     1  UNL1        0.0993
      6 C         -27.9274   -1.9227   29.7902 C.ar    1  UNL1        0.1383
      7 C         -26.6914   -2.2806   30.2948 C.ar    1  UNL1        0.0340
      8 N         -23.2188   -1.1346   30.4668 N.3     1  UNL1       -0.2665
      9 C         -23.1482   -0.0632   31.3498 C.3     1  UNL1        0.0899
     10 C         -22.3526   -1.0008   29.3261 C.3     1  UNL1        0.0899
     11 O         -29.0261   -2.6089   30.1965 O.3     1  UNL1       -0.4753
     12 C         -28.9354   -3.9391   30.5037 C.3     1  UNL1        0.2094
     13 C         -30.2317   -4.6421   30.2179 C.3     1  UNL1        0.0895
     14 C         -30.9466   -4.2549   29.1756 C.3     1  UNL1        0.0247
     15 C         -32.3544   -4.4535   29.4087 C.3     1  UNL1        0.0717
     16 C         -33.2401   -3.5122   28.9397 C.3     1  UNL1        0.0836
     17 BR        -33.5743   -3.0782   27.7709 Br      1  UNL1       -0.0793
     18 N         -32.4453   -4.8961   30.7275 N.3     1  UNL1       -0.2461
     19 C         -31.1368   -4.9552   31.2688 C.3     1  UNL1        0.1853
     20 C         -33.5793   -5.2439   31.4603 C.3     1  UNL1        0.1007
     21 C         -33.4476   -5.4313   32.6173 C.ar    1  UNL1       -0.0100
     22 C         -33.8383   -5.4475   33.5923 C.ar    1  UNL1       -0.0032
     23 C         -33.4284   -5.8360   34.9790 C.ar    1  UNL1       -0.0003
     24 C         -32.1150   -6.2735   35.0285 C.ar    1  UNL1       -0.0003
     25 C         -31.3638   -6.3304   33.8898 C.ar    1  UNL1       -0.0045
     26 C         -31.8732   -5.9244   32.6955 C.ar    1  UNL1       -0.0247
     27 C         -31.7155   -7.4523   32.0430 C.3     1  UNL1        0.0302
     28 F         -31.0970   -4.1636   32.5264 F       1  UNL1       -0.2232
     29 C         -30.8281   -6.3682   31.2882 C.3     1  UNL1        0.0532
@<TRIPOS>BOND
     1     4     5    1
     2     5     8    1
     3     8     9    1
     4     8    10    1
     5     6    11    1
     6    11    12    1
     7    12    13    1
     8    13    14    1
     9    14    15    1
    10    15    16    1
    11    16    17    1
    12    15    18    1
    13    13    19    1
    14    18    19    1
    15    18    20    1
    16    26    27    1
    17    19    28    1
    18    19    29    1
    19    27    29    1
    20    20    21    1
    21    21    22   ar
    22    22    23   ar
    23    23    24   ar
    24    24    25   ar
    25    25    26   ar
    26    26    21   ar
    27     1     2   ar
    28     2     3   ar
    29     3     4   ar
    30     4     7   ar
    31     7     6   ar
    32     6     1   ar
