@<TRIPOS>MOLECULE
No_4462-gen_results/8p0m/2024-11-26-14-13-15/
 27 30 0 0 0
SMALL
GASTEIGER

@<TRIPOS>ATOM
      1 O         -28.1229   -1.3353   28.4874 O.2     1  UNL1       -0.2960
      2 C         -27.0637   -0.8242   28.8687 C.2     1  UNL1        0.1513
      3 C         -25.9464   -1.0396   28.8492 C.3     1  UNL1        0.0689
      4 C         -24.7602   -0.1562   29.1644 C.3     1  UNL1        0.0315
      5 C         -25.0917    1.0791   29.6491 C.3     1  UNL1        0.0096
      6 C         -26.4090    1.4383   29.7067 C.3     1  UNL1        0.0300
      7 C         -27.3694    0.6586   29.4148 C.3     1  UNL1        0.0689
      8 C         -23.3561   -0.5638   29.1206 C.ar    1  UNL1       -0.0029
      9 C         -22.4322    0.2418   28.4552 C.ar    1  UNL1       -0.0011
     10 C         -21.0484    0.0853   28.5561 C.ar    1  UNL1        0.0204
     11 C         -20.6724   -1.2295   28.9988 C.ar    1  UNL1        0.0989
     12 C         -22.9077   -1.7287   29.7088 C.ar    1  UNL1        0.0946
     13 N         -21.5142   -1.9686   29.6609 N.ar    1  UNL1       -0.2426
     14 C         -26.6981    2.8236   30.3289 C.ar    1  UNL1       -0.0221
     15 C         -27.2851    3.6488   29.6383 C.ar    1  UNL1       -0.0041
     16 C         -27.4114    4.8477   30.0498 C.ar    1  UNL1        0.0042
     17 C         -26.1940    3.0683   31.6347 C.ar    1  UNL1       -0.0041
     18 C         -26.3527    4.3531   32.2169 C.ar    1  UNL1        0.0042
     19 C         -27.0012    5.3241   31.3832 C.ar    1  UNL1        0.0536
     20 C         -27.1881    6.6716   31.9076 C.2     1  UNL1        0.2490
     21 N         -27.2812    6.9678   32.9430 N.am    1  UNL1       -0.2761
     22 O         -26.8605    7.6267   31.0580 O.2     1  UNL1       -0.2699
     23 C         -27.5522    6.0760   34.0759 C.3     1  UNL1        0.0937
     24 C         -27.9401    8.3034   33.2848 C.3     1  UNL1        0.0937
     25 C         -28.3900    8.4450   34.3685 C.3     1  UNL1        0.0216
     26 C         -27.9944    6.5071   35.3585 C.3     1  UNL1        0.0216
     27 C         -28.4471    7.7384   35.4858 C.3     1  UNL1        0.0035
@<TRIPOS>BOND
     1     1     2    2
     2     2     3    1
     3     3     4    1
     4     4     5    1
     5     5     6    1
     6     2     7    1
     7     6     7    1
     8     4     8    1
     9     6    14    1
    10    19    20    1
    11    20    21   am
    12    20    22    2
    13    21    23    1
    14    21    24    1
    15    25    27    1
    16    26    27    1
    17    23    26    1
    18    25    24    1
    19    14    15   ar
    20    15    16   ar
    21    16    19   ar
    22    19    18   ar
    23    18    17   ar
    24    17    14   ar
    25     8     9   ar
    26     9    10   ar
    27    10    11   ar
    28    11    13   ar
    29    13    12   ar
    30    12     8   ar
