@<TRIPOS>MOLECULE
No_4463-gen_results/8p0m/2024-11-26-14-13-15/
 20 21 0 0 0
SMALL
GASTEIGER

@<TRIPOS>ATOM
      1 C         -28.0162   -0.8135   28.8779 C.ar    1  UNL1        0.0296
      2 C         -27.0636   -0.1189   28.6079 C.ar    1  UNL1        0.1401
      3 C         -25.7647   -0.3897   29.0360 C.ar    1  UNL1        0.0272
      4 C         -25.5296   -1.5302   29.9014 C.ar    1  UNL1        0.0022
      5 C         -26.6888   -2.2893   30.1810 C.ar    1  UNL1        0.0001
      6 C         -27.8727   -1.9508   29.7373 C.ar    1  UNL1        0.0023
      7 C         -24.5491    0.4100   28.7341 C.2     1  UNL1       -0.0020
      8 C         -24.0931    1.3779   29.5761 C.2     1  UNL1       -0.0220
      9 C         -24.8271    1.7177   30.7369 C.3     1  UNL1        0.0443
     10 C         -25.4132    2.6265   31.0809 C.ar    1  UNL1       -0.0182
     11 C         -25.9138    3.1833   31.9018 C.ar    1  UNL1       -0.0040
     12 C         -26.5337    4.5118   31.9943 C.ar    1  UNL1       -0.0001
     13 C         -26.5151    5.2477   30.8409 C.ar    1  UNL1        0.0066
     14 C         -25.8909    4.7068   29.7359 C.ar    1  UNL1        0.0795
     15 C         -25.3592    3.6318   29.7983 C.ar    1  UNL1        0.0026
     16 C         -25.8209    5.5512   28.5028 C.2     1  UNL1        0.3877
     17 O         -26.6227    5.5091   27.7348 O.co2   1  UNL1       -0.2406
     18 O         -24.9637    6.6005   28.5028 O.co2   1  UNL1       -0.2406
     19 F         -27.1639    0.9367   27.7649 F       1  UNL1       -0.2042
     20 C         -24.6054    0.6582   31.8270 C.3     1  UNL1        0.0094
@<TRIPOS>BOND
     1     3     7    1
     2     7     8    2
     3     8     9    1
     4    14    16    1
     5    16    17   ar
     6    16    18   ar
     7     2    19    1
     8     9    20    1
     9     9    10    1
    10     1     2   ar
    11     2     3   ar
    12     3     4   ar
    13     4     5   ar
    14     5     6   ar
    15     6     1   ar
    16    10    11   ar
    17    11    12   ar
    18    12    13   ar
    19    13    14   ar
    20    14    15   ar
    21    15    10   ar
