@<TRIPOS>MOLECULE
No_4464-gen_results/8p0m/2024-11-26-14-13-15/
 30 32 0 0 0
SMALL
GASTEIGER

@<TRIPOS>ATOM
      1 C         -28.0162   -0.8135   28.8779 C.2     1  UNL1       -0.0061
      2 C         -27.0636   -0.1189   28.6079 C.2     1  UNL1       -0.0097
      3 C         -26.8756    1.1325   28.9134 C.3     1  UNL1        0.2130
      4 C         -25.6883    1.9515   28.5672 C.3     1  UNL1        0.2609
      5 C         -24.6394    1.2834   27.8753 C.3     1  UNL1        0.1198
      6 C         -24.8068   -0.0513   27.6040 C.3     1  UNL1        0.0167
      7 C         -25.9019   -0.7670   27.9511 C.3     1  UNL1        0.0253
      8 C         -28.6455   -0.5282   30.2428 C.2     1  UNL1       -0.0026
      9 C         -28.9122    0.7961   30.4353 C.2     1  UNL1        0.0059
     10 C         -27.6754    1.6491   30.0989 C.3     1  UNL1        0.1738
     11 C         -23.4710    1.9726   27.3666 C.2     1  UNL1        0.2450
     12 N         -22.2580    1.6266   27.6884 N.am    1  UNL1       -0.1904
     13 O         -23.6509    3.0201   26.6615 O.2     1  UNL1       -0.2732
     14 C         -21.8497    0.7029   28.6659 C.3     1  UNL1        0.1739
     15 C         -22.6681    0.1936   29.6065 C.3     1  UNL1        0.0415
     16 C         -25.6038    3.3719   28.9090 C.3     1  UNL1        0.4279
     17 F         -24.6414    3.9157   28.3448 F       1  UNL1       -0.1672
     18 F         -25.4342    3.4289   30.2590 F       1  UNL1       -0.1672
     19 F         -26.7919    3.8947   28.6229 F       1  UNL1       -0.1672
     20 CL        -20.2293    0.1766   28.5448 Cl      1  UNL1       -0.0910
     21 F         -26.0856    2.3128   27.5528 F       1  UNL1       -0.2275
     22 F         -27.8579    1.7366   27.9609 F       1  UNL1       -0.2299
     23 O         -27.9857    3.0172   30.3584 O.3     1  UNL1       -0.3439
     24 C         -28.2215    3.2785   31.7012 C.3     1  UNL1        0.1691
     25 C         -29.1312    4.1443   31.8695 C.ar    1  UNL1        0.0073
     26 C         -29.4587    4.4248   33.2307 C.ar    1  UNL1       -0.0019
     27 C         -30.3816    5.3658   33.6524 C.ar    1  UNL1       -0.0002
     28 C         -31.0658    6.0520   32.5972 C.ar    1  UNL1       -0.0000
     29 C         -30.7724    5.8208   31.2739 C.ar    1  UNL1       -0.0002
     30 C         -29.8090    4.8798   30.9189 C.ar    1  UNL1       -0.0019
@<TRIPOS>BOND
     1     1     2    2
     2     2     3    1
     3     3     4    1
     4     4     5    1
     5     5     6    1
     6     2     7    1
     7     6     7    1
     8     1     8    1
     9     8     9    2
    10     3    10    1
    11     9    10    1
    12     5    11    1
    13    11    12   am
    14    11    13    2
    15    12    14    1
    16    14    15    1
    17     4    16    1
    18    16    17    1
    19    16    18    1
    20    16    19    1
    21    14    20    1
    22     4    21    1
    23     3    22    1
    24    10    23    1
    25    23    24    1
    26    24    25    1
    27    25    26   ar
    28    26    27   ar
    29    27    28   ar
    30    28    29   ar
    31    29    30   ar
    32    30    25   ar
