@<TRIPOS>MOLECULE
No_4468-gen_results/8p0m/2024-11-26-14-13-15/
 14 14 0 0 0
SMALL
GASTEIGER

@<TRIPOS>ATOM
      1 C         -28.0162   -0.8135   28.8779 C.ar    1  UNL1        0.0235
      2 C         -28.4690   -0.7850   29.8287 C.ar    1  UNL1        0.0811
      3 C         -26.5042   -0.7777   28.8766 C.ar    1  UNL1        0.0760
      4 C         -25.8103   -0.8531   30.1028 C.ar    1  UNL1        0.0725
      5 C         -27.9906   -0.8916   31.2257 C.ar    1  UNL1        0.0075
      6 C         -26.6042   -0.8676   31.2652 C.ar    1  UNL1        0.0129
      7 CL        -24.1648   -0.7915   30.1717 Cl      1  UNL1       -0.0809
      8 C         -30.0984   -0.8773   30.0436 C.2     1  UNL1        0.3878
      9 O         -30.6870   -1.8267   30.2270 O.co2   1  UNL1       -0.2406
     10 O         -30.7157    0.2530   29.7288 O.co2   1  UNL1       -0.2406
     11 N         -25.8967   -0.6452   27.6433 N.pl3   1  UNL1       -0.2368
     12 C         -24.6683    0.0356   27.6409 C.3     1  UNL1        0.1122
     13 C         -24.0863    0.6463   28.4576 C.3     1  UNL1        0.0233
     14 C         -23.0498    1.7280   27.9821 C.3     1  UNL1        0.0019
@<TRIPOS>BOND
     1     4     7    1
     2     2     8    1
     3     8     9   ar
     4     8    10   ar
     5     3    11    1
     6    11    12    1
     7    12    13    1
     8    13    14    1
     9     1     2   ar
    10     2     5   ar
    11     5     6   ar
    12     6     4   ar
    13     4     3   ar
    14     3     1   ar
