@<TRIPOS>MOLECULE
No_4469-gen_results/8p0m/2024-11-26-14-13-15/
 19 21 0 0 0
SMALL
GASTEIGER

@<TRIPOS>ATOM
      1 C         -28.0162   -0.8135   28.8779 C.ar    1  UNL1       -0.0046
      2 C         -28.4690   -0.7850   29.8287 C.ar    1  UNL1       -0.0003
      3 C         -26.5455   -0.8762   28.8500 C.ar    1  UNL1       -0.0255
      4 C         -25.8041   -1.0324   30.0571 C.ar    1  UNL1       -0.0221
      5 C         -26.5373   -1.0386   31.2171 C.ar    1  UNL1       -0.0042
      6 C         -27.8843   -0.9532   31.1862 C.ar    1  UNL1       -0.0003
      7 C         -24.3655   -1.1134   30.0483 C.3     1  UNL1        0.0480
      8 C         -23.6925    0.1188   29.9185 C.2     1  UNL1       -0.0397
      9 C         -22.3936    0.1820   29.3480 C.2     1  UNL1       -0.0340
     10 C         -21.7683    1.3866   29.0594 C.3     1  UNL1        0.0254
     11 C         -23.8369    1.1990   30.9619 C.3     1  UNL1        0.0483
     12 C         -25.0683    1.2299   31.7149 C.ar    1  UNL1       -0.0181
     13 C         -25.3604    2.5437   32.3298 C.ar    1  UNL1       -0.0039
     14 C         -26.4907    2.6325   33.2069 C.ar    1  UNL1       -0.0003
     15 C         -27.1691    1.4709   33.4596 C.ar    1  UNL1       -0.0000
     16 C         -26.7382    0.2689   33.0774 C.ar    1  UNL1       -0.0003
     17 C         -25.6549    0.1693   32.2796 C.ar    1  UNL1       -0.0040
     18 C         -25.7710   -0.8163   27.5808 C.3     1  UNL1        0.0307
     19 C         -20.9188    1.3285   27.8682 C.3     1  UNL1        0.0050
@<TRIPOS>BOND
     1     4     7    1
     2     7     8    1
     3     8     9    2
     4     9    10    1
     5     8    11    1
     6    11    12    1
     7     5    17    1
     8     3    18    1
     9    10    19    1
    10    12    13   ar
    11    13    14   ar
    12    14    15   ar
    13    15    16   ar
    14    16    17   ar
    15    17    12   ar
    16     1     2   ar
    17     2     6   ar
    18     6     5   ar
    19     5     4   ar
    20     4     3   ar
    21     3     1   ar
