@<TRIPOS>MOLECULE
No_447-gen_results/8p0m/2024-11-26-14-13-15/
 6 5 0 0 0
SMALL
GASTEIGER

@<TRIPOS>ATOM
      1 CL        -28.1493   -0.8198   28.9079 Cl      1  UNL1       -0.0709
      2 C         -28.5324   -0.0471   29.7727 C.3     1  UNL1        0.3056
      3 F         -29.6682   -0.0995   30.1894 F       1  UNL1       -0.2131
      4 C         -27.6716    0.9796   30.3307 C.3     1  UNL1        0.3660
      5 F         -26.5889    1.0625   29.7491 F       1  UNL1       -0.1938
      6 F         -27.3385    0.7436   31.6394 F       1  UNL1       -0.1938
@<TRIPOS>BOND
     1     1     2    1
     2     2     3    1
     3     2     4    1
     4     4     5    1
     5     4     6    1
