@<TRIPOS>MOLECULE
No_4470-gen_results/8p0m/2024-11-26-14-13-15/
 13 13 0 0 0
SMALL
GASTEIGER

@<TRIPOS>ATOM
      1 C         -28.0162   -0.8135   28.8779 C.3     1  UNL1        0.1386
      2 C         -27.0636   -0.1190   28.6079 C.ar    1  UNL1       -0.0007
      3 C         -27.0010    0.6913   27.4910 C.ar    1  UNL1       -0.0026
      4 C         -25.7770    1.0214   26.9135 C.ar    1  UNL1       -0.0003
      5 C         -24.5088    0.7364   27.5686 C.ar    1  UNL1       -0.0000
      6 C         -24.5930   -0.0361   28.7390 C.ar    1  UNL1       -0.0003
      7 C         -25.8114   -0.4771   29.1584 C.ar    1  UNL1       -0.0026
      8 N         -28.6573   -0.5181   30.0595 N.pl3   1  UNL1       -0.2318
      9 C         -28.5990    0.4409   30.6248 C.2     1  UNL1        0.0762
     10 C         -28.7864    1.1060   31.4781 C.2     1  UNL1       -0.0041
     11 C         -28.9855    2.2977   32.1795 C.3     1  UNL1        0.0534
     12 C         -28.9021    3.3501   32.6360 C.2     1  UNL1       -0.0214
     13 C         -28.7089    4.4735   33.0837 C.2     1  UNL1       -0.0046
@<TRIPOS>BOND
     1     1     2    1
     2     1     8    1
     3     8     9    1
     4     9    10    2
     5    10    11    1
     6    11    12    1
     7    12    13    2
     8     2     3   ar
     9     3     4   ar
    10     4     5   ar
    11     5     6   ar
    12     6     7   ar
    13     7     2   ar
