@<TRIPOS>MOLECULE
No_4471-gen_results/8p0m/2024-11-26-14-13-15/
 18 19 0 0 0
SMALL
GASTEIGER

@<TRIPOS>ATOM
      1 C         -28.0162   -0.8135   28.8779 C.ar    1  UNL1        0.0045
      2 C         -28.4690   -0.7850   29.8287 C.ar    1  UNL1        0.0536
      3 C         -26.5455   -0.8762   28.8500 C.ar    1  UNL1        0.0040
      4 C         -25.8041   -1.0324   30.0571 C.ar    1  UNL1        0.0714
      5 C         -27.9437   -0.9869   31.2075 C.ar    1  UNL1        0.0045
      6 C         -26.5825   -1.0386   31.2231 C.ar    1  UNL1        0.0040
      7 C         -30.0606   -0.7371   29.9024 C.2     1  UNL1        0.2490
      8 O         -30.7252   -1.5544   30.2697 O.2     1  UNL1       -0.2699
      9 N         -30.5563    0.4242   29.3124 N.am    1  UNL1       -0.2761
     10 C         -31.9645    0.5638   29.1626 C.3     1  UNL1        0.0937
     11 C         -32.3342    1.5588   28.7573 C.3     1  UNL1        0.0216
     12 C         -31.4375    2.6379   28.2682 C.3     1  UNL1        0.0035
     13 C         -30.0453    2.4232   28.3605 C.3     1  UNL1        0.0216
     14 C         -29.5988    1.3754   28.9155 C.3     1  UNL1        0.0937
     15 C         -24.3713   -1.1927   30.0678 C.3     1  UNL1        0.4186
     16 F         -23.9378   -1.9936   29.2509 F       1  UNL1       -0.1659
     17 F         -23.7924    0.0498   29.7118 F       1  UNL1       -0.1659
     18 F         -23.8461   -1.3906   31.3333 F       1  UNL1       -0.1659
@<TRIPOS>BOND
     1     2     7    1
     2     7     8    2
     3     7     9   am
     4     9    10    1
     5    11    12    1
     6     9    14    1
     7    13    14    1
     8     4    15    1
     9    15    16    1
    10    15    17    1
    11    15    18    1
    12    10    11    1
    13    12    13    1
    14     1     2   ar
    15     2     5   ar
    16     5     6   ar
    17     6     4   ar
    18     4     3   ar
    19     3     1   ar
