@<TRIPOS>MOLECULE
No_4472-gen_results/8p0m/2024-11-26-14-13-15/
 17 17 0 0 0
SMALL
GASTEIGER

@<TRIPOS>ATOM
      1 C         -28.0162   -0.8135   28.8779 C.ar    1  UNL1        0.0160
      2 C         -28.4690   -0.7850   29.8287 C.ar    1  UNL1        0.0562
      3 C         -27.0871    0.2903   28.6377 C.ar    1  UNL1        0.0578
      4 C         -26.8317    1.2487   29.5869 C.ar    1  UNL1        0.0114
      5 C         -28.3914    0.0801   31.0065 C.ar    1  UNL1        0.0046
      6 C         -27.4940    1.1521   30.7841 C.ar    1  UNL1        0.0010
      7 CL        -26.2087    0.3944   27.1645 Cl      1  UNL1       -0.0822
      8 C         -29.4742   -1.9977   30.2381 C.2     1  UNL1        0.2688
      9 N         -30.5230   -1.8118   29.9909 N.am    1  UNL1       -0.1782
     10 O         -28.9442   -3.0974   30.6713 O.2     1  UNL1       -0.2680
     11 C         -31.5758   -2.7093   30.1400 C.2     1  UNL1        0.0744
     12 C         -32.7249   -2.3061   30.2496 C.2     1  UNL1        0.0149
     13 C         -31.4610   -3.8508   29.1336 C.3     1  UNL1        0.1956
     14 N         -30.8629   -4.8507   29.4428 N.3     1  UNL1       -0.1206
     15 C         -32.1077   -3.7672   27.8959 C.3     1  UNL1        0.3411
     16 F         -32.0047   -4.8406   27.2557 F       1  UNL1       -0.1964
     17 F         -33.3290   -3.4229   27.9163 F       1  UNL1       -0.1964
@<TRIPOS>BOND
     1     3     7    1
     2     2     8    1
     3     8     9   am
     4     8    10    2
     5     9    11    1
     6    11    12    2
     7    11    13    1
     8    13    14    1
     9    13    15    1
    10    15    16    1
    11    15    17    1
    12     1     2   ar
    13     2     5   ar
    14     5     6   ar
    15     6     4   ar
    16     4     3   ar
    17     3     1   ar
