@<TRIPOS>MOLECULE
No_4473-gen_results/8p0m/2024-11-26-14-13-15/
 35 35 0 0 0
SMALL
GASTEIGER

@<TRIPOS>ATOM
      1 F         -28.0727   -1.2542   28.5316 F       1  UNL1       -0.1629
      2 C         -27.0607   -0.6291   28.8721 C.3     1  UNL1        0.4833
      3 F         -26.4722   -0.5474   28.0086 F       1  UNL1       -0.1629
      4 C         -27.3730    0.6843   29.5311 C.3     1  UNL1        0.4550
      5 O         -26.6425    1.0972   30.0910 O.3     1  UNL1       -0.2874
      6 F         -26.4687   -1.3771   29.8544 F       1  UNL1       -0.1629
      7 F         -28.4802    0.4632   30.3622 F       1  UNL1       -0.1661
      8 C         -26.1185    2.4369   29.8440 C.3     1  UNL1        0.2554
      9 C         -24.8251    2.4298   29.2429 C.3     1  UNL1        0.3074
     10 O         -24.6699    2.9462   28.0506 O.3     1  UNL1       -0.2993
     11 C         -23.9446    2.2544   27.0319 C.3     1  UNL1        0.2710
     12 C         -26.0269    3.3346   31.1597 C.2     1  UNL1        0.2620
     13 O         -26.2334    4.4139   31.2649 O.2     1  UNL1       -0.2717
     14 N         -26.1263    2.4991   32.3811 N.am    1  UNL1       -0.2559
     15 C         -25.9853    1.1234   32.5574 C.3     1  UNL1        0.1101
     16 C         -26.9779    0.5581   33.5009 C.3     1  UNL1        0.1358
     17 C         -27.1400   -0.7842   33.3820 C.2     1  UNL1        0.3666
     18 O         -26.5467   -1.3734   32.4724 O.co2   1  UNL1       -0.2456
     19 O         -28.0454   -1.4584   33.9931 O.co2   1  UNL1       -0.2456
     20 C         -24.3649    1.0815   26.6692 C.3     1  UNL1        0.0697
     21 O         -23.9584    3.1777   25.8769 O.3     1  UNL1       -0.1899
     22 F         -27.9070    1.4728   28.5538 F       1  UNL1       -0.1661
     23 C         -26.2825    3.3921   33.5715 C.ar    1  UNL1        0.0540
     24 C         -27.5199    4.1092   33.6224 C.ar    1  UNL1        0.0162
     25 C         -27.5421    5.1713   33.9837 C.ar    1  UNL1        0.0178
     26 C         -26.4881    5.7092   34.9891 C.ar    1  UNL1        0.0706
     27 C         -25.2767    5.2121   34.7978 C.ar    1  UNL1        0.0178
     28 C         -25.1849    3.9488   34.1193 C.ar    1  UNL1        0.0162
     29 O         -23.6836    2.8404   30.0304 O.3     1  UNL1       -0.1865
     30 N         -26.4761    7.2153   35.1083 N.pl3   1  UNL1       -0.2112
     31 C         -26.3403    8.0330   34.1868 C.2     1  UNL1        0.0856
     32 C         -26.2726    7.7584   33.0046 C.2     1  UNL1        0.0175
     33 C         -25.9507    8.7532   31.9376 C.2     1  UNL1       -0.0032
     34 C         -25.8597    8.3846   30.5673 C.2     1  UNL1       -0.0257
     35 C         -26.0693    7.0231   30.2907 C.3     1  UNL1        0.0307
@<TRIPOS>BOND
     1     1     2    1
     2     2     3    1
     3     2     4    1
     4     4     5    1
     5     2     6    1
     6     4     7    1
     7     5     8    1
     8     8     9    1
     9     9    10    1
    10    10    11    1
    11     8    12    1
    12    12    13    2
    13    12    14   am
    14    14    15    1
    15    15    16    1
    16    16    17    1
    17    17    18   ar
    18    17    19   ar
    19    11    20    1
    20    11    21    1
    21     4    22    1
    22    14    23    1
    23     9    29    1
    24    26    30    1
    25    30    31    1
    26    31    32    2
    27    32    33    1
    28    33    34    2
    29    34    35    1
    30    23    24   ar
    31    24    25   ar
    32    25    26   ar
    33    26    27   ar
    34    27    28   ar
    35    28    23   ar
