@<TRIPOS>MOLECULE
No_4474-gen_results/8p0m/2024-11-26-14-13-15/
 24 26 0 0 0
SMALL
GASTEIGER

@<TRIPOS>ATOM
      1 C         -28.0162   -0.8135   28.8779 C.ar    1  UNL1       -0.0040
      2 C         -27.0636   -0.1190   28.6079 C.ar    1  UNL1       -0.0188
      3 C         -26.9287    1.1713   29.0083 C.ar    1  UNL1       -0.0079
      4 C         -27.9560    1.7411   29.7840 C.ar    1  UNL1       -0.0181
      5 C         -29.0569   -0.3271   29.7466 C.ar    1  UNL1       -0.0006
      6 C         -28.9828    0.9722   30.1516 C.ar    1  UNL1       -0.0040
      7 C         -25.8815   -0.6260   27.7945 C.3     1  UNL1        0.0439
      8 C         -25.4215    0.1302   26.7096 C.3     1  UNL1        0.0094
      9 C         -25.0332   -1.6821   28.2396 C.2     1  UNL1       -0.0263
     10 C         -24.3977   -1.7439   29.4802 C.2     1  UNL1       -0.0257
     11 C         -23.7356   -1.1139   30.0646 C.3     1  UNL1        0.0520
     12 C         -23.6232    0.0737   30.4991 C.ar    1  UNL1       -0.0178
     13 C         -24.4508    0.3955   31.5949 C.ar    1  UNL1       -0.0039
     14 C         -24.6857    1.7723   32.0506 C.ar    1  UNL1       -0.0003
     15 C         -23.9489    2.8017   31.3590 C.ar    1  UNL1       -0.0000
     16 C         -23.1173    2.4494   30.3323 C.ar    1  UNL1       -0.0003
     17 C         -22.9438    1.1590   29.8910 C.ar    1  UNL1       -0.0039
     18 C         -27.8833    3.2175   30.2149 C.3     1  UNL1        0.0526
     19 C         -27.3163    4.2359   29.4528 C.ar    1  UNL1       -0.0178
     20 C         -27.0609    4.0348   28.1186 C.ar    1  UNL1       -0.0039
     21 C         -26.3116    5.0628   27.4523 C.ar    1  UNL1       -0.0003
     22 C         -25.8729    6.1874   28.1399 C.ar    1  UNL1       -0.0000
     23 C         -26.1122    6.3518   29.4971 C.ar    1  UNL1       -0.0003
     24 C         -26.7693    5.3700   30.2059 C.ar    1  UNL1       -0.0039
@<TRIPOS>BOND
     1     2     7    1
     2     7     8    1
     3     7     9    1
     4     9    10    2
     5    10    11    1
     6     4    18    1
     7    18    19    1
     8    11    12    1
     9    12    13   ar
    10    13    14   ar
    11    14    15   ar
    12    15    16   ar
    13    16    17   ar
    14    17    12   ar
    15     1     2   ar
    16     2     3   ar
    17     3     4   ar
    18     4     6   ar
    19     6     5   ar
    20     5     1   ar
    21    19    20   ar
    22    20    21   ar
    23    21    22   ar
    24    22    23   ar
    25    23    24   ar
    26    24    19   ar
