@<TRIPOS>MOLECULE
No_4475-gen_results/8p0m/2024-11-26-14-13-15/
 23 26 0 0 0
SMALL
GASTEIGER

@<TRIPOS>ATOM
      1 N         -28.0544   -1.0498   28.7246 N.3     1  UNL1       -0.1855
      2 C         -26.9659   -0.4722   28.7709 C.3     1  UNL1        0.1750
      3 C         -26.8762    0.8133   29.2194 C.ar    1  UNL1        0.0121
      4 C         -25.6185    1.5510   29.2902 C.ar    1  UNL1        0.0182
      5 C         -25.5189    2.8929   29.6441 C.ar    1  UNL1        0.1349
      6 C         -26.7075    3.5500   30.0721 C.ar    1  UNL1        0.0398
      7 C         -27.8674    2.8638   30.0657 C.ar    1  UNL1        0.0450
      8 C         -27.9954    1.5592   29.6602 C.ar    1  UNL1        0.0019
      9 N         -25.8006   -1.2187   28.8291 N.pl3   1  UNL1       -0.2733
     10 C         -24.5950   -0.8774   28.3698 C.2     1  UNL1        0.0622
     11 C         -23.8282    0.2585   28.5988 C.2     1  UNL1       -0.0021
     12 C         -24.2294    1.1565   28.9447 C.3     1  UNL1        0.0919
     13 C         -25.9038   -2.5310   29.4573 C.2     1  UNL1        0.0322
     14 C         -24.8931   -3.4141   29.1999 C.2     1  UNL1        0.0114
     15 C         -27.0193   -2.9502   30.1782 C.3     1  UNL1        0.0704
     16 CA        -28.1911   -2.2256   30.1945 C.3     1  UNL1        0.1831
     17 C         -23.4273    2.4277   29.2173 C.3     1  UNL1        0.2141
     18 O         -24.2804    3.3812   29.6739 O.3     1  UNL1       -0.4751
     19 C         -29.4694   -2.3879   30.6126 C.2     1  UNL1        0.3807
     20 O         -29.7271   -3.3674   31.2325 O.co2   1  UNL1       -0.2441
     21 OXT       -30.1626   -1.4331   30.5059 O.co2   1  UNL1       -0.2441
     22 C         -29.1605    3.5605   30.5069 C.2     1  UNL1        0.2342
     23 O         -29.2806    4.5583   30.9974 O.2     1  UNL1       -0.2831
@<TRIPOS>BOND
     1     1     2    1
     2     2     9    1
     3     9    10    1
     4    10    11    2
     5     4    12    1
     6    11    12    1
     7     9    13    1
     8    13    14    2
     9    13    15    1
    10     1    16    1
    11    15    16    1
    12    12    17    1
    13     5    18    1
    14    17    18    1
    15    16    19    1
    16    19    20   ar
    17    19    21   ar
    18     7    22    1
    19    22    23    2
    20     2     3    1
    21     3     4   ar
    22     4     5   ar
    23     5     6   ar
    24     6     7   ar
    25     7     8   ar
    26     8     3   ar
