@<TRIPOS>MOLECULE
No_4476-gen_results/8p0m/2024-11-26-14-13-15/
 15 17 0 0 0
SMALL
GASTEIGER

@<TRIPOS>ATOM
      1 C         -28.0162   -0.8135   28.8779 C.ar    1  UNL1        0.0191
      2 C         -27.0636   -0.1189   28.6079 C.ar    1  UNL1        0.0809
      3 C         -26.9287    1.1713   29.0083 C.ar    1  UNL1        0.0137
      4 C         -25.7702    2.0341   28.6884 C.ar    1  UNL1       -0.0189
      5 C         -24.7141    1.4431   27.9188 C.ar    1  UNL1        0.0137
      6 C         -23.5566    2.1673   27.5933 C.ar    1  UNL1        0.0012
      7 C         -29.0912   -0.2748   29.7317 C.ar    1  UNL1        0.0015
      8 C         -29.0503    0.9872   30.1426 C.ar    1  UNL1        0.0001
      9 C         -27.9501    1.7660   29.8118 C.ar    1  UNL1        0.0012
     10 C         -26.1254    3.3688   27.9959 C.3     1  UNL1        0.0311
     11 C         -22.4318    1.4517   27.1091 C.ar    1  UNL1        0.0001
     12 C         -22.2768    0.1823   27.6381 C.ar    1  UNL1        0.0015
     13 C         -23.3259   -0.5137   28.2987 C.ar    1  UNL1        0.0191
     14 C         -24.4892    0.0649   28.4115 C.ar    1  UNL1        0.0809
     15 N         -25.7900   -0.7152   28.2156 N.ar    1  UNL1       -0.2454
@<TRIPOS>BOND
     1     4    10    1
     2     1     2   ar
     3     3     9   ar
     4     9     8   ar
     5     8     7   ar
     6     7     1   ar
     7     2     3   ar
     8     3     4   ar
     9     4     5   ar
    10    14    15   ar
    11    15     2   ar
    12     5     6   ar
    13     6    11   ar
    14    11    12   ar
    15    12    13   ar
    16    13    14   ar
    17    14     5   ar
