@<TRIPOS>MOLECULE
No_4477-gen_results/8p0m/2024-11-26-14-13-15/
 17 19 0 0 0
SMALL
GASTEIGER

@<TRIPOS>ATOM
      1 C         -28.0162   -0.8135   28.8779 C.3     1  UNL1        0.1382
      2 C         -27.0636   -0.1189   28.6079 C.ar    1  UNL1       -0.0046
      3 C         -26.9287    1.1713   29.0083 C.ar    1  UNL1       -0.0246
      4 C         -25.7702    2.0341   28.6884 C.ar    1  UNL1       -0.0257
      5 C         -24.7141    1.4431   27.9188 C.ar    1  UNL1       -0.0046
      6 C         -24.8590    0.0783   27.5836 C.ar    1  UNL1       -0.0006
      7 C         -25.9647   -0.6606   27.9164 C.ar    1  UNL1       -0.0029
      8 N         -29.1778   -0.3051   28.9638 N.pl3   1  UNL1       -0.2331
      9 C         -29.7430    0.3639   28.0670 C.ar    1  UNL1        0.0620
     10 C         -30.7508    0.3561   27.5991 C.ar    1  UNL1        0.0158
     11 C         -31.2813    1.1395   26.4774 C.ar    1  UNL1        0.0013
     12 C         -30.3812    2.1179   25.9807 C.ar    1  UNL1       -0.0002
     13 C         -29.1115    2.1999   26.4673 C.ar    1  UNL1       -0.0027
     14 C         -28.7233    1.3803   27.4476 C.ar    1  UNL1       -0.0036
     15 C         -27.4289    1.6718   28.0334 C.3     1  UNL1        0.0453
     16 C         -26.7320    2.6330   26.9909 C.3     1  UNL1        0.0094
     17 C         -24.8250    2.0729   30.0142 C.3     1  UNL1        0.0307
@<TRIPOS>BOND
     1     1     2    1
     2     1     8    1
     3     8     9    1
     4     3    15    1
     5    14    15    1
     6    15    16    1
     7     4    17    1
     8     2     3   ar
     9     3     4   ar
    10     4     5   ar
    11     5     6   ar
    12     6     7   ar
    13     7     2   ar
    14     9    10   ar
    15    10    11   ar
    16    11    12   ar
    17    12    13   ar
    18    13    14   ar
    19    14     9   ar
