@<TRIPOS>MOLECULE
No_4478-gen_results/8p0m/2024-11-26-14-13-15/
 21 23 0 0 0
SMALL
GASTEIGER

@<TRIPOS>ATOM
      1 C         -28.0162   -0.8135   28.8779 C.ar    1  UNL1        0.0217
      2 C         -27.0636   -0.1189   28.6079 C.ar    1  UNL1        0.0555
      3 C         -26.8756    1.1325   28.9134 C.ar    1  UNL1        0.0151
      4 C         -27.9014    1.8066   29.6436 C.ar    1  UNL1        0.0015
      5 C         -29.0458   -0.2316   29.7181 C.ar    1  UNL1        0.0810
      6 C         -28.9402    1.0517   30.0597 C.ar    1  UNL1        0.0067
      7 N         -26.0585   -0.8632   27.9084 N.pl3   1  UNL1       -0.2689
      8 C         -24.9484   -1.4918   28.5838 C.ar    1  UNL1        0.0553
      9 C         -23.8453   -1.0625   28.9262 C.ar    1  UNL1        0.0151
     10 C         -22.9488   -1.7987   29.6891 C.ar    1  UNL1        0.0013
     11 C         -25.4133   -2.6896   29.3014 C.ar    1  UNL1        0.0151
     12 C         -24.5416   -3.5078   29.9044 C.ar    1  UNL1        0.0013
     13 C         -23.3109   -2.9851   30.2254 C.ar    1  UNL1        0.0001
     14 C         -25.7561   -0.4769   26.5451 C.2     1  UNL1        0.0373
     15 C         -25.6934    0.5408   26.0302 C.2     1  UNL1        0.0107
     16 C         -25.4905    0.7180   24.6392 C.2     1  UNL1       -0.0032
     17 C         -25.6560   -0.5383   24.0078 C.2     1  UNL1       -0.0200
     18 C         -25.8498   -1.3037   25.3057 C.3     1  UNL1        0.0677
     19 C         -30.2397   -1.0455   30.1617 C.2     1  UNL1        0.3878
     20 O         -30.9183   -0.5400   31.0406 O.co2   1  UNL1       -0.2406
     21 O         -30.3996   -2.1585   29.6730 O.co2   1  UNL1       -0.2406
@<TRIPOS>BOND
     1     2     7    1
     2     7     8    1
     3     7    14    1
     4    14    15    2
     5    15    16    1
     6    16    17    2
     7    14    18    1
     8    17    18    1
     9     5    19    1
    10    19    20   ar
    11    19    21   ar
    12     8     9   ar
    13     9    10   ar
    14    10    13   ar
    15    13    12   ar
    16    12    11   ar
    17    11     8   ar
    18     1     2   ar
    19     2     3   ar
    20     3     4   ar
    21     4     6   ar
    22     6     5   ar
    23     5     1   ar
