@<TRIPOS>MOLECULE
No_448-gen_results/8p0m/2024-11-26-14-13-15/
 29 31 0 0 0
SMALL
GASTEIGER

@<TRIPOS>ATOM
      1 C         -28.0162   -0.8135   28.8779 C.ar    1  UNL1        0.0441
      2 C         -27.0636   -0.1189   28.6079 C.ar    1  UNL1        0.1455
      3 C         -26.9287    1.1713   29.0083 C.ar    1  UNL1        0.0375
      4 C         -27.9560    1.7411   29.7840 C.ar    1  UNL1        0.0032
      5 C         -29.0569   -0.3271   29.7466 C.ar    1  UNL1        0.0828
      6 C         -28.9828    0.9722   30.1516 C.ar    1  UNL1        0.0068
      7 O         -26.0447   -0.7682   27.9424 O.3     1  UNL1       -0.4535
      8 C         -24.9423   -0.0401   27.4562 C.ar    1  UNL1        0.1455
      9 C         -23.7645   -0.0749   27.9500 C.ar    1  UNL1        0.0423
     10 C         -25.2179    0.8099   26.3611 C.ar    1  UNL1        0.0375
     11 C         -24.2348    1.5354   25.8112 C.ar    1  UNL1        0.0033
     12 C         -22.6757    0.8113   27.5346 C.ar    1  UNL1        0.0624
     13 C         -22.9567    1.6687   26.4134 C.ar    1  UNL1        0.0050
     14 C         -21.3884    0.8836   28.1762 C.2     1  UNL1        0.2969
     15 C         -27.7960    3.1830   30.2112 C.ar    1  UNL1        0.0040
     16 C         -27.6836    4.1810   29.7817 C.ar    1  UNL1        0.0714
     17 C         -27.3951    5.4797   30.3612 C.ar    1  UNL1        0.0039
     18 C         -27.3171    5.4976   31.7444 C.ar    1  UNL1       -0.0001
     19 C         -27.3954    4.3068   32.4557 C.ar    1  UNL1       -0.0000
     20 C         -27.5575    3.0909   31.8215 C.ar    1  UNL1       -0.0000
     21 C         -30.2102   -1.1535   30.0573 C.2     1  UNL1        0.3879
     22 O         -30.9939   -0.7265   31.0981 O.co2   1  UNL1       -0.2406
     23 O         -30.4529   -2.1828   29.5088 O.co2   1  UNL1       -0.2406
     24 C         -27.7793    4.3405   28.2346 C.3     1  UNL1        0.4186
     25 F         -26.9952    5.1425   27.6885 F       1  UNL1       -0.1659
     26 F         -29.1184    4.6908   27.9791 F       1  UNL1       -0.1659
     27 F         -27.5483    3.1765   27.5288 F       1  UNL1       -0.1659
     28 N         -20.9997   -0.0266   29.0484 N.2     1  UNL1       -0.1025
     29 O         -20.5080    1.7337   27.7260 O.2     1  UNL1       -0.2636
@<TRIPOS>BOND
     1     2     7    1
     2     7     8    1
     3    12    14    1
     4     4    15    1
     5     5    21    1
     6    21    22   ar
     7    21    23   ar
     8    16    24    1
     9    24    25    1
    10    24    26    1
    11    24    27    1
    12    14    28    2
    13    14    29    1
    14    15    16   ar
    15    16    17   ar
    16    17    18   ar
    17    18    19   ar
    18    19    20   ar
    19    20    15   ar
    20     1     2   ar
    21     2     3   ar
    22     3     4   ar
    23     4     6   ar
    24     6     5   ar
    25     5     1   ar
    26     8     9   ar
    27     9    12   ar
    28    12    13   ar
    29    13    11   ar
    30    11    10   ar
    31    10     8   ar
