@<TRIPOS>MOLECULE
No_4480-gen_results/8p0m/2024-11-26-14-13-15/
 28 30 0 0 0
SMALL
GASTEIGER

@<TRIPOS>ATOM
      1 O         -28.1229   -1.3353   28.4874 O.2     1  UNL1       -0.2692
      2 C         -27.4806   -0.4044   28.7094 C.2     1  UNL1        0.2565
      3 C         -26.3804   -0.0867   27.9394 C.ar    1  UNL1        0.0542
      4 N         -27.6664    0.4468   29.8988 N.am    1  UNL1       -0.2329
      5 C         -25.1773   -0.4388   28.3946 C.ar    1  UNL1        0.0045
      6 C         -23.9281   -0.2469   27.6677 C.ar    1  UNL1        0.0001
      7 C         -24.0115    0.7683   26.6848 C.ar    1  UNL1        0.0000
      8 C         -25.2436    1.2341   26.2435 C.ar    1  UNL1        0.0001
      9 C         -26.3955    0.8712   26.8685 C.ar    1  UNL1        0.0044
     10 C         -28.7657    0.1195   30.7687 C.2     1  UNL1        0.0692
     11 C         -26.8570    1.5236   30.2067 C.ar    1  UNL1        0.0586
     12 C         -26.3372    1.6492   31.1156 C.ar    1  UNL1        0.0152
     13 C         -25.3948    2.8095   31.3256 C.ar    1  UNL1        0.0015
     14 C         -25.1330    3.6304   30.2418 C.ar    1  UNL1        0.0067
     15 C         -25.7782    3.3621   29.0389 C.ar    1  UNL1        0.0810
     16 C         -26.8684    2.4837   29.1366 C.ar    1  UNL1        0.0218
     17 C         -25.5688    4.4175   28.0028 C.2     1  UNL1        0.3878
     18 O         -24.6635    4.4853   27.4452 O.co2   1  UNL1       -0.2406
     19 O         -26.6554    5.1294   27.6788 O.co2   1  UNL1       -0.2406
     20 C         -27.6505    1.3809   26.3264 C.ar    1  UNL1        0.0001
     21 C         -28.2383    0.6796   25.2428 C.ar    1  UNL1        0.0000
     22 C         -29.5048    0.9316   24.8282 C.ar    1  UNL1        0.0000
     23 C         -30.3027    0.9583   25.4910 C.ar    1  UNL1        0.0000
     24 C         -30.1391    1.6205   26.8560 C.ar    1  UNL1        0.0000
     25 C         -28.7635    1.6777   27.3124 C.ar    1  UNL1        0.0000
     26 C         -28.5703   -0.5072   31.7498 C.2     1  UNL1        0.0108
     27 C         -27.5604   -0.9443   32.2518 C.3     1  UNL1        0.1367
     28 N         -26.3484   -0.7875   31.6491 N.3     1  UNL1       -0.1262
@<TRIPOS>BOND
     1     1     2    2
     2     2     3    1
     3     2     4   am
     4     4    10    1
     5     4    11    1
     6    15    17    1
     7    17    18   ar
     8    17    19   ar
     9     9    20    1
    10    10    26    2
    11    26    27    1
    12    27    28    1
    13    11    12   ar
    14    12    13   ar
    15    13    14   ar
    16    14    15   ar
    17    15    16   ar
    18    16    11   ar
    19     3     5   ar
    20     5     6   ar
    21     6     7   ar
    22     7     8   ar
    23     8     9   ar
    24     9     3   ar
    25    20    21   ar
    26    21    22   ar
    27    22    23   ar
    28    23    24   ar
    29    24    25   ar
    30    25    20   ar
