@<TRIPOS>MOLECULE
No_4481-gen_results/8p0m/2024-11-26-14-13-15/
 7 6 0 0 0
SMALL
GASTEIGER

@<TRIPOS>ATOM
      1 C         -28.0162   -0.8135   28.8779 C.1     1  UNL1       -0.0641
      2 C         -28.4690   -0.7850   29.8287 C.2     1  UNL1        0.0447
      3 C         -27.0871    0.2903   28.6377 C.1     1  UNL1       -0.0854
      4 C         -26.2688    0.3977   27.4231 C.3     1  UNL1        0.0903
      5 C         -28.3707    0.0720   31.0217 C.2     1  UNL1       -0.0173
      6 C         -27.4727    1.1392   30.8029 C.3     1  UNL1        0.0267
      7 C         -26.7836    1.2178   29.6346 C.3     1  UNL1        0.0050
@<TRIPOS>BOND
     1     1     2    1
     2     1     3    3
     3     3     4    1
     4     2     5    2
     5     5     6    1
     6     6     7    1
