@<TRIPOS>MOLECULE
No_4482-gen_results/8p0m/2024-11-26-14-13-15/
 19 20 0 0 0
SMALL
GASTEIGER

@<TRIPOS>ATOM
      1 C         -28.0162   -0.8135   28.8779 C.3     1  UNL1        0.0115
      2 C         -28.4690   -0.7850   29.8287 C.3     1  UNL1        0.0436
      3 C         -26.5042   -0.7777   28.8766 C.3     1  UNL1        0.0674
      4 C         -25.8305   -1.6808   29.6849 C.2     1  UNL1        0.1843
      5 C         -28.1491   -1.8854   30.9031 C.3     1  UNL1        0.1706
      6 C         -26.6460   -1.9561   31.0330 C.3     1  UNL1        0.2446
      7 O         -28.5823   -3.1584   30.5023 O.2     1  UNL1       -0.4558
      8 O         -26.1739   -0.8711   31.8577 O.3     1  UNL1       -0.2113
      9 O         -24.8148   -2.4089   29.3638 O.2     1  UNL1       -0.2933
     10 C         -28.5864   -1.7138   32.3478 C.3     1  UNL1        0.0548
     11 C         -29.1442   -4.0398   31.3426 C.2     1  UNL1        0.3183
     12 C         -29.9275   -1.3316   32.3999 C.3     1  UNL1        0.1148
     13 C         -30.8072   -2.4701   32.7021 C.3     1  UNL1        0.0864
     14 C         -30.1453   -3.9551   32.0842 C.2     1  UNL1        0.2363
     15 C         -30.1294   -0.2123   33.3838 C.2     1  UNL1        0.3649
     16 O         -30.3297    0.8069   33.0407 O.co2   1  UNL1       -0.2457
     17 O         -30.4491   -0.6571   34.6361 O.co2   1  UNL1       -0.2457
     18 O         -30.9537   -4.9417   32.4121 O.2     1  UNL1       -0.2855
     19 F         -28.0191   -4.5142   32.0321 F       1  UNL1       -0.1601
@<TRIPOS>BOND
     1     1     2    1
     2     1     3    1
     3     3     4    1
     4     2     5    1
     5     4     6    1
     6     5     6    1
     7     5     7    1
     8     6     8    1
     9     4     9    2
    10     5    10    1
    11     7    11    1
    12    10    12    1
    13    12    13    1
    14    11    14    2
    15    13    14    1
    16    12    15    1
    17    15    16   ar
    18    15    17   ar
    19    14    18    1
    20    11    19    1
