@<TRIPOS>MOLECULE
No_4484-gen_results/8p0m/2024-11-26-14-13-15/
 22 24 0 0 0
SMALL
GASTEIGER

@<TRIPOS>ATOM
      1 C         -28.0162   -0.8135   28.8779 C.ar    1  UNL1       -0.0016
      2 C         -27.0636   -0.1190   28.6079 C.ar    1  UNL1       -0.0180
      3 C         -27.0010    0.6913   27.4910 C.ar    1  UNL1       -0.0016
      4 C         -28.1373    0.7363   26.6350 C.ar    1  UNL1        0.0293
      5 C         -29.2360    0.0765   27.0690 C.ar    1  UNL1        0.1401
      6 C         -29.2177   -0.6429   28.1747 C.ar    1  UNL1        0.0293
      7 F         -30.3222    0.1455   26.3092 F       1  UNL1       -0.2042
      8 C         -25.7269   -0.1942   29.4070 C.3     1  UNL1        0.0482
      9 C         -25.2152    1.0353   30.0010 C.3     1  UNL1        0.0341
     10 C         -25.4617    1.3434   30.9908 C.2     1  UNL1       -0.0255
     11 C         -25.8203    2.2261   31.5573 C.2     1  UNL1       -0.0046
     12 C         -26.2306    3.4506   30.7978 C.2     1  UNL1       -0.0009
     13 C         -26.8331    4.5579   31.3175 C.2     1  UNL1       -0.0000
     14 C         -24.5353    1.9025   28.9662 C.3     1  UNL1        0.0270
     15 C         -25.0457    3.1658   28.5945 C.2     1  UNL1       -0.0436
     16 C         -25.7145    3.8153   29.5107 C.2     1  UNL1       -0.0079
     17 C         -27.1854    5.4852   30.5081 C.2     1  UNL1       -0.0000
     18 C         -26.3399    5.1404   29.1872 C.2     1  UNL1       -0.0006
     19 C         -24.5875    3.7306   27.3533 C.3     1  UNL1        0.0264
     20 C         -25.0243   -1.4115   29.4085 C.2     1  UNL1       -0.0263
     21 C         -25.4527   -2.5646   29.2189 C.2     1  UNL1       -0.0300
     22 C         -24.6786   -3.7716   29.2371 C.3     1  UNL1        0.0304
@<TRIPOS>BOND
     1     5     7    1
     2     2     8    1
     3     8     9    1
     4     9    10    1
     5    10    11    2
     6    11    12    1
     7    12    13    2
     8     9    14    1
     9    14    15    1
    10    12    16    1
    11    15    16    2
    12    13    17    1
    13    16    18    1
    14    17    18    2
    15    15    19    1
    16     8    20    1
    17    20    21    2
    18    21    22    1
    19     1     2   ar
    20     2     3   ar
    21     3     4   ar
    22     4     5   ar
    23     5     6   ar
    24     6     1   ar
