@<TRIPOS>MOLECULE
No_4485-gen_results/8p0m/2024-11-26-14-13-15/
 26 27 0 0 0
SMALL
GASTEIGER

@<TRIPOS>ATOM
      1 C         -28.0162   -0.8135   28.8779 C.ar    1  UNL1        0.0796
      2 C         -28.4690   -0.7850   29.8287 C.2     1  UNL1        0.3877
      3 C         -28.1816    0.4277   28.1134 C.ar    1  UNL1        0.0046
      4 C         -27.4498    0.6435   26.8500 C.ar    1  UNL1        0.0085
      5 C         -26.1815    0.0357   26.7145 C.ar    1  UNL1        0.1362
      6 C         -25.7800   -0.9326   27.6938 C.ar    1  UNL1        0.0295
      7 C         -26.5568   -1.2134   28.7413 C.ar    1  UNL1        0.0089
      8 O         -29.5813   -0.4021   30.1539 O.co2   1  UNL1       -0.2406
      9 O         -28.2893   -2.0458   30.6333 O.co2   1  UNL1       -0.2406
     10 F         -25.3727    0.2696   25.7018 F       1  UNL1       -0.2045
     11 C         -27.8011    1.6130   25.8311 C.3     1  UNL1        0.0657
     12 C         -28.3406    1.1569   24.6332 C.3     1  UNL1        0.0335
     13 C         -27.7624    2.9654   26.1727 C.3     1  UNL1        0.1875
     14 C         -28.5262    3.5676   27.0677 C.ar    1  UNL1        0.0102
     15 C         -29.5486    3.5217   27.3410 C.ar    1  UNL1       -0.0016
     16 C         -30.2260    4.2583   28.4238 C.ar    1  UNL1       -0.0002
     17 C         -29.4499    5.0357   29.2313 C.ar    1  UNL1       -0.0000
     18 C         -28.0936    5.1139   29.0399 C.ar    1  UNL1       -0.0002
     19 C         -27.5425    4.4324   27.9932 C.ar    1  UNL1       -0.0016
     20 C         -28.7551   -0.1676   24.5723 C.2     1  UNL1       -0.0219
     21 C         -30.1778   -0.3529   24.4714 C.2     1  UNL1        0.0708
     22 C         -30.6450   -1.6712   24.3411 C.3     1  UNL1        0.4182
     23 F         -31.6883   -2.0089   25.0258 F       1  UNL1       -0.1659
     24 F         -29.6669   -2.5320   24.7063 F       1  UNL1       -0.1659
     25 F         -30.8639   -1.8088   23.0428 F       1  UNL1       -0.1659
     26 F         -26.8985    3.6381   25.3838 F       1  UNL1       -0.2321
@<TRIPOS>BOND
     1     1     2    1
     2     2     8   ar
     3     2     9   ar
     4     5    10    1
     5     4    11    1
     6    11    12    1
     7    11    13    1
     8    13    14    1
     9    12    20    1
    10    20    21    2
    11    21    22    1
    12    22    23    1
    13    22    24    1
    14    22    25    1
    15    13    26    1
    16    14    15   ar
    17    15    16   ar
    18    16    17   ar
    19    17    18   ar
    20    18    19   ar
    21    19    14   ar
    22     1     3   ar
    23     3     4   ar
    24     4     5   ar
    25     5     6   ar
    26     6     7   ar
    27     7     1   ar
