@<TRIPOS>MOLECULE
No_4486-gen_results/8p0m/2024-11-26-14-13-15/
 14 15 0 0 0
SMALL
GASTEIGER

@<TRIPOS>ATOM
      1 C         -28.0162   -0.8135   28.8779 C.ar    1  UNL1        0.0372
      2 C         -28.4690   -0.7850   29.8287 C.ar    1  UNL1        0.0031
      3 C         -26.5455   -0.8762   28.8500 C.ar    1  UNL1        0.1417
      4 C         -25.8041   -1.0324   30.0571 C.ar    1  UNL1        0.0168
      5 C         -26.5373   -1.0386   31.2171 C.ar    1  UNL1       -0.0009
      6 C         -27.8929   -0.9601   31.1743 C.ar    1  UNL1       -0.0001
      7 O         -25.8001   -0.8259   27.7108 O.3     1  UNL1       -0.4511
      8 C         -24.5257   -0.3180   27.8415 C.2     1  UNL1        0.1794
      9 C         -24.3971   -0.9843   30.0860 C.3     1  UNL1        0.0629
     10 C         -23.6959   -0.6545   28.8571 C.2     1  UNL1        0.0911
     11 C         -22.2780   -0.4109   28.8308 C.3     1  UNL1        0.4181
     12 F         -22.0038    0.3088   29.9331 F       1  UNL1       -0.1660
     13 F         -22.2151    0.1118   27.7327 F       1  UNL1       -0.1660
     14 F         -21.6186   -1.5450   28.8928 F       1  UNL1       -0.1660
@<TRIPOS>BOND
     1     3     7    1
     2     7     8    1
     3     4     9    1
     4     8    10    2
     5     9    10    1
     6    10    11    1
     7    11    12    1
     8    11    13    1
     9    11    14    1
    10     1     2   ar
    11     2     6   ar
    12     6     5   ar
    13     5     4   ar
    14     4     3   ar
    15     3     1   ar
