@<TRIPOS>MOLECULE
No_4487-gen_results/8p0m/2024-11-26-14-13-15/
 19 21 0 0 0
SMALL
GASTEIGER

@<TRIPOS>ATOM
      1 C         -28.0162   -0.8135   28.8779 C.ar    1  UNL1        0.0375
      2 C         -28.4690   -0.7850   29.8287 C.ar    1  UNL1        0.1453
      3 C         -26.5042   -0.7777   28.8766 C.ar    1  UNL1        0.0031
      4 C         -25.8103   -0.8531   30.1028 C.ar    1  UNL1        0.0002
      5 C         -27.9906   -0.8916   31.2257 C.ar    1  UNL1        0.0375
      6 C         -24.3976   -0.8364   30.1775 C.ar    1  UNL1        0.0000
      7 C         -26.5754   -0.8899   31.2661 C.ar    1  UNL1        0.0031
      8 C         -23.7708   -0.9176   31.0960 C.ar    1  UNL1        0.0000
      9 C         -22.3018   -0.8443   31.2151 C.ar    1  UNL1        0.0000
     10 C         -21.6829   -0.5879   30.0577 C.ar    1  UNL1        0.0000
     11 C         -23.6382   -0.6309   28.9339 C.ar    1  UNL1        0.0000
     12 C         -22.3460   -0.4649   28.8964 C.ar    1  UNL1        0.0000
     13 O         -29.9463   -0.7608   29.8371 O.3     1  UNL1       -0.4535
     14 C         -30.5466   -0.1008   28.9285 C.ar    1  UNL1        0.1453
     15 C         -30.2813    1.0693   28.6183 C.ar    1  UNL1        0.0375
     16 C         -30.7560    1.6927   27.4869 C.ar    1  UNL1        0.0031
     17 C         -31.6254   -0.7861   28.2528 C.ar    1  UNL1        0.0375
     18 C         -32.2353   -0.2186   27.1334 C.ar    1  UNL1        0.0031
     19 C         -31.8415    1.0840   26.8087 C.ar    1  UNL1        0.0002
@<TRIPOS>BOND
     1     4     6    1
     2     2    13    1
     3    13    14    1
     4     6     8   ar
     5     8     9   ar
     6     9    10   ar
     7    10    12   ar
     8    12    11   ar
     9    11     6   ar
    10    14    15   ar
    11    15    16   ar
    12    16    19   ar
    13    19    18   ar
    14    18    17   ar
    15    17    14   ar
    16     1     2   ar
    17     2     5   ar
    18     5     7   ar
    19     7     4   ar
    20     4     3   ar
    21     3     1   ar
