@<TRIPOS>MOLECULE
No_4488-gen_results/8p0m/2024-11-26-14-13-15/
 20 21 0 0 0
SMALL
GASTEIGER

@<TRIPOS>ATOM
      1 C         -28.0162   -0.8135   28.8779 C.ar    1  UNL1       -0.0042
      2 C         -28.4690   -0.7850   29.8287 C.ar    1  UNL1       -0.0003
      3 C         -26.5042   -0.7777   28.8766 C.ar    1  UNL1       -0.0215
      4 C         -25.6540   -0.6597   27.7191 C.3     1  UNL1        0.0351
      5 C         -27.9180   -0.9374   31.1824 C.ar    1  UNL1       -0.0000
      6 C         -26.5423   -0.9399   31.2606 C.ar    1  UNL1       -0.0003
      7 C         -25.7832   -0.8935   30.1201 C.ar    1  UNL1       -0.0042
      8 C         -25.2204    0.6866   27.3939 C.3     1  UNL1        0.0486
      9 C         -23.9014    0.8981   27.7598 C.ar    1  UNL1       -0.0181
     10 C         -23.1016    0.3129   28.6912 C.ar    1  UNL1       -0.0039
     11 C         -21.7291    0.5461   28.8593 C.ar    1  UNL1       -0.0003
     12 C         -21.1130    1.4709   28.0200 C.ar    1  UNL1       -0.0000
     13 C         -23.0981    1.7325   26.8045 C.ar    1  UNL1       -0.0039
     14 C         -21.7847    2.0262   26.9722 C.ar    1  UNL1       -0.0003
     15 C         -26.0123    1.5826   26.7550 C.2     1  UNL1       -0.0217
     16 C         -26.5859    1.4567   25.6490 C.2     1  UNL1       -0.0046
     17 C         -26.6011    0.2581   24.8493 C.2     1  UNL1       -0.0049
     18 C         -27.5219   -0.0437   23.8576 C.2     1  UNL1       -0.0261
     19 C         -28.6861    0.8612   23.8364 C.3     1  UNL1        0.0260
     20 C         -29.7953    0.6021   23.1273 C.3     1  UNL1        0.0050
@<TRIPOS>BOND
     1     3     4    1
     2     4     8    1
     3     8     9    1
     4     8    15    1
     5    15    16    2
     6    16    17    1
     7    17    18    2
     8    18    19    1
     9    19    20    1
    10     1     2   ar
    11     2     5   ar
    12     5     6   ar
    13     6     7   ar
    14     7     3   ar
    15     3     1   ar
    16     9    10   ar
    17    10    11   ar
    18    11    12   ar
    19    12    14   ar
    20    14    13   ar
    21    13     9   ar
