@<TRIPOS>MOLECULE
No_4489-gen_results/8p0m/2024-11-26-14-13-15/
 22 23 0 0 0
SMALL
GASTEIGER

@<TRIPOS>ATOM
      1 C         -28.0162   -0.8135   28.8779 C.ar    1  UNL1        0.1663
      2 C         -27.0636   -0.1189   28.6079 C.ar    1  UNL1        0.0392
      3 C         -25.7647   -0.3897   29.0360 C.ar    1  UNL1        0.0032
      4 C         -25.5296   -1.5302   29.9014 C.ar    1  UNL1        0.0025
      5 C         -26.6888   -2.2893   30.1810 C.ar    1  UNL1        0.0328
      6 C         -27.8727   -1.9508   29.7373 C.ar    1  UNL1        0.1738
      7 C         -24.5491    0.4100   28.7341 C.ar    1  UNL1        0.0023
      8 C         -24.4789    1.1871   27.6843 C.ar    1  UNL1        0.0296
      9 C         -23.2716    1.8973   27.3731 C.ar    1  UNL1        0.1401
     10 C         -22.1063    1.7032   28.0412 C.ar    1  UNL1        0.0296
     11 C         -23.3188    0.1792   29.4669 C.ar    1  UNL1        0.0001
     12 C         -22.1165    0.8402   29.1011 C.ar    1  UNL1        0.0023
     13 F         -28.9295   -2.7025   30.0654 F       1  UNL1       -0.2010
     14 F         -23.3232    2.7577   26.3238 F       1  UNL1       -0.2042
     15 O         -29.2759   -0.5213   28.4921 O.3     1  UNL1       -0.4684
     16 C         -29.6933    0.8123   28.5094 C.3     1  UNL1        0.2319
     17 C         -29.7695    1.4174   29.6471 C.2     1  UNL1        0.0207
     18 C         -30.4317    0.9185   30.6941 C.2     1  UNL1       -0.0009
     19 C         -30.4795    1.2428   31.6722 C.2     1  UNL1       -0.0002
     20 C         -31.1283    0.5806   32.9009 C.2     1  UNL1       -0.0000
     21 C         -31.7873   -0.6155   32.5469 C.2     1  UNL1       -0.0000
     22 C         -31.7374   -1.0881   31.2893 C.2     1  UNL1       -0.0000
@<TRIPOS>BOND
     1     3     7    1
     2     6    13    1
     3     9    14    1
     4     1    15    1
     5    15    16    1
     6    16    17    1
     7    17    18    2
     8    18    19    1
     9    19    20    2
    10    20    21    1
    11    21    22    2
    12     7     8   ar
    13     8     9   ar
    14     9    10   ar
    15    10    12   ar
    16    12    11   ar
    17    11     7   ar
    18     1     2   ar
    19     2     3   ar
    20     3     4   ar
    21     4     5   ar
    22     5     6   ar
    23     6     1   ar
