@<TRIPOS>MOLECULE
No_449-gen_results/8p0m/2024-11-26-14-13-15/
 16 17 0 0 0
SMALL
GASTEIGER

@<TRIPOS>ATOM
      1 C         -28.0162   -0.8135   28.8779 C.ar    1  UNL1       -0.0000
      2 C         -27.0636   -0.1189   28.6079 C.ar    1  UNL1       -0.0000
      3 C         -25.7647   -0.3897   29.0360 C.ar    1  UNL1       -0.0000
      4 C         -25.5296   -1.5302   29.9014 C.ar    1  UNL1       -0.0000
      5 C         -26.6577   -2.2915   30.2035 C.ar    1  UNL1       -0.0000
      6 C         -27.8548   -1.9555   29.7630 C.ar    1  UNL1       -0.0000
      7 C         -24.5441    0.4126   28.7379 C.ar    1  UNL1        0.0039
      8 C         -24.0952    1.3785   29.5751 C.ar    1  UNL1        0.0714
      9 C         -22.9780    2.1448   29.2566 C.ar    1  UNL1        0.0039
     10 C         -22.2496    1.9089   28.0531 C.ar    1  UNL1       -0.0001
     11 C         -23.7843    0.2749   27.5458 C.ar    1  UNL1       -0.0001
     12 C         -22.7252    0.9953   27.2629 C.ar    1  UNL1       -0.0000
     13 C         -24.7707    1.6220   30.9072 C.3     1  UNL1        0.4186
     14 F         -26.0630    1.7077   30.7325 F       1  UNL1       -0.1659
     15 F         -24.3698    2.8192   31.4588 F       1  UNL1       -0.1659
     16 F         -24.4238    0.6425   31.7648 F       1  UNL1       -0.1659
@<TRIPOS>BOND
     1     3     7    1
     2     8    13    1
     3    13    14    1
     4    13    15    1
     5    13    16    1
     6     7     8   ar
     7     8     9   ar
     8     9    10   ar
     9    10    12   ar
    10    12    11   ar
    11    11     7   ar
    12     1     2   ar
    13     2     3   ar
    14     3     4   ar
    15     4     5   ar
    16     5     6   ar
    17     6     1   ar
