@<TRIPOS>MOLECULE
No_4491-gen_results/8p0m/2024-11-26-14-13-15/
 24 27 0 0 0
SMALL
GASTEIGER

@<TRIPOS>ATOM
      1 C         -28.0162   -0.8135   28.8779 C.ar    1  UNL1       -0.0040
      2 C         -28.4690   -0.7850   29.8287 C.ar    1  UNL1       -0.0003
      3 C         -28.1960    0.3478   28.0550 C.ar    1  UNL1       -0.0184
      4 C         -27.4421    0.5100   26.7946 C.3     1  UNL1        0.0442
      5 C         -26.4394    0.8329   26.6142 C.3     1  UNL1        0.0089
      6 C         -25.2138    0.6623   26.7019 C.3     1  UNL1        0.0113
      7 C         -24.0100    0.7553   27.3225 C.3     1  UNL1        0.0957
      8 C         -23.3282    0.3799   28.3897 C.2     1  UNL1        0.2436
      9 N         -22.0572    0.6771   28.5949 N.am    1  UNL1       -0.1858
     10 C         -23.1576    1.9456   26.6618 C.3     1  UNL1        0.0997
     11 C         -29.5152    0.0354   30.3665 C.ar    1  UNL1       -0.0000
     12 C         -29.1630    1.2895   28.3635 C.ar    1  UNL1       -0.0040
     13 C         -29.8340    1.1165   29.5817 C.ar    1  UNL1       -0.0003
     14 O         -24.0248   -0.1939   29.3371 O.2     1  UNL1       -0.2733
     15 C         -21.4374    1.1372   27.6870 C.3     1  UNL1        0.2044
     16 N         -21.8875    1.9866   26.8449 N.3     1  UNL1       -0.1954
     17 C         -28.4744    0.4786   25.7101 C.ar    1  UNL1       -0.0224
     18 C         -29.1557   -0.4582   25.2901 C.ar    1  UNL1       -0.0043
     19 C         -30.0464   -0.4640   24.1566 C.ar    1  UNL1       -0.0003
     20 C         -30.0438    0.7003   23.4116 C.ar    1  UNL1       -0.0003
     21 C         -28.6914    1.6781   24.8077 C.ar    1  UNL1       -0.0258
     22 C         -29.3716    1.7796   23.7848 C.ar    1  UNL1       -0.0046
     23 C         -26.4799    1.9564   25.5147 C.3     1  UNL1        0.0053
     24 C         -27.4605    2.5930   24.9042 C.3     1  UNL1        0.0261
@<TRIPOS>BOND
     1     3     4    1
     2     4     5    1
     3     5     6    1
     4     7     8    1
     5     8     9   am
     6     7    10    1
     7     8    14    2
     8    10    16    1
     9    15    16    1
    10     4    17    1
    11     5    23    1
    12    21    24    1
    13    23    24    1
    14     6     7    1
    15    15     9    1
    16     1     2   ar
    17     2    11   ar
    18    11    13   ar
    19    13    12   ar
    20    12     3   ar
    21     3     1   ar
    22    17    18   ar
    23    18    19   ar
    24    19    20   ar
    25    20    22   ar
    26    22    21   ar
    27    21    17   ar
