@<TRIPOS>MOLECULE
No_4492-gen_results/8p0m/2024-11-26-14-13-15/
 14 15 0 0 0
SMALL
GASTEIGER

@<TRIPOS>ATOM
      1 C         -28.0162   -0.8135   28.8779 C.ar    1  UNL1        0.0296
      2 C         -28.4690   -0.7850   29.8287 C.ar    1  UNL1        0.0023
      3 C         -26.5455   -0.8762   28.8500 C.ar    1  UNL1        0.1401
      4 C         -25.8041   -1.0324   30.0571 C.ar    1  UNL1        0.0275
      5 C         -26.5373   -1.0386   31.2171 C.ar    1  UNL1        0.0022
      6 C         -27.8843   -0.9532   31.1862 C.ar    1  UNL1        0.0001
      7 C         -24.3655   -1.1134   30.0483 C.ar    1  UNL1        0.0044
      8 C         -23.7447   -1.3690   30.8125 C.ar    1  UNL1        0.0002
      9 C         -22.5701   -0.8171   31.2268 C.ar    1  UNL1        0.0023
     10 C         -21.7941   -0.1957   30.2067 C.ar    1  UNL1        0.0296
     11 C         -22.4671    0.0452   28.9825 C.ar    1  UNL1        0.1401
     12 C         -23.8655   -0.3262   28.8704 C.ar    1  UNL1        0.0297
     13 F         -25.8610   -0.8042   27.7376 F       1  UNL1       -0.2042
     14 F         -21.8492    0.6894   28.0550 F       1  UNL1       -0.2042
@<TRIPOS>BOND
     1     4     7    1
     2     3    13    1
     3    11    14    1
     4     1     2   ar
     5     2     6   ar
     6     6     5   ar
     7     5     4   ar
     8     4     3   ar
     9     3     1   ar
    10     7     8   ar
    11     8     9   ar
    12     9    10   ar
    13    10    11   ar
    14    11    12   ar
    15    12     7   ar
