@<TRIPOS>MOLECULE
No_4493-gen_results/8p0m/2024-11-26-14-13-15/
 24 24 0 0 0
SMALL
GASTEIGER

@<TRIPOS>ATOM
      1 O         -28.1229   -1.3353   28.4874 O.2     1  UNL1       -0.2727
      2 C         -27.4806   -0.4044   28.7094 C.2     1  UNL1        0.2492
      3 C         -26.3804   -0.0867   27.9394 C.3     1  UNL1        0.1688
      4 N         -27.8993    0.6459   29.6320 N.am    1  UNL1       -0.2546
      5 N         -25.2331   -0.5875   28.2500 N.pl3   1  UNL1       -0.2301
      6 C         -24.0025    0.0862   28.2449 C.ar    1  UNL1        0.0658
      7 C         -22.9230   -0.5012   28.9988 C.ar    1  UNL1        0.0161
      8 C         -23.7716    1.2379   27.5187 C.ar    1  UNL1        0.0161
      9 C         -22.4950    1.8583   27.5439 C.ar    1  UNL1        0.0013
     10 C         -21.6424    0.1067   28.9514 C.ar    1  UNL1        0.0013
     11 C         -21.4111    1.2435   28.2403 C.ar    1  UNL1        0.0001
     12 C         -29.0030    0.3909   30.5307 C.3     1  UNL1        0.1201
     13 C         -26.5704    0.5373   26.6243 C.3     1  UNL1        0.0332
     14 C         -27.1008    1.7826   29.8629 C.2     1  UNL1        0.0630
     15 C         -27.6699    2.7776   30.6578 C.2     1  UNL1       -0.0097
     16 C         -27.5762    3.8697   30.7620 C.3     1  UNL1        0.0320
     17 C         -26.6396    4.5847   29.7753 C.3     1  UNL1        0.0307
     18 C         -26.3582    5.9352   29.7544 C.2     1  UNL1       -0.0258
     19 C         -25.4055    6.3737   28.7787 C.2     1  UNL1       -0.0046
     20 C         -24.9719    7.7067   28.7403 C.2     1  UNL1       -0.0003
     21 C         -24.0348    8.1357   27.7743 C.2     1  UNL1       -0.0003
     22 C         -23.4405    9.3543   27.8995 C.2     1  UNL1       -0.0046
     23 C         -23.7962   10.2004   29.0295 C.2     1  UNL1       -0.0258
     24 C         -24.7322    9.7872   29.9270 C.3     1  UNL1        0.0307
@<TRIPOS>BOND
     1     1     2    2
     2     2     3    1
     3     2     4   am
     4     3     5    1
     5     5     6    1
     6     4    12    1
     7     3    13    1
     8     4    14    1
     9    14    15    2
    10    15    16    1
    11    16    17    1
    12    17    18    1
    13    18    19    2
    14    19    20    1
    15    20    21    2
    16    21    22    1
    17    22    23    2
    18    23    24    1
    19     6     7   ar
    20     7    10   ar
    21    10    11   ar
    22    11     9   ar
    23     9     8   ar
    24     8     6   ar
