@<TRIPOS>MOLECULE
No_4494-gen_results/8p0m/2024-11-26-14-13-15/
 19 20 0 0 0
SMALL
GASTEIGER

@<TRIPOS>ATOM
      1 C         -28.0162   -0.8135   28.8779 C.ar    1  UNL1        0.0001
      2 C         -27.0636   -0.1190   28.6079 C.ar    1  UNL1        0.0000
      3 C         -26.9716    0.7139   27.5060 C.ar    1  UNL1        0.0001
      4 C         -28.1053    0.7744   26.6421 C.ar    1  UNL1        0.0046
      5 C         -29.2041    0.1179   27.0477 C.ar    1  UNL1        0.0550
      6 C         -29.2127   -0.6088   28.1281 C.ar    1  UNL1        0.0046
      7 C         -25.7106    1.4518   27.1380 C.ar    1  UNL1        0.0002
      8 C         -24.6052    0.9253   27.6902 C.ar    1  UNL1        0.0066
      9 C         -23.3376    1.6509   27.5495 C.ar    1  UNL1        0.0798
     10 C         -23.2759    2.6042   26.5496 C.ar    1  UNL1        0.0066
     11 C         -25.5691    2.4861   26.2457 C.ar    1  UNL1        0.0000
     12 C         -24.3971    3.1285   26.0142 C.ar    1  UNL1        0.0002
     13 C         -22.0978    1.0757   28.1378 C.2     1  UNL1        0.3878
     14 O         -22.0793    0.0566   28.8801 O.co2   1  UNL1       -0.2406
     15 O         -20.9818    1.7776   27.9893 O.co2   1  UNL1       -0.2406
     16 C         -30.5099    0.1513   26.3788 C.2     1  UNL1        0.2648
     17 O         -30.5690    0.1506   25.1886 O.2     1  UNL1       -0.2684
     18 N         -31.6303   -0.2743   27.0112 N.am    1  UNL1       -0.1998
     19 C         -32.8759   -0.4014   26.3283 C.3     1  UNL1        0.1388
@<TRIPOS>BOND
     1     3     7    1
     2     9    13    1
     3    13    14   ar
     4    13    15   ar
     5     5    16    1
     6    16    17    2
     7    16    18   am
     8    18    19    1
     9     7     8   ar
    10     8     9   ar
    11     9    10   ar
    12    10    12   ar
    13    12    11   ar
    14    11     7   ar
    15     1     2   ar
    16     2     3   ar
    17     3     4   ar
    18     4     5   ar
    19     5     6   ar
    20     6     1   ar
