@<TRIPOS>MOLECULE
No_4495-gen_results/8p0m/2024-11-26-14-13-15/
 32 35 0 0 0
SMALL
GASTEIGER

@<TRIPOS>ATOM
      1 C         -28.0162   -0.8135   28.8779 C.ar    1  UNL1        0.0046
      2 C         -27.0636   -0.1190   28.6079 C.ar    1  UNL1        0.0001
      3 C         -25.7647   -0.3897   29.0360 C.ar    1  UNL1        0.0001
      4 C         -25.5296   -1.5303   29.9014 C.ar    1  UNL1        0.0001
      5 C         -26.6577   -2.2915   30.2035 C.ar    1  UNL1        0.0046
      6 C         -27.8548   -1.9555   29.7630 C.ar    1  UNL1        0.0554
      7 C         -24.5441    0.4126   28.7379 C.ar    1  UNL1        0.0022
      8 C         -24.4731    1.2064   27.7114 C.ar    1  UNL1        0.0296
      9 C         -23.2632    1.9110   27.3928 C.ar    1  UNL1        0.1401
     10 C         -22.0960    1.7116   28.0459 C.ar    1  UNL1        0.0296
     11 C         -23.3012    0.1559   29.4817 C.ar    1  UNL1        0.0001
     12 C         -22.1018    0.8312   29.1085 C.ar    1  UNL1        0.0023
     13 C         -29.0138   -2.7978   30.1831 C.2     1  UNL1        0.2690
     14 O         -30.0593   -2.4866   29.9938 O.2     1  UNL1       -0.2680
     15 N         -28.6847   -3.9823   30.8357 N.am    1  UNL1       -0.1754
     16 C         -29.7172   -4.9479   31.2191 C.ar    1  UNL1        0.0737
     17 C         -30.5946   -5.3211   30.2840 C.ar    1  UNL1        0.0166
     18 C         -31.3489   -6.4283   30.5190 C.ar    1  UNL1        0.0013
     19 C         -31.1911   -7.1758   31.7299 C.ar    1  UNL1        0.0001
     20 C         -30.2399   -6.7483   32.6745 C.ar    1  UNL1        0.0013
     21 C         -29.4203   -5.6713   32.3979 C.ar    1  UNL1        0.0166
     22 F         -23.3185    2.7790   26.3494 F       1  UNL1       -0.2042
     23 C         -32.3507   -6.8718   29.5393 C.ar    1  UNL1        0.0002
     24 C         -33.2931   -6.0171   29.1781 C.ar    1  UNL1        0.0023
     25 C         -34.1125   -6.3190   28.0944 C.ar    1  UNL1        0.0296
     26 C         -32.2230   -8.0929   28.8920 C.ar    1  UNL1        0.0022
     27 C         -33.0370   -8.4720   27.8321 C.ar    1  UNL1        0.0272
     28 C         -34.0168   -7.5402   27.4635 C.ar    1  UNL1        0.1401
     29 F         -34.8424   -7.8957   26.4929 F       1  UNL1       -0.2042
     30 C         -32.9049   -9.7526   27.1606 C.2     1  UNL1       -0.0023
     31 C         -31.8145  -10.3333   27.3716 C.2     1  UNL1       -0.0257
     32 C         -30.9523  -10.1228   28.5655 C.3     1  UNL1        0.0307
@<TRIPOS>BOND
     1     3     7    1
     2     6    13    1
     3    13    14    2
     4    13    15   am
     5    15    16    1
     6     9    22    1
     7    18    23    1
     8    28    29    1
     9    27    30    1
    10    30    31    2
    11    31    32    1
    12     7     8   ar
    13     8     9   ar
    14     9    10   ar
    15    10    12   ar
    16    12    11   ar
    17    11     7   ar
    18     1     2   ar
    19     2     3   ar
    20     3     4   ar
    21     4     5   ar
    22     5     6   ar
    23     6     1   ar
    24    23    24   ar
    25    24    25   ar
    26    25    28   ar
    27    28    27   ar
    28    27    26   ar
    29    26    23   ar
    30    16    17   ar
    31    17    18   ar
    32    18    19   ar
    33    19    20   ar
    34    20    21   ar
    35    21    16   ar
