@<TRIPOS>MOLECULE
No_4496-gen_results/8p0m/2024-11-26-14-13-15/
 20 21 0 0 0
SMALL
GASTEIGER

@<TRIPOS>ATOM
      1 N         -28.0544   -1.0498   28.7246 N.2     1  UNL1       -0.2739
      2 C         -27.7460   -0.0733   29.0098 C.2     1  UNL1        0.0659
      3 C         -27.5667    0.3853   30.3401 C.3     1  UNL1        0.0445
      4 C         -27.0852    1.7230   30.7569 C.3     1  UNL1        0.0186
      5 C         -26.6466    2.5384   29.7034 C.3     1  UNL1        0.1208
      6 C         -26.7131    2.0674   28.3812 C.3     1  UNL1        0.1132
      7 C         -27.1449    0.8426   28.0347 C.3     1  UNL1        0.1960
      8 C         -27.1576    0.4607   26.6517 C.ar    1  UNL1        0.0132
      9 C         -25.8930    0.1353   26.0796 C.ar    1  UNL1       -0.0013
     10 C         -28.2408    0.4883   25.8391 C.ar    1  UNL1       -0.0013
     11 C         -28.1602    0.1184   24.4632 C.ar    1  UNL1       -0.0002
     12 C         -25.7212   -0.1528   24.6905 C.ar    1  UNL1       -0.0002
     13 C         -26.8308   -0.1412   23.9366 C.ar    1  UNL1       -0.0000
     14 C         -26.0953    3.8649   29.9892 C.2     1  UNL1        0.3656
     15 O         -26.7670    4.7972   30.0640 O.co2   1  UNL1       -0.2456
     16 O         -24.7396    3.8427   30.0816 O.co2   1  UNL1       -0.2456
     17 C         -26.1877    3.0146   27.2868 C.3     1  UNL1        0.0203
     18 CL        -26.7498    2.0567   27.2961 Cl      1  UNL1       -0.1122
     19 F         -26.9125   -0.1929   28.5128 F       1  UNL1       -0.2285
     20 C         -27.7923   -2.2073   29.4605 C.3     1  UNL1        0.1510
@<TRIPOS>BOND
     1     1     2    2
     2     2     3    1
     3     3     4    1
     4     4     5    1
     5     5     6    1
     6     2     7    1
     7     6     7    1
     8     7     8    1
     9     5    14    1
    10    14    15   ar
    11    14    16   ar
    12     6    17    1
    13     6    18    1
    14     7    19    1
    15     1    20    1
    16     8     9   ar
    17     9    12   ar
    18    12    13   ar
    19    13    11   ar
    20    11    10   ar
    21    10     8   ar
