@<TRIPOS>MOLECULE
No_4497-gen_results/8p0m/2024-11-26-14-13-15/
 11 12 0 0 0
SMALL
GASTEIGER

@<TRIPOS>ATOM
      1 C         -28.0162   -0.8135   28.8779 C.ar    1  UNL1        0.0000
      2 C         -27.0636   -0.1190   28.6079 C.ar    1  UNL1        0.0000
      3 C         -25.7647   -0.3897   29.0360 C.ar    1  UNL1        0.0008
      4 C         -25.5296   -1.5302   29.9014 C.ar    1  UNL1        0.0001
      5 C         -26.6888   -2.2893   30.1810 C.ar    1  UNL1        0.0000
      6 C         -27.8727   -1.9508   29.7373 C.ar    1  UNL1        0.0000
      7 C         -24.5491    0.4100   28.7341 C.ar    1  UNL1        0.0114
      8 C         -23.3309    0.0437   29.0569 C.ar    1  UNL1        0.0577
      9 C         -23.2108   -1.2231   29.7977 C.ar    1  UNL1        0.0114
     10 C         -24.2359   -1.9570   30.2201 C.ar    1  UNL1        0.0009
     11 CL        -21.9194    0.8949   28.6821 Cl      1  UNL1       -0.0822
@<TRIPOS>BOND
     1     8    11    1
     2     1     2   ar
     3     2     3   ar
     4     4     5   ar
     5     5     6   ar
     6     6     1   ar
     7     3     4   ar
     8     4    10   ar
     9    10     9   ar
    10     9     8   ar
    11     8     7   ar
    12     7     3   ar
