@<TRIPOS>MOLECULE
No_4498-gen_results/8p0m/2024-11-26-14-13-15/
 15 16 0 0 0
SMALL
GASTEIGER

@<TRIPOS>ATOM
      1 C         -28.0162   -0.8135   28.8779 C.ar    1  UNL1        0.0033
      2 C         -27.0636   -0.1189   28.6079 C.ar    1  UNL1        0.0002
      3 C         -27.0010    0.6913   27.4910 C.ar    1  UNL1        0.0033
      4 C         -28.1373    0.7363   26.6350 C.ar    1  UNL1        0.0420
      5 C         -29.2360    0.0765   27.0690 C.ar    1  UNL1        0.1957
      6 C         -29.2177   -0.6429   28.1747 C.ar    1  UNL1        0.0420
      7 O         -30.3423    0.1617   26.2790 O.3     1  UNL1       -0.2866
      8 C         -25.7291   -0.2038   29.3995 C.2     1  UNL1        0.0000
      9 C         -25.2367    1.0088   30.0520 C.2     1  UNL1        0.0000
     10 C         -25.8807    2.1002   30.1147 C.ar    1  UNL1        0.0000
     11 C         -25.2687    3.2105   30.8116 C.ar    1  UNL1        0.0000
     12 C         -25.9289    4.4725   30.9104 C.ar    1  UNL1        0.0000
     13 C         -27.0733    4.6707   30.1737 C.ar    1  UNL1        0.0000
     14 C         -27.5808    3.6593   29.4223 C.ar    1  UNL1        0.0000
     15 C         -26.9792    2.4547   29.3910 C.ar    1  UNL1        0.0000
@<TRIPOS>BOND
     1     5     7    1
     2     2     8    1
     3     8     9    2
     4     9    10    1
     5     1     2   ar
     6     2     3   ar
     7     3     4   ar
     8     4     5   ar
     9     5     6   ar
    10     6     1   ar
    11    10    11   ar
    12    11    12   ar
    13    12    13   ar
    14    13    14   ar
    15    14    15   ar
    16    15    10   ar
