@<TRIPOS>MOLECULE
No_4499-gen_results/8p0m/2024-11-26-14-13-15/
 8 8 0 0 0
SMALL
GASTEIGER

@<TRIPOS>ATOM
      1 C         -28.0162   -0.8135   28.8779 C.1     1  UNL1       -0.0092
      2 C         -27.0636   -0.1189   28.6079 C.1     1  UNL1       -0.0512
      3 C         -26.4071    0.8834   28.2425 C.ar    1  UNL1        0.0426
      4 C         -25.0852    1.1714   28.3388 C.ar    1  UNL1        0.0083
      5 C         -24.3906    2.3127   27.7644 C.ar    1  UNL1        0.0006
      6 C         -25.1824    3.1945   26.9902 C.ar    1  UNL1        0.0000
      7 C         -26.5402    2.9492   26.8073 C.ar    1  UNL1        0.0006
      8 C         -27.0767    1.8410   27.3663 C.ar    1  UNL1        0.0083
@<TRIPOS>BOND
     1     1     2    3
     2     2     3    1
     3     3     4   ar
     4     4     5   ar
     5     5     6   ar
     6     6     7   ar
     7     7     8   ar
     8     8     3   ar
