@<TRIPOS>MOLECULE
No_45-gen_results/8p0m/2024-11-26-14-13-15/
 12 13 0 0 0
SMALL
GASTEIGER

@<TRIPOS>ATOM
      1 C         -28.0162   -0.8135   28.8779 C.ar    1  UNL1        0.0015
      2 C         -28.4690   -0.7850   29.8287 C.ar    1  UNL1        0.0177
      3 C         -26.5042   -0.7777   28.8766 C.ar    1  UNL1        0.0000
      4 C         -25.8103   -0.8531   30.1028 C.ar    1  UNL1        0.0000
      5 C         -27.9906   -0.8916   31.2257 C.ar    1  UNL1        0.0015
      6 C         -26.6042   -0.8676   31.2652 C.ar    1  UNL1        0.0000
      7 C         -30.0739   -0.8360   29.8615 C.ar    1  UNL1        0.0813
      8 N         -30.6454   -0.1837   28.9598 N.ar    1  UNL1       -0.2438
      9 C         -31.5454    0.3635   28.8287 C.ar    1  UNL1        0.0988
     10 C         -32.3569    0.6416   29.9170 C.ar    1  UNL1        0.0207
     11 C         -31.9404   -0.1081   31.0621 C.ar    1  UNL1        0.0031
     12 C         -30.7408   -0.7207   31.1875 C.ar    1  UNL1        0.0191
@<TRIPOS>BOND
     1     2     7    1
     2     1     2   ar
     3     2     5   ar
     4     5     6   ar
     5     6     4   ar
     6     4     3   ar
     7     3     1   ar
     8     7     8   ar
     9     8     9   ar
    10     9    10   ar
    11    10    11   ar
    12    11    12   ar
    13    12     7   ar
