@<TRIPOS>MOLECULE
No_450-gen_results/8p0m/2024-11-26-14-13-15/
 20 22 0 0 0
SMALL
GASTEIGER

@<TRIPOS>ATOM
      1 C         -28.0162   -0.8135   28.8779 C.2     1  UNL1        0.0286
      2 C         -27.0636   -0.1189   28.6079 C.2     1  UNL1        0.0412
      3 C         -26.9716    0.7139   27.5060 C.2     1  UNL1        0.2305
      4 C         -25.8205    1.4910   27.1160 C.2     1  UNL1        0.2240
      5 C         -24.6562    1.4242   27.9180 C.3     1  UNL1        0.1650
      6 C         -24.6847    0.5901   29.0659 C.ar    1  UNL1       -0.0086
      7 C         -25.8099   -0.1265   29.3338 C.ar    1  UNL1       -0.0004
      8 C         -29.2185   -0.0422   29.3127 C.3     1  UNL1        0.2618
      9 CL        -29.4677    0.4519   30.4667 Cl      1  UNL1       -0.0719
     10 F         -30.0859   -0.0715   28.2679 F       1  UNL1       -0.2143
     11 C         -23.4917    2.2406   27.6198 C.2     1  UNL1        0.2529
     12 N         -22.4964    2.1925   28.4989 N.am    1  UNL1       -0.1999
     13 O         -23.3995    2.8979   26.5778 O.2     1  UNL1       -0.2725
     14 C         -25.7066   -1.0161   30.5440 C.ar    1  UNL1       -0.0002
     15 C         -24.4949   -1.3099   30.9366 C.ar    1  UNL1       -0.0003
     16 C         -23.3290   -0.4646   30.6186 C.ar    1  UNL1       -0.0028
     17 C         -23.3341    0.4237   29.5754 C.ar    1  UNL1       -0.0036
     18 C         -22.3011    1.2810   29.3307 C.3     1  UNL1        0.1412
     19 O         -25.9708    2.2927   26.1238 O.2     1  UNL1       -0.2871
     20 O         -28.0445    0.8632   26.7473 O.2     1  UNL1       -0.2835
@<TRIPOS>BOND
     1     1     2    2
     2     2     3    1
     3     3     4    1
     4     4     5    1
     5     5     6    1
     6     2     7    1
     7     1     8    1
     8     8     9    1
     9     8    10    1
    10     5    11    1
    11    11    12   am
    12    11    13    2
    13    12    18    1
    14    17    18    1
    15     4    19    2
    16     3    20    2
    17     6     7   ar
    18     7    14   ar
    19    14    15   ar
    20    15    16   ar
    21    16    17   ar
    22    17     6   ar
