@<TRIPOS>MOLECULE
No_4500-gen_results/8p0m/2024-11-26-14-13-15/
 19 20 0 0 0
SMALL
GASTEIGER

@<TRIPOS>ATOM
      1 C         -28.0162   -0.8135   28.8779 C.ar    1  UNL1        0.0369
      2 C         -28.4690   -0.7850   29.8287 C.ar    1  UNL1        0.1387
      3 C         -26.5042   -0.7777   28.8766 C.ar    1  UNL1        0.0031
      4 C         -25.9500    0.1157   29.4052 C.ar    1  UNL1        0.0004
      5 C         -27.9964    0.1190   30.9527 C.ar    1  UNL1        0.0369
      6 C         -26.6037    0.4647   30.8030 C.ar    1  UNL1        0.0031
      7 O         -29.8458   -1.0110   30.0484 O.3     1  UNL1       -0.4714
      8 C         -30.1198   -2.2283   30.5721 C.3     1  UNL1        0.2525
      9 C         -24.5054    0.3914   29.4338 C.ar    1  UNL1        0.0062
     10 C         -24.0812    1.7686   29.5806 C.ar    1  UNL1        0.0756
     11 C         -23.4830   -0.5049   29.1349 C.ar    1  UNL1        0.0002
     12 C         -22.1907   -0.1038   28.8043 C.ar    1  UNL1        0.0000
     13 C         -25.1438    2.7330   29.8841 C.2     1  UNL1        0.3412
     14 C         -21.8401    1.2217   28.6217 C.ar    1  UNL1        0.0002
     15 C         -22.7887    2.1959   29.1230 C.ar    1  UNL1        0.0064
     16 O         -24.7819    3.8960   29.8888 O.2     1  UNL1       -0.2449
     17 O         -26.2830    2.4167   30.1392 O.3     1  UNL1       -0.4454
     18 C         -27.1579    3.6132   30.1126 C.3     1  UNL1        0.2089
     19 C         -26.7475    4.4182   29.1838 C.3     1  UNL1        0.0513
@<TRIPOS>BOND
     1     2     7    1
     2     7     8    1
     3     4     9    1
     4    10    13    1
     5    13    16    2
     6    13    17    1
     7    17    18    1
     8    18    19    1
     9     1     2   ar
    10     2     5   ar
    11     5     6   ar
    12     6     4   ar
    13     4     3   ar
    14     3     1   ar
    15     9    10   ar
    16    10    15   ar
    17    15    14   ar
    18    14    12   ar
    19    12    11   ar
    20    11     9   ar
