@<TRIPOS>MOLECULE
No_4501-gen_results/8p0m/2024-11-26-14-13-15/
 34 36 0 0 0
SMALL
GASTEIGER

@<TRIPOS>ATOM
      1 C         -28.0162   -0.8135   28.8779 C.ar    1  UNL1        0.0084
      2 C         -28.4690   -0.7850   29.8287 C.ar    1  UNL1        0.0554
      3 C         -27.1356    0.2359   28.5352 C.ar    1  UNL1        0.0716
      4 C         -26.8745    1.2825   29.3982 C.ar    1  UNL1        0.0039
      5 C         -28.3613    0.1987   30.9244 C.ar    1  UNL1        0.0046
      6 C         -27.5277    1.2234   30.6356 C.ar    1  UNL1        0.0001
      7 C         -26.3987    0.2949   27.2279 C.3     1  UNL1        0.4186
      8 F         -26.2345    1.5269   26.9600 F       1  UNL1       -0.1659
      9 F         -25.2362   -0.3484   27.3099 F       1  UNL1       -0.1659
     10 F         -27.1496   -0.2082   26.2061 F       1  UNL1       -0.1659
     11 C         -29.3997   -1.9996   30.3310 C.2     1  UNL1        0.2713
     12 O         -30.4403   -1.9513   30.0350 O.2     1  UNL1       -0.2679
     13 N         -28.8042   -3.0661   30.9877 N.am    1  UNL1       -0.1407
     14 C         -29.5692   -4.2960   31.2884 C.2     1  UNL1        0.2526
     15 C         -30.8101   -4.2069   31.2919 C.3     1  UNL1        0.1136
     16 O         -28.8043   -5.2650   31.4339 O.2     1  UNL1       -0.2725
     17 C         -31.3947   -5.5114   31.3845 C.ar    1  UNL1       -0.0108
     18 C         -31.3874   -6.1575   32.4851 C.ar    1  UNL1       -0.0036
     19 C         -32.0083   -7.5334   32.6022 C.ar    1  UNL1        0.0020
     20 C         -32.7018   -7.9842   31.4565 C.ar    1  UNL1        0.0296
     21 C         -32.7133   -7.2395   30.2940 C.ar    1  UNL1        0.1398
     22 C         -32.1229   -6.0142   30.2439 C.ar    1  UNL1        0.0240
     23 F         -33.3971   -7.7423   29.2752 F       1  UNL1       -0.2042
     24 C         -32.1245   -5.3101   28.9626 C.ar    1  UNL1        0.0020
     25 C         -33.0278   -4.3445   28.6549 C.ar    1  UNL1        0.0014
     26 C         -31.1003   -5.6413   28.0025 C.ar    1  UNL1        0.0014
     27 C         -33.0534   -3.7020   27.4472 C.ar    1  UNL1        0.0165
     28 C         -32.0999   -4.1000   26.4393 C.ar    1  UNL1        0.0705
     29 N         -32.0840   -3.4683   25.2940 N.pl3   1  UNL1       -0.2112
     30 C         -31.1695   -5.0799   26.8142 C.ar    1  UNL1        0.0165
     31 C         -32.0280   -2.0872   25.1214 C.2     1  UNL1        0.0856
     32 C         -31.2616   -1.4735   24.1392 C.2     1  UNL1        0.0178
     33 C         -31.1413   -0.0714   24.1416 C.2     1  UNL1        0.0014
     34 C         -31.8522    0.7249   25.0108 C.2     1  UNL1        0.0000
@<TRIPOS>BOND
     1     3     7    1
     2     7     8    1
     3     7     9    1
     4     7    10    1
     5     2    11    1
     6    11    12    2
     7    11    13   am
     8    13    14   am
     9    14    15    1
    10    14    16    2
    11    15    17    1
    12    21    23    1
    13    22    24    1
    14    28    29    1
    15    29    31    1
    16    31    32    2
    17    32    33    1
    18    33    34    2
    19    17    18   ar
    20    18    19   ar
    21    19    20   ar
    22    20    21   ar
    23    21    22   ar
    24    22    17   ar
    25    24    25   ar
    26    25    27   ar
    27    27    28   ar
    28    28    30   ar
    29    30    26   ar
    30    26    24   ar
    31     1     2   ar
    32     2     5   ar
    33     5     6   ar
    34     6     4   ar
    35     4     3   ar
    36     3     1   ar
