@<TRIPOS>MOLECULE
No_4502-gen_results/8p0m/2024-11-26-14-13-15/
 31 35 0 0 0
SMALL
GASTEIGER

@<TRIPOS>ATOM
      1 O         -28.1229   -1.3353   28.4874 O.2     1  UNL1       -0.2741
      2 C         -27.4806   -0.4044   28.7094 C.2     1  UNL1        0.2363
      3 N         -27.2412    0.3910   29.5098 N.am    1  UNL1       -0.2218
      4 C         -26.4066   -0.1069   27.4496 C.3     1  UNL1        0.1122
      5 C         -25.4358    0.8473   27.6341 C.ar    1  UNL1       -0.0064
      6 C         -25.4291    1.6632   28.7353 C.ar    1  UNL1        0.0506
      7 C         -26.3098    1.3583   29.7618 C.2     1  UNL1        0.2547
      8 C         -24.5011    1.1239   26.5229 C.ar    1  UNL1        0.0260
      9 C         -23.3758    1.9461   26.7922 C.ar    1  UNL1        0.1398
     10 C         -23.3181    2.6515   28.0614 C.ar    1  UNL1        0.0298
     11 C         -24.2704    2.5047   28.9348 C.ar    1  UNL1        0.0065
     12 O         -26.3018    2.0288   30.8578 O.2     1  UNL1       -0.2695
     13 F         -22.4693    2.2106   25.8966 F       1  UNL1       -0.2042
     14 C         -28.2221    0.1229   30.7563 C.3     1  UNL1        0.1277
     15 C         -29.3055    0.3562   30.5767 C.ar    1  UNL1       -0.0019
     16 C         -29.8443    1.3882   30.0479 C.ar    1  UNL1       -0.0026
     17 C         -31.2342    1.6088   29.7367 C.ar    1  UNL1       -0.0003
     18 C         -32.0751    0.5914   30.2052 C.ar    1  UNL1       -0.0003
     19 C         -31.6339   -0.5483   30.7785 C.ar    1  UNL1       -0.0039
     20 C         -30.3093   -0.7185   31.0126 C.ar    1  UNL1       -0.0029
     21 C         -33.5636    0.8193   30.0166 C.ar    1  UNL1        0.0001
     22 C         -34.3175   -0.0315   29.9316 C.ar    1  UNL1        0.0043
     23 C         -34.0027   -1.2768   29.9127 C.ar    1  UNL1        0.0513
     24 C         -34.8882   -2.4294   29.7967 C.2     1  UNL1        0.2666
     25 C         -32.6456   -1.7119   30.2891 C.ar    1  UNL1       -0.0133
     26 O         -35.9095   -2.4688   29.3687 O.2     1  UNL1       -0.2683
     27 N         -34.3353   -3.7255   30.1701 N.am    1  UNL1       -0.1729
     28 C         -33.1606   -4.0362   30.7035 C.3     1  UNL1        0.2153
     29 C         -32.1887   -2.9761   30.7526 C.3     1  UNL1        0.0801
     30 F         -33.1297   -4.8379   31.5615 F       1  UNL1       -0.2175
     31 C         -32.4065   -4.5734   29.4367 C.3     1  UNL1        0.0586
@<TRIPOS>BOND
     1     1     2    2
     2     2     3   am
     3     2     4    1
     4     4     5    1
     5     3     7   am
     6     6     7    1
     7     7    12    2
     8     9    13    1
     9     3    14    1
    10    14    15    1
    11    23    24    1
    12    24    26    2
    13    24    27   am
    14    27    28    1
    15    25    29    1
    16    28    29    1
    17    28    30    1
    18    28    31    1
    19    15    16   ar
    20    16    17   ar
    21    17    18   ar
    22    19    20   ar
    23    20    15   ar
    24     5     8   ar
    25     8     9   ar
    26     9    10   ar
    27    10    11   ar
    28    11     6   ar
    29     6     5   ar
    30    18    19   ar
    31    19    25   ar
    32    25    23   ar
    33    23    22   ar
    34    22    21   ar
    35    21    18   ar
