@<TRIPOS>MOLECULE
No_4503-gen_results/8p0m/2024-11-26-14-13-15/
 23 25 0 0 0
SMALL
GASTEIGER

@<TRIPOS>ATOM
      1 C         -28.0162   -0.8135   28.8779 C.ar    1  UNL1        0.0046
      2 C         -27.0636   -0.1190   28.6079 C.ar    1  UNL1        0.0001
      3 C         -25.7923   -0.4302   29.0761 C.ar    1  UNL1        0.0001
      4 C         -24.5456    0.3494   28.8225 C.ar    1  UNL1        0.0030
      5 C         -23.2409    0.0217   29.3323 C.ar    1  UNL1        0.0002
      6 C         -22.1362    0.7695   29.0059 C.ar    1  UNL1        0.0031
      7 C         -27.9050   -1.8984   29.8729 C.ar    1  UNL1        0.0554
      8 C         -26.6795   -2.3145   30.3184 C.ar    1  UNL1        0.0046
      9 C         -25.5203   -1.5564   29.9775 C.ar    1  UNL1        0.0001
     10 C         -22.1155    1.7338   28.0257 C.ar    1  UNL1        0.0369
     11 C         -24.5222    1.3908   27.7909 C.ar    1  UNL1        0.0369
     12 C         -23.3248    2.0519   27.4472 C.ar    1  UNL1        0.1387
     13 C         -29.0619   -2.7166   30.2973 C.2     1  UNL1        0.2690
     14 O         -30.1011   -2.4024   30.0936 O.2     1  UNL1       -0.2680
     15 N         -28.7751   -3.8891   30.9878 N.am    1  UNL1       -0.1754
     16 C         -29.7958   -4.7897   31.4570 C.ar    1  UNL1        0.0737
     17 C         -30.7202   -4.2617   32.2464 C.ar    1  UNL1        0.0166
     18 C         -31.7509   -4.9628   32.5460 C.ar    1  UNL1        0.0013
     19 C         -31.8307   -6.3692   32.1589 C.ar    1  UNL1        0.0001
     20 C         -30.8494   -6.8909   31.3285 C.ar    1  UNL1        0.0013
     21 C         -29.7775   -6.0751   30.9641 C.ar    1  UNL1        0.0166
     22 O         -23.4176    2.9888   26.4885 O.3     1  UNL1       -0.4714
     23 C         -24.7200    3.2037   25.9597 C.3     1  UNL1        0.2525
@<TRIPOS>BOND
     1     3     4    1
     2     7    13    1
     3    13    14    2
     4    13    15   am
     5    15    16    1
     6    12    22    1
     7    22    23    1
     8     1     2   ar
     9     2     3   ar
    10     3     9   ar
    11     9     8   ar
    12     8     7   ar
    13     7     1   ar
    14     4     5   ar
    15     5     6   ar
    16     6    10   ar
    17    10    12   ar
    18    12    11   ar
    19    11     4   ar
    20    16    17   ar
    21    17    18   ar
    22    18    19   ar
    23    19    20   ar
    24    20    21   ar
    25    21    16   ar
