@<TRIPOS>MOLECULE
No_4506-gen_results/8p0m/2024-11-26-14-13-15/
 29 31 0 0 0
SMALL
GASTEIGER

@<TRIPOS>ATOM
      1 C         -28.0162   -0.8135   28.8779 C.ar    1  UNL1        0.1890
      2 C         -27.0636   -0.1189   28.6079 C.ar    1  UNL1        0.1248
      3 C         -25.7647   -0.3897   29.0360 C.ar    1  UNL1        0.1874
      4 C         -25.5296   -1.5302   29.9014 C.ar    1  UNL1        0.1693
      5 C         -26.6577   -2.2915   30.2035 C.ar    1  UNL1        0.0720
      6 C         -27.8548   -1.9555   29.7630 C.ar    1  UNL1        0.1785
      7 F         -24.6989    0.3589   28.7784 F       1  UNL1       -0.2000
      8 F         -28.9059   -2.7360   30.0810 F       1  UNL1       -0.2008
      9 CL        -27.2037    1.3199   27.6085 Cl      1  UNL1       -0.0765
     10 O         -24.2747   -1.8601   30.2438 O.3     1  UNL1       -0.4691
     11 C         -23.3197   -2.1463   29.4194 C.3     1  UNL1        0.2526
     12 O         -29.3180   -0.5829   28.5443 O.3     1  UNL1       -0.4146
     13 C         -30.2201   -0.0964   29.3639 C.2     1  UNL1        0.4006
     14 C         -31.0088    0.7972   28.7476 C.2     1  UNL1        0.3293
     15 O         -31.8015    1.3120   29.3709 O.2     1  UNL1       -0.2624
     16 N         -31.1830    0.7081   27.3608 N.am    1  UNL1       -0.2472
     17 C         -30.5513   -0.0599   26.5006 C.2     1  UNL1        0.0648
     18 C         -31.7537    1.8716   26.6566 C.3     1  UNL1        0.1191
     19 C         -31.2019   -0.0769   25.1138 C.2     1  UNL1        0.0074
     20 C         -31.7691    1.1896   25.0659 C.3     1  UNL1        0.1016
     21 O         -30.2596   -0.3670   30.5637 O.2     1  UNL1       -0.2393
     22 N         -32.4405    1.8231   24.1259 N.3     1  UNL1       -0.2689
     23 C         -32.2600    1.7214   22.9104 C.3     1  UNL1        0.0728
     24 C         -32.9813    2.5716   21.9177 C.3     1  UNL1        0.0234
     25 C         -33.1548    3.0614   24.3336 C.3     1  UNL1        0.0728
     26 C         -33.7787    3.8733   23.4876 C.3     1  UNL1        0.0234
     27 C         -33.5967    3.6588   22.1729 C.3     1  UNL1        0.0461
     28 C         -34.1772    4.4434   21.1037 C.2     1  UNL1        0.0954
     29 N         -33.9509    4.2666   19.8965 N.2     1  UNL1       -0.1514
@<TRIPOS>BOND
     1     3     7    1
     2     6     8    1
     3     2     9    1
     4     4    10    1
     5    10    11    1
     6     1    12    1
     7    12    13    1
     8    13    14    1
     9    14    15    2
    10    14    16   am
    11    16    17    1
    12    16    18    1
    13    17    19    2
    14    18    20    1
    15    19    20    1
    16    13    21    2
    17    20    22    1
    18    22    23    1
    19    22    25    1
    20    24    27    1
    21    26    27    1
    22    27    28    1
    23    28    29    2
    24    23    24    1
    25    26    25    1
    26     1     2   ar
    27     2     3   ar
    28     3     4   ar
    29     4     5   ar
    30     5     6   ar
    31     6     1   ar
