@<TRIPOS>MOLECULE
No_4507-gen_results/8p0m/2024-11-26-14-13-15/
 21 22 0 0 0
SMALL
GASTEIGER

@<TRIPOS>ATOM
      1 C         -28.0162   -0.8135   28.8779 C.ar    1  UNL1        0.0435
      2 C         -28.4690   -0.7850   29.8287 C.ar    1  UNL1        0.0828
      3 C         -26.5455   -0.8762   28.8500 C.ar    1  UNL1        0.1390
      4 C         -25.8041   -1.0324   30.0571 C.ar    1  UNL1        0.0340
      5 C         -26.5373   -1.0386   31.2171 C.ar    1  UNL1        0.0032
      6 C         -27.8843   -0.9532   31.1862 C.ar    1  UNL1        0.0068
      7 C         -24.3555   -1.1121   30.0346 C.ar    1  UNL1        0.0029
      8 C         -23.6129   -1.1081   29.0414 C.ar    1  UNL1        0.0001
      9 C         -22.1516   -0.9907   29.0790 C.ar    1  UNL1        0.0000
     10 C         -23.5978   -0.1195   30.9277 C.ar    1  UNL1        0.0001
     11 C         -22.9721    0.8382   30.6052 C.ar    1  UNL1        0.0000
     12 C         -21.9245    0.4380   29.5356 C.ar    1  UNL1        0.0000
     13 C         -30.0559   -0.6758   29.9066 C.2     1  UNL1        0.3879
     14 O         -30.5371   -0.2034   29.0128 O.co2   1  UNL1       -0.2406
     15 O         -30.6729   -0.7365   31.0449 O.co2   1  UNL1       -0.2406
     16 O         -25.9299   -0.6751   27.6434 O.3     1  UNL1       -0.4748
     17 C         -25.3801    0.5818   27.2692 C.3     1  UNL1        0.1877
     18 C         -25.8327    1.7192   27.6694 C.2     1  UNL1        0.0120
     19 C         -25.1594    2.8861   27.3752 C.2     1  UNL1       -0.0268
     20 C         -25.4281    4.2035   27.9478 C.3     1  UNL1        0.0305
     21 C         -24.3617    0.6197   26.2437 C.3     1  UNL1        0.0523
@<TRIPOS>BOND
     1     4     7    1
     2     2    13    1
     3    13    14   ar
     4    13    15   ar
     5     3    16    1
     6    16    17    1
     7    17    18    1
     8    18    19    2
     9    19    20    1
    10    17    21    1
    11     1     2   ar
    12     2     6   ar
    13     6     5   ar
    14     5     4   ar
    15     4     3   ar
    16     3     1   ar
    17     7     8   ar
    18     8     9   ar
    19     9    12   ar
    20    12    11   ar
    21    11    10   ar
    22    10     7   ar
