@<TRIPOS>MOLECULE
No_4509-gen_results/8p0m/2024-11-26-14-13-15/
 10 10 0 0 0
SMALL
GASTEIGER

@<TRIPOS>ATOM
      1 CL        -28.1493   -0.8198   28.9079 Cl      1  UNL1       -0.0761
      2 C         -28.5324   -0.0471   29.7727 C.3     1  UNL1        0.2435
      3 F         -27.6515    0.7172   30.3086 F       1  UNL1       -0.2190
      4 C         -29.8669    0.1151   30.2289 C.3     1  UNL1        0.0787
      5 C         -30.1279    1.0890   31.0982 C.ar    1  UNL1       -0.0181
      6 C         -31.4148    1.2864   31.6613 C.ar    1  UNL1       -0.0041
      7 C         -31.6393    2.2940   32.6261 C.ar    1  UNL1       -0.0003
      8 C         -30.5442    3.1270   32.9885 C.ar    1  UNL1       -0.0000
      9 C         -29.2708    2.9086   32.4363 C.ar    1  UNL1       -0.0003
     10 C         -29.0279    1.8749   31.5270 C.ar    1  UNL1       -0.0041
@<TRIPOS>BOND
     1     1     2    1
     2     2     3    1
     3     2     4    1
     4     4     5    1
     5     5     6   ar
     6     6     7   ar
     7     7     8   ar
     8     8     9   ar
     9     9    10   ar
    10    10     5   ar
