@<TRIPOS>MOLECULE
No_4510-gen_results/8p0m/2024-11-26-14-13-15/
 12 13 0 0 0
SMALL
GASTEIGER

@<TRIPOS>ATOM
      1 C         -28.0162   -0.8135   28.8779 C.ar    1  UNL1        0.0000
      2 C         -27.0636   -0.1190   28.6079 C.ar    1  UNL1        0.0000
      3 C         -25.7923   -0.4302   29.0761 C.ar    1  UNL1        0.0000
      4 C         -25.5756   -1.5654   29.9363 C.ar    1  UNL1        0.0000
      5 C         -26.7354   -2.3004   30.2173 C.ar    1  UNL1        0.0000
      6 C         -27.9184   -1.9537   29.7629 C.ar    1  UNL1        0.0000
      7 C         -26.8968    1.1016   27.7052 C.ar    1  UNL1        0.0000
      8 C         -26.6638    2.1999   27.9486 C.ar    1  UNL1        0.0000
      9 C         -26.4922    3.2929   26.9597 C.ar    1  UNL1        0.0000
     10 C         -26.7475    2.9686   25.6212 C.ar    1  UNL1        0.0000
     11 C         -26.9956    0.9995   26.1911 C.ar    1  UNL1        0.0000
     12 C         -26.9507    1.7945   25.3040 C.ar    1  UNL1        0.0000
@<TRIPOS>BOND
     1     2     7    1
     2     7     8   ar
     3     8     9   ar
     4     9    10   ar
     5    10    12   ar
     6    12    11   ar
     7    11     7   ar
     8     1     2   ar
     9     2     3   ar
    10     3     4   ar
    11     4     5   ar
    12     5     6   ar
    13     6     1   ar
