@<TRIPOS>MOLECULE
No_4511-gen_results/8p0m/2024-11-26-14-13-15/
 18 19 0 0 0
SMALL
GASTEIGER

@<TRIPOS>ATOM
      1 O         -28.1229   -1.3353   28.4874 O.2     1  UNL1       -0.2587
      2 C         -27.0637   -0.8242   28.8687 C.2     1  UNL1        0.3150
      3 C         -26.9592    0.0926   29.7582 C.3     1  UNL1        0.1269
      4 F         -25.9002   -1.3969   28.3552 F       1  UNL1       -0.1632
      5 C         -25.6945    0.7127   30.0607 C.ar    1  UNL1       -0.0144
      6 C         -25.0067    1.3447   29.6632 C.ar    1  UNL1       -0.0063
      7 C         -23.6088    1.7354   30.0536 C.ar    1  UNL1       -0.0029
      8 C         -22.8395    0.7600   29.9607 C.ar    1  UNL1       -0.0003
      9 C         -23.3483   -0.5092   30.5943 C.ar    1  UNL1       -0.0003
     10 C         -24.7741   -0.5975   30.4914 C.ar    1  UNL1       -0.0040
     11 C         -25.7672    2.7772   29.2592 C.3     1  UNL1        0.1132
     12 N         -26.7315    2.6351   28.4964 N.pl3   1  UNL1       -0.2303
     13 C         -27.3500    3.2292   27.9485 C.3     1  UNL1        0.1113
     14 C         -27.2605    4.5817   28.1327 C.3     1  UNL1        0.0232
     15 C         -26.1141    5.0293   28.8829 C.3     1  UNL1        0.0039
     16 C         -25.3083    4.0976   29.4769 C.3     1  UNL1        0.0260
     17 N         -26.8569    1.2294   28.1745 N.2     1  UNL1       -0.1786
     18 C         -27.7856    1.2805   27.0722 C.2     1  UNL1        0.1396
@<TRIPOS>BOND
     1     1     2    2
     2     2     3    1
     3     2     4    1
     4     3     5    1
     5     6    11    1
     6    11    12    1
     7    12    13    1
     8    14    15    1
     9    11    16    1
    10    15    16    1
    11    12    17    1
    12    17    18    2
    13    14    13    1
    14     5     6   ar
    15     6     7   ar
    16     7     8   ar
    17     8     9   ar
    18     9    10   ar
    19    10     5   ar
