@<TRIPOS>MOLECULE
No_4512-gen_results/8p0m/2024-11-26-14-13-15/
 19 20 0 0 0
SMALL
GASTEIGER

@<TRIPOS>ATOM
      1 C         -28.0162   -0.8135   28.8779 C.ar    1  UNL1        0.0074
      2 C         -27.0636   -0.1189   28.6079 C.ar    1  UNL1        0.0105
      3 C         -27.0010    0.6913   27.4910 C.ar    1  UNL1        0.0008
      4 C         -27.1778    1.9037   27.5632 C.ar    1  UNL1        0.0000
      5 C         -28.0594   -1.3960   30.2136 C.ar    1  UNL1        0.0795
      6 C         -26.8947   -1.6080   30.9179 C.ar    1  UNL1        0.0031
      7 C         -25.7839   -0.2253   29.3757 C.ar    1  UNL1        0.0537
      8 C         -25.7520   -0.9581   30.5315 C.ar    1  UNL1       -0.0117
      9 C         -27.1170    2.7946   26.3619 C.ar    1  UNL1        0.0000
     10 C         -26.8513    2.2095   25.1238 C.ar    1  UNL1        0.0000
     11 C         -26.6683    0.1690   26.1643 C.ar    1  UNL1        0.0000
     12 C         -26.6112    0.9191   25.0364 C.ar    1  UNL1        0.0000
     13 C         -29.2900   -2.1815   30.6468 C.2     1  UNL1        0.3877
     14 O         -30.2773   -1.7620   30.6881 O.co2   1  UNL1       -0.2406
     15 O         -29.0685   -3.4432   30.9892 O.co2   1  UNL1       -0.2406
     16 CL        -24.4204    0.6312   28.8768 Cl      1  UNL1       -0.0826
     17 C         -24.5045   -1.0835   31.2649 C.3     1  UNL1        0.0232
     18 C         -23.4115   -1.6347   30.6953 C.3     1  UNL1        0.0047
     19 C         -24.5085   -0.4574   32.5798 C.3     1  UNL1        0.0047
@<TRIPOS>BOND
     1     2     3    1
     2     5    13    1
     3    13    14   ar
     4    13    15   ar
     5     7    16    1
     6     8    17    1
     7    17    18    1
     8    17    19    1
     9     1     2   ar
    10     2     7   ar
    11     7     8   ar
    12     8     6   ar
    13     6     5   ar
    14     5     1   ar
    15     3     4   ar
    16     4     9   ar
    17     9    10   ar
    18    10    12   ar
    19    12    11   ar
    20    11     3   ar
