@<TRIPOS>MOLECULE
No_4513-gen_results/8p0m/2024-11-26-14-13-15/
 9 9 0 0 0
SMALL
GASTEIGER

@<TRIPOS>ATOM
      1 C         -28.0162   -0.8135   28.8779 C.ar    1  UNL1       -0.0000
      2 C         -28.4690   -0.7850   29.8287 C.ar    1  UNL1       -0.0000
      3 C         -28.1960    0.3478   28.0550 C.ar    1  UNL1       -0.0003
      4 C         -29.0191    1.3501   28.3782 C.ar    1  UNL1       -0.0000
      5 C         -29.6249    1.2683   29.6012 C.ar    1  UNL1       -0.0000
      6 C         -29.3821    0.1816   30.4004 C.ar    1  UNL1       -0.0000
      7 C         -27.4591    0.3787   26.7048 C.2     1  UNL1       -0.0046
      8 C         -27.5993    0.6357   25.6180 C.2     1  UNL1       -0.0258
      9 C         -26.7017    0.5501   24.5225 C.3     1  UNL1        0.0307
@<TRIPOS>BOND
     1     3     7    1
     2     7     8    2
     3     8     9    1
     4     1     2   ar
     5     2     6   ar
     6     6     5   ar
     7     5     4   ar
     8     4     3   ar
     9     3     1   ar
