@<TRIPOS>MOLECULE
No_4514-gen_results/8p0m/2024-11-26-14-13-15/
 11 11 0 0 0
SMALL
GASTEIGER

@<TRIPOS>ATOM
      1 O         -28.1229   -1.3353   28.4874 O.2     1  UNL1       -0.2604
      2 C         -27.4806   -0.4044   28.7094 C.2     1  UNL1        0.2923
      3 C         -27.1904    0.2460   29.5268 C.1     1  UNL1       -0.0071
      4 N         -26.8157    0.1371   27.4262 N.am    1  UNL1       -0.2695
      5 C         -26.5177    0.6156   30.2044 C.1     1  UNL1       -0.0821
      6 C         -27.0247   -0.2622   26.1771 C.3     1  UNL1        0.0944
      7 C         -27.9087    0.5308   25.5148 C.3     1  UNL1        0.0233
      8 C         -25.8131    1.2409   27.5876 C.3     1  UNL1        0.0943
      9 C         -24.5619    1.1029   27.8744 C.3     1  UNL1        0.0226
     10 C         -24.2398    1.3623   29.4195 C.3     1  UNL1        0.0157
     11 C         -24.9348    0.7093   30.4403 C.3     1  UNL1        0.0766
@<TRIPOS>BOND
     1     1     2    2
     2     2     3    1
     3     2     4   am
     4     3     5    3
     5     4     6    1
     6     6     7    1
     7     4     8    1
     8     8     9    1
     9     9    10    1
    10     5    11    1
    11    10    11    1
