@<TRIPOS>MOLECULE
No_4515-gen_results/8p0m/2024-11-26-14-13-15/
 15 15 0 0 0
SMALL
GASTEIGER

@<TRIPOS>ATOM
      1 C         -28.0162   -0.8135   28.8779 C.ar    1  UNL1        0.0085
      2 C         -27.0636   -0.1190   28.6079 C.ar    1  UNL1        0.0923
      3 C         -25.7923   -0.4302   29.0761 C.ar    1  UNL1        0.0085
      4 C         -25.5756   -1.5654   29.9363 C.ar    1  UNL1        0.0003
      5 C         -26.7354   -2.3004   30.2173 C.ar    1  UNL1        0.0000
      6 C         -27.9184   -1.9537   29.7629 C.ar    1  UNL1        0.0003
      7 P         -27.1148    1.3528   27.5928 P.3     1  UNL1        0.4152
      8 O         -27.6661    2.2172   27.6776 O.2     1  UNL1       -0.2391
      9 O         -25.5323    1.6396   27.5086 O.2     1  UNL1       -0.4129
     10 O         -27.2317    0.5771   26.0894 O.3     1  UNL1       -0.2797
     11 C         -24.9290    2.2340   28.4862 C.2     1  UNL1        0.2210
     12 C         -23.3824    2.1406   28.3040 C.2     1  UNL1        0.2129
     13 O         -22.9568    1.0067   27.9488 O.2     1  UNL1       -0.4652
     14 C         -21.5495    0.8767   28.2028 C.3     1  UNL1        0.2528
     15 C         -28.4427    0.5478   25.4852 C.3     1  UNL1        0.1852
@<TRIPOS>BOND
     1     2     7    1
     2     7     8    2
     3     7     9    1
     4     7    10    1
     5     9    11    1
     6    11    12    2
     7    12    13    1
     8    13    14    1
     9    10    15    1
    10     1     2   ar
    11     2     3   ar
    12     3     4   ar
    13     4     5   ar
    14     5     6   ar
    15     6     1   ar
