@<TRIPOS>MOLECULE
No_4516-gen_results/8p0m/2024-11-26-14-13-15/
 13 13 0 0 0
SMALL
GASTEIGER

@<TRIPOS>ATOM
      1 C         -28.0162   -0.8135   28.8779 C.ar    1  UNL1        0.0178
      2 C         -28.4690   -0.7850   29.8287 C.ar    1  UNL1        0.0769
      3 C         -26.5042   -0.7777   28.8766 C.ar    1  UNL1        0.0579
      4 C         -25.8103   -0.8531   30.1028 C.ar    1  UNL1        0.0114
      5 C         -27.9906   -0.8916   31.2257 C.ar    1  UNL1        0.0065
      6 C         -26.6042   -0.8676   31.2652 C.ar    1  UNL1        0.0011
      7 C         -30.0739   -0.8360   29.8615 C.2     1  UNL1        0.3458
      8 O         -30.6891   -1.6554   30.2229 O.2     1  UNL1       -0.2445
      9 O         -30.5543    0.0782   28.9220 O.3     1  UNL1       -0.4182
     10 CL        -25.5408   -0.7103   27.4807 Cl      1  UNL1       -0.0822
     11 C         -31.7378    0.4995   29.0013 C.2     1  UNL1        0.1785
     12 C         -32.3267    1.0595   29.8484 C.2     1  UNL1        0.0149
     13 C         -33.6738    1.5262   29.8448 C.3     1  UNL1        0.0341
@<TRIPOS>BOND
     1     2     7    1
     2     7     8    2
     3     7     9    1
     4     3    10    1
     5     9    11    1
     6    11    12    2
     7    12    13    1
     8     1     2   ar
     9     2     5   ar
    10     5     6   ar
    11     6     4   ar
    12     4     3   ar
    13     3     1   ar
