@<TRIPOS>MOLECULE
No_4517-gen_results/8p0m/2024-11-26-14-13-15/
 21 22 0 0 0
SMALL
GASTEIGER

@<TRIPOS>ATOM
      1 C         -28.0162   -0.8135   28.8779 C.ar    1  UNL1        0.0152
      2 C         -28.4690   -0.7850   29.8287 C.ar    1  UNL1        0.0720
      3 C         -28.1960    0.3478   28.0550 C.ar    1  UNL1        0.0574
      4 C         -29.0191    1.3501   28.3782 C.ar    1  UNL1        0.0090
      5 C         -28.3170   -1.9812   30.8560 C.3     1  UNL1        0.4186
      6 C         -29.5950    1.2859   29.6049 C.ar    1  UNL1        0.0029
      7 C         -29.3465    0.2093   30.3749 C.ar    1  UNL1        0.0016
      8 F         -29.3232   -2.5848   30.9810 F       1  UNL1       -0.1659
      9 F         -27.8315   -1.6140   32.0713 F       1  UNL1       -0.1659
     10 F         -27.2908   -2.7930   30.3608 F       1  UNL1       -0.1659
     11 CL        -27.3510    0.3766   26.4714 Cl      1  UNL1       -0.0823
     12 C         -30.4900    2.3580   30.0736 C.3     1  UNL1        0.1556
     13 N         -30.0725    3.1856   30.8877 N.2     1  UNL1       -0.2263
     14 C         -30.0173    4.1541   31.3231 C.2     1  UNL1        0.2753
     15 F         -30.9476    4.9472   30.9388 F       1  UNL1       -0.1663
     16 N         -29.0885    4.7274   32.1370 N.pl3   1  UNL1       -0.2705
     17 C         -28.8769    5.9744   32.5299 C.3     1  UNL1        0.0943
     18 C         -27.8884    6.1751   33.2965 C.3     1  UNL1        0.0216
     19 C         -26.9437    5.2446   33.6017 C.3     1  UNL1        0.0035
     20 C         -27.0891    3.9488   33.1484 C.3     1  UNL1        0.0216
     21 C         -28.1660    3.7342   32.3805 C.3     1  UNL1        0.0943
@<TRIPOS>BOND
     1     2     5    1
     2     5     8    1
     3     5     9    1
     4     5    10    1
     5     3    11    1
     6     6    12    1
     7    12    13    1
     8    13    14    2
     9    14    15    1
    10    14    16    1
    11    16    17    1
    12    18    19    1
    13    16    21    1
    14    20    21    1
    15    17    18    1
    16    19    20    1
    17     1     2   ar
    18     2     7   ar
    19     7     6   ar
    20     6     4   ar
    21     4     3   ar
    22     3     1   ar
