@<TRIPOS>MOLECULE
No_4519-gen_results/8p0m/2024-11-26-14-13-15/
 19 19 0 0 0
SMALL
GASTEIGER

@<TRIPOS>ATOM
      1 C         -28.0162   -0.8135   28.8779 C.ar    1  UNL1        0.0553
      2 C         -28.4690   -0.7850   29.8287 C.2     1  UNL1        0.2690
      3 C         -28.1816    0.4277   28.1134 C.ar    1  UNL1        0.0084
      4 C         -27.4498    0.6435   26.8500 C.ar    1  UNL1        0.0716
      5 C         -26.1815    0.0357   26.7145 C.ar    1  UNL1        0.0039
      6 C         -25.7530   -0.9101   27.6815 C.ar    1  UNL1        0.0001
      7 C         -26.5502   -1.2250   28.7228 C.ar    1  UNL1        0.0046
      8 O         -28.5409   -1.9553   30.6018 O.2     1  UNL1       -0.2680
      9 N         -29.5030    0.0626   30.3884 N.am    1  UNL1       -0.1741
     10 C         -30.3569   -0.1787   31.5027 C.2     1  UNL1        0.0889
     11 C         -27.7837    1.6247   25.8614 C.3     1  UNL1        0.4186
     12 F         -27.1551    2.5971   25.9026 F       1  UNL1       -0.1659
     13 F         -29.1150    2.0039   26.0752 F       1  UNL1       -0.1659
     14 F         -27.8036    1.0095   24.6441 F       1  UNL1       -0.1659
     15 C         -31.3870    0.5301   31.4860 C.2     1  UNL1        0.0179
     16 C         -32.3970    0.4518   32.2033 C.2     1  UNL1        0.0014
     17 C         -33.5651    1.2540   32.1280 C.2     1  UNL1        0.0000
     18 C         -33.5601    2.2505   31.1339 C.2     1  UNL1        0.0000
     19 C         -32.5321    2.4097   30.2822 C.2     1  UNL1        0.0000
@<TRIPOS>BOND
     1     1     2    1
     2     2     8    2
     3     2     9   am
     4     9    10    1
     5     4    11    1
     6    11    12    1
     7    11    13    1
     8    11    14    1
     9    10    15    2
    10    15    16    1
    11    16    17    2
    12    17    18    1
    13    18    19    2
    14     1     3   ar
    15     3     4   ar
    16     4     5   ar
    17     5     6   ar
    18     6     7   ar
    19     7     1   ar
