@<TRIPOS>MOLECULE
No_4520-gen_results/8p0m/2024-11-26-14-13-15/
 14 14 0 0 0
SMALL
GASTEIGER

@<TRIPOS>ATOM
      1 C         -28.0162   -0.8135   28.8779 C.ar    1  UNL1       -0.0039
      2 C         -28.4690   -0.7850   29.8287 C.ar    1  UNL1       -0.0003
      3 C         -27.1356    0.2359   28.5352 C.ar    1  UNL1       -0.0178
      4 C         -26.8745    1.2825   29.3982 C.ar    1  UNL1       -0.0039
      5 C         -28.3613    0.1987   30.9244 C.ar    1  UNL1       -0.0000
      6 C         -27.5277    1.2234   30.6356 C.ar    1  UNL1       -0.0003
      7 C         -26.3879    0.2914   27.2334 C.3     1  UNL1        0.0523
      8 C         -25.1510    0.3034   27.2565 C.2     1  UNL1       -0.0214
      9 C         -24.2412    1.0914   27.6024 C.2     1  UNL1       -0.0046
     10 C         -23.0166    1.1106   27.9440 C.2     1  UNL1       -0.0049
     11 C         -22.1205    2.1892   27.8013 C.2     1  UNL1       -0.0261
     12 C         -22.8091    3.3682   27.5255 C.3     1  UNL1        0.0260
     13 C         -24.3782    2.6631   27.1983 C.3     1  UNL1        0.0047
     14 C         -25.3856    3.4605   26.7965 C.3     1  UNL1        0.0004
@<TRIPOS>BOND
     1     3     7    1
     2     7     8    1
     3     8     9    2
     4     9    10    1
     5    10    11    2
     6    11    12    1
     7    12    13    1
     8    13    14    1
     9     1     2   ar
    10     2     5   ar
    11     5     6   ar
    12     6     4   ar
    13     4     3   ar
    14     3     1   ar
