@<TRIPOS>MOLECULE
No_4521-gen_results/8p0m/2024-11-26-14-13-15/
 27 29 0 0 0
SMALL
GASTEIGER

@<TRIPOS>ATOM
      1 C         -28.0162   -0.8135   28.8779 C.ar    1  UNL1        0.0843
      2 C         -27.0636   -0.1189   28.6079 C.ar    1  UNL1        0.0600
      3 C         -27.0010    0.6913   27.4910 C.ar    1  UNL1        0.0049
      4 C         -28.1373    0.7363   26.6350 C.ar    1  UNL1        0.0042
      5 C         -29.2360    0.0765   27.0690 C.ar    1  UNL1        0.0504
      6 C         -29.2177   -0.6429   28.1747 C.ar    1  UNL1        0.0108
      7 C         -30.4152    0.1590   26.1820 C.2     1  UNL1        0.2536
      8 CL        -31.6778   -0.7731   26.5294 Cl      1  UNL1       -0.0382
      9 O         -30.4071    0.8825   25.0868 O.2     1  UNL1       -0.2739
     10 C         -25.7060   -0.2004   29.4211 C.2     1  UNL1        0.2502
     11 N         -24.6849   -0.8114   28.9610 N.am    1  UNL1       -0.2633
     12 C         -23.4990   -0.9135   29.3871 C.3     1  UNL1        0.1466
     13 C         -22.5421   -0.3077   28.4207 C.ar    1  UNL1        0.0082
     14 C         -23.1012    0.8343   27.7192 C.ar    1  UNL1       -0.0016
     15 C         -22.2520    1.9617   27.5624 C.ar    1  UNL1       -0.0002
     16 C         -20.8886    1.7400   27.8459 C.ar    1  UNL1       -0.0000
     17 C         -20.4363    0.6604   28.6176 C.ar    1  UNL1       -0.0002
     18 C         -21.2546   -0.2697   28.9800 C.ar    1  UNL1       -0.0016
     19 O         -25.5270    0.6937   30.3343 O.2     1  UNL1       -0.2699
     20 CL        -23.4675   -0.7529   31.0422 Cl      1  UNL1       -0.0910
     21 C         -28.0540   -1.6760   30.1500 C.2     1  UNL1        0.3879
     22 O         -28.1303   -1.1738   31.2689 O.co2   1  UNL1       -0.2406
     23 O         -27.9095   -2.9377   29.9620 O.co2   1  UNL1       -0.2406
     24 C         -23.0792   -2.5221   29.0453 C.3     1  UNL1        0.0383
     25 C         -25.0868   -1.7980   27.8263 C.3     1  UNL1        0.0950
     26 C         -24.3110   -3.3165   29.0862 C.3     1  UNL1        0.0050
     27 C         -25.1760   -3.1142   28.0860 C.3     1  UNL1        0.0217
@<TRIPOS>BOND
     1     5     7    1
     2     7     8    1
     3     7     9    2
     4     2    10    1
     5    10    11   am
     6    11    12    1
     7    12    13    1
     8    10    19    2
     9    12    20    1
    10     1    21    1
    11    21    22   ar
    12    21    23   ar
    13    12    24    1
    14    11    25    1
    15    24    26    1
    16    25    27    1
    17    26    27    1
    18     1     2   ar
    19     2     3   ar
    20     3     4   ar
    21     4     5   ar
    22     5     6   ar
    23     6     1   ar
    24    13    14   ar
    25    14    15   ar
    26    15    16   ar
    27    16    17   ar
    28    17    18   ar
    29    18    13   ar
