@<TRIPOS>MOLECULE
No_4522-gen_results/8p0m/2024-11-26-14-13-15/
 19 19 0 0 0
SMALL
GASTEIGER

@<TRIPOS>ATOM
      1 C         -28.0162   -0.8135   28.8779 C.3     1  UNL1        0.1312
      2 C         -27.0636   -0.1189   28.6079 C.ar    1  UNL1        0.0307
      3 C         -27.0010    0.6913   27.4910 C.ar    1  UNL1        0.1357
      4 C         -25.8548    1.4825   27.0830 C.ar    1  UNL1        0.0412
      5 C         -24.6901    1.4526   27.8807 C.ar    1  UNL1        0.0605
      6 C         -24.7379    0.6010   29.0416 C.ar    1  UNL1        0.0159
      7 C         -25.8234   -0.1688   29.3887 C.ar    1  UNL1        0.0570
      8 C         -29.2455   -0.0678   29.1937 C.3     1  UNL1        0.3987
      9 F         -29.1656    0.7417   30.0140 F       1  UNL1       -0.1715
     10 F         -30.1835   -0.2537   28.4004 F       1  UNL1       -0.1715
     11 C         -23.5282    2.2243   27.5860 C.2     1  UNL1        0.2843
     12 N         -22.5868    2.2934   28.4964 N.am    1  UNL1       -0.0837
     13 O         -23.3823    2.7012   26.4166 O.2     1  UNL1       -0.2667
     14 CL        -25.7175   -1.1234   30.7485 Cl      1  UNL1       -0.0825
     15 O         -28.0320    0.7812   26.7026 O.3     1  UNL1       -0.4757
     16 C         -27.8943    0.7305   25.3760 C.3     1  UNL1        0.2055
     17 O         -30.1191   -0.2472   29.7142 O.3     1  UNL1       -0.1185
     18 F         -31.2760    0.4790   30.1397 F       1  UNL1       -0.0419
     19 C         -29.0241    1.3450   24.6864 C.3     1  UNL1        0.0512
@<TRIPOS>BOND
     1     1     2    1
     2     1     8    1
     3     8     9    1
     4     8    10    1
     5     5    11    1
     6    11    12   am
     7    11    13    2
     8     7    14    1
     9     3    15    1
    10    15    16    1
    11     8    17    1
    12    17    18    1
    13    16    19    1
    14     2     3   ar
    15     3     4   ar
    16     4     5   ar
    17     5     6   ar
    18     6     7   ar
    19     7     2   ar
