@<TRIPOS>MOLECULE
No_4524-gen_results/8p0m/2024-11-26-14-13-15/
 35 37 0 0 0
SMALL
GASTEIGER

@<TRIPOS>ATOM
      1 C         -28.0162   -0.8135   28.8779 C.ar    1  UNL1        0.0372
      2 C         -28.4690   -0.7850   29.8287 C.ar    1  UNL1        0.1453
      3 C         -26.5455   -0.8762   28.8500 C.ar    1  UNL1       -0.0009
      4 C         -25.8041   -1.0324   30.0571 C.ar    1  UNL1       -0.0191
      5 C         -27.9437   -0.9869   31.2075 C.ar    1  UNL1        0.0372
      6 C         -26.5825   -1.0386   31.2231 C.ar    1  UNL1       -0.0009
      7 O         -29.9267   -0.7257   29.8772 O.3     1  UNL1       -0.4534
      8 C         -30.5256    0.4218   30.2407 C.ar    1  UNL1        0.1485
      9 C         -31.4524    0.8312   29.5589 C.ar    1  UNL1        0.0797
     10 C         -32.1031    2.0991   29.8870 C.ar    1  UNL1        0.2051
     11 C         -31.6336    2.7992   31.0175 C.ar    1  UNL1        0.1188
     12 C         -30.5809    2.2633   31.7311 C.ar    1  UNL1        0.0129
     13 C         -29.9739    1.1210   31.3914 C.ar    1  UNL1        0.0379
     14 C         -24.3879   -1.1683   30.0592 C.3     1  UNL1        0.0340
     15 C         -23.6919    0.0313   29.8917 C.2     1  UNL1       -0.0407
     16 C         -22.4540    0.0509   29.1690 C.2     1  UNL1       -0.0082
     17 C         -21.8070    1.2458   28.8877 C.2     1  UNL1       -0.0009
     18 C         -22.3390    1.9480   27.7652 C.2     1  UNL1       -0.0040
     19 C         -23.7291    2.1798   27.7210 C.2     1  UNL1       -0.0182
     20 C         -24.2246    3.0055   28.0244 C.2     1  UNL1        0.0022
     21 C         -25.7195    3.3250   27.6978 C.2     1  UNL1        0.0714
     22 C         -26.2704    2.3858   26.8926 C.2     1  UNL1       -0.0156
     23 C         -24.6937    1.3966   26.8824 C.3     1  UNL1        0.0445
     24 C         -23.8727   -2.2408   29.1445 C.3     1  UNL1        0.0084
     25 C         -23.9432   -1.5722   31.5885 C.3     1  UNL1        0.0084
     26 O         -33.1610    2.5324   29.1726 O.3     1  UNL1       -0.2862
     27 C         -32.2987    4.0531   31.4217 C.2     1  UNL1        0.3909
     28 O         -33.0936    4.6227   30.9854 O.co2   1  UNL1       -0.2404
     29 O         -31.6873    4.5086   32.5312 O.co2   1  UNL1       -0.2404
     30 C         -23.3996    0.8871   31.2234 C.3     1  UNL1        0.0267
     31 C         -26.4872    4.4874   28.1680 C.2     1  UNL1        0.3410
     32 O         -26.2755    5.3370   28.7761 O.2     1  UNL1       -0.2449
     33 O         -27.7330    4.5176   27.4694 O.3     1  UNL1       -0.4413
     34 C         -28.6954    5.3044   28.0060 C.3     1  UNL1        0.2560
     35 C         -24.6397    0.2748   26.0996 C.3     1  UNL1        0.0094
@<TRIPOS>BOND
     1     2     7    1
     2     7     8    1
     3     4    14    1
     4    14    15    1
     5    15    16    2
     6    16    17    1
     7    17    18    2
     8    18    19    1
     9    19    20    2
    10    20    21    1
    11    21    22    2
    12    19    23    1
    13    22    23    1
    14    14    24    1
    15    14    25    1
    16    10    26    1
    17    11    27    1
    18    27    28   ar
    19    27    29   ar
    20    15    30    1
    21    21    31    1
    22    31    32    2
    23    31    33    1
    24    33    34    1
    25    23    35    1
    26     8     9   ar
    27     9    10   ar
    28    10    11   ar
    29    11    12   ar
    30    12    13   ar
    31    13     8   ar
    32     1     2   ar
    33     2     5   ar
    34     5     6   ar
    35     6     4   ar
    36     4     3   ar
    37     3     1   ar
