@<TRIPOS>MOLECULE
No_4525-gen_results/8p0m/2024-11-26-14-13-15/
 14 15 0 0 0
SMALL
GASTEIGER

@<TRIPOS>ATOM
      1 C         -28.0162   -0.8135   28.8779 C.3     1  UNL1        0.1512
      2 C         -27.0636   -0.1189   28.6079 C.ar    1  UNL1       -0.0019
      3 C         -27.0010    0.6913   27.4910 C.ar    1  UNL1       -0.0237
      4 C         -25.8548    1.4825   27.0830 C.ar    1  UNL1        0.0001
      5 C         -24.6901    1.4526   27.8807 C.ar    1  UNL1        0.0563
      6 C         -24.7379    0.6010   29.0416 C.ar    1  UNL1        0.0043
      7 C         -25.8234   -0.1688   29.3887 C.ar    1  UNL1       -0.0025
      8 N         -29.2075   -0.1514   29.0660 N.2     1  UNL1       -0.2687
      9 C         -29.7474    0.5548   28.4314 C.2     1  UNL1        0.0675
     10 C         -29.3636    1.2036   27.2583 C.3     1  UNL1        0.0512
     11 C         -28.0469    1.7546   27.1666 C.3     1  UNL1        0.0324
     12 C         -23.4302    2.1053   27.5513 C.2     1  UNL1        0.2842
     13 O         -23.4302    3.0487   26.8266 O.2     1  UNL1       -0.2667
     14 N         -22.3250    1.8877   28.3344 N.am    1  UNL1       -0.0837
@<TRIPOS>BOND
     1     1     2    1
     2     1     8    1
     3     8     9    2
     4     9    10    1
     5     3    11    1
     6    10    11    1
     7     5    12    1
     8    12    13    2
     9    12    14   am
    10     2     3   ar
    11     3     4   ar
    12     4     5   ar
    13     5     6   ar
    14     6     7   ar
    15     7     2   ar
