@<TRIPOS>MOLECULE
No_4526-gen_results/8p0m/2024-11-26-14-13-15/
 16 17 0 0 0
SMALL
GASTEIGER

@<TRIPOS>ATOM
      1 C         -28.0162   -0.8135   28.8779 C.ar    1  UNL1        0.1445
      2 C         -28.4690   -0.7850   29.8287 C.ar    1  UNL1        0.0810
      3 C         -26.5455   -0.8762   28.8500 C.ar    1  UNL1        0.0298
      4 C         -25.8041   -1.0324   30.0571 C.ar    1  UNL1        0.0023
      5 C         -27.9437   -0.9869   31.2075 C.ar    1  UNL1        0.0068
      6 C         -26.5825   -1.0386   31.2231 C.ar    1  UNL1        0.0003
      7 C         -30.0606   -0.7371   29.9024 C.2     1  UNL1        0.2530
      8 O         -30.7252   -1.5544   30.2697 O.2     1  UNL1       -0.2698
      9 N         -30.5563    0.4242   29.3124 N.am    1  UNL1       -0.2499
     10 C         -31.9645    0.5638   29.1626 C.3     1  UNL1        0.0962
     11 C         -32.2853    1.2696   28.1337 C.3     1  UNL1        0.0217
     12 C         -31.3616    2.1104   27.3885 C.3     1  UNL1        0.0064
     13 C         -29.9730    1.8989   27.6231 C.3     1  UNL1        0.0568
     14 C         -29.6126    1.0500   28.4870 C.3     1  UNL1        0.2396
     15 F         -28.3441    0.8741   28.3759 F       1  UNL1       -0.2147
     16 F         -28.4100   -1.3889   27.8583 F       1  UNL1       -0.2040
@<TRIPOS>BOND
     1     2     7    1
     2     7     8    2
     3     7     9   am
     4     9    10    1
     5    11    12    1
     6     9    14    1
     7    13    14    1
     8    14    15    1
     9     1    16    1
    10    10    11    1
    11    12    13    1
    12     1     2   ar
    13     2     5   ar
    14     5     6   ar
    15     6     4   ar
    16     4     3   ar
    17     3     1   ar
