@<TRIPOS>MOLECULE
No_4527-gen_results/8p0m/2024-11-26-14-13-15/
 17 19 0 0 0
SMALL
GASTEIGER

@<TRIPOS>ATOM
      1 N         -28.0544   -1.0498   28.7246 N.pl3   1  UNL1       -0.1281
      2 C         -27.7460   -0.0733   29.0098 C.ar    1  UNL1        0.0891
      3 C         -27.1737    0.7565   28.1070 C.ar    1  UNL1        0.0168
      4 C         -25.8200    1.2606   28.2149 C.ar    1  UNL1        0.0013
      5 C         -25.3544    1.5792   29.1553 C.ar    1  UNL1        0.0001
      6 C         -26.0062    1.0642   30.4405 C.ar    1  UNL1        0.0014
      7 C         -27.0427    0.1771   30.2859 C.ar    1  UNL1        0.0181
      8 C         -27.8055    0.7363   26.7151 C.ar    1  UNL1        0.0013
      9 C         -29.1583    0.8333   26.6963 C.ar    1  UNL1        0.0000
     10 C         -27.0387    0.6125   25.5258 C.ar    1  UNL1        0.0000
     11 C         -29.7994    0.7699   25.4298 C.ar    1  UNL1        0.0000
     12 C         -27.6450    0.5547   24.3050 C.ar    1  UNL1        0.0000
     13 C         -29.0089    0.6536   24.2144 C.ar    1  UNL1        0.0000
     14 C         -23.8400    1.5327   29.4268 C.ar    1  UNL1        0.0000
     15 C         -23.0348    1.6911   28.1853 C.ar    1  UNL1        0.0000
     16 C         -23.7162    1.6615   26.9357 C.ar    1  UNL1        0.0000
     17 C         -25.0027    1.3674   26.9179 C.ar    1  UNL1        0.0000
@<TRIPOS>BOND
     1     1     2    1
     2     3     8    1
     3     8     9   ar
     4     9    11   ar
     5    11    13   ar
     6    13    12   ar
     7    12    10   ar
     8    10     8   ar
     9     2     3   ar
    10     3     4   ar
    11     5     6   ar
    12     6     7   ar
    13     7     2   ar
    14     4     5   ar
    15     5    14   ar
    16    14    15   ar
    17    15    16   ar
    18    16    17   ar
    19    17     4   ar
