@<TRIPOS>MOLECULE
No_4528-gen_results/8p0m/2024-11-26-14-13-15/
 26 28 0 0 0
SMALL
GASTEIGER

@<TRIPOS>ATOM
      1 C         -28.0162   -0.8135   28.8779 C.2     1  UNL1        0.0535
      2 C         -27.0636   -0.1189   28.6079 C.2     1  UNL1       -0.0134
      3 C         -26.8756    1.1325   28.9134 C.3     1  UNL1        0.0532
      4 C         -25.6883    1.9515   28.5672 C.3     1  UNL1        0.1118
      5 C         -24.6394    1.2834   27.8753 C.3     1  UNL1        0.0243
      6 C         -24.8068   -0.0513   27.6040 C.3     1  UNL1        0.0297
      7 C         -25.9020   -0.7670   27.9511 C.3     1  UNL1        0.1235
      8 C         -28.0611   -1.4288   30.2827 C.2     1  UNL1        0.2700
      9 N         -27.1060   -1.8511   30.7338 N.am    1  UNL1       -0.1541
     10 O         -29.1892   -1.5135   30.8734 O.2     1  UNL1       -0.2680
     11 C         -23.4135    1.9801   27.5041 C.3     1  UNL1        0.1040
     12 C         -22.1454    1.5848   28.0963 C.2     1  UNL1        0.3643
     13 C         -23.4617    2.8173   26.3345 C.3     1  UNL1        0.0118
     14 C         -25.5188    3.3824   28.9182 C.2     1  UNL1        0.3650
     15 O         -25.1003    3.6745   30.0140 O.co2   1  UNL1       -0.2456
     16 O         -25.7220    4.2497   27.9873 O.co2   1  UNL1       -0.2456
     17 O         -22.0502    1.0164   29.1830 O.co2   1  UNL1       -0.2457
     18 O         -20.9880    1.7354   27.4242 O.co2   1  UNL1       -0.2457
     19 C         -25.7517   -1.8948   30.2062 C.2     1  UNL1        0.1838
     20 N         -25.3319   -1.6845   29.1660 N.2     1  UNL1       -0.2501
     21 C         -27.9628    2.0175   29.5620 C.ar    1  UNL1       -0.0181
     22 C         -28.3238    3.2605   29.2481 C.ar    1  UNL1       -0.0040
     23 C         -29.4404    3.7264   29.8529 C.ar    1  UNL1       -0.0003
     24 C         -30.1999    2.9305   30.7071 C.ar    1  UNL1       -0.0000
     25 C         -29.8228    1.6650   31.0414 C.ar    1  UNL1       -0.0003
     26 C         -28.6995    1.2083   30.4750 C.ar    1  UNL1       -0.0040
@<TRIPOS>BOND
     1     1     2    2
     2     2     3    1
     3     3     4    1
     4     4     5    1
     5     5     6    1
     6     2     7    1
     7     6     7    1
     8     1     8    1
     9     8     9   am
    10     8    10    2
    11     5    11    1
    12    11    12    1
    13    11    13    1
    14     4    14    1
    15    14    15   ar
    16    14    16   ar
    17    12    17   ar
    18    12    18   ar
    19     9    19    1
    20     7    20    1
    21    19    20    2
    22     3    21    1
    23    21    22   ar
    24    22    23   ar
    25    23    24   ar
    26    24    25   ar
    27    25    26   ar
    28    26    21   ar
