@<TRIPOS>MOLECULE
No_4529-gen_results/8p0m/2024-11-26-14-13-15/
 35 38 0 0 0
SMALL
GASTEIGER

@<TRIPOS>ATOM
      1 C         -28.0162   -0.8135   28.8779 C.ar    1  UNL1        0.0564
      2 C         -27.0636   -0.1190   28.6079 C.ar    1  UNL1        0.0033
      3 C         -26.9716    0.7139   27.5060 C.ar    1  UNL1        0.0155
      4 C         -28.1053    0.7744   26.6421 C.ar    1  UNL1        0.0132
      5 C         -29.2008    0.1044   27.0527 C.ar    1  UNL1        0.0479
      6 C         -28.0219   -1.5899   30.0879 C.2     1  UNL1        0.2690
      7 C         -29.1640   -0.6394   28.1484 C.ar    1  UNL1        0.0191
      8 N         -27.0665   -2.4543   30.3037 N.am    1  UNL1       -0.1757
      9 O         -29.0149   -1.6588   30.8762 O.2     1  UNL1       -0.2680
     10 N         -30.3241    0.2004   26.2303 N.pl3   1  UNL1       -0.3041
     11 C         -30.3218    0.1873   24.9078 C.3     1  UNL1        0.1122
     12 C         -31.4935   -0.6442   26.6972 C.3     1  UNL1        0.1122
     13 C         -25.8404   -2.5240   29.5375 C.ar    1  UNL1        0.0727
     14 C         -25.4796   -3.7476   28.9448 C.ar    1  UNL1        0.0370
     15 C         -24.4011   -4.2788   29.6380 C.ar    1  UNL1        0.1002
     16 N         -23.4340   -4.0023   29.0510 N.ar    1  UNL1       -0.2426
     17 C         -24.6239   -1.9470   30.3249 C.ar    1  UNL1        0.0123
     18 C         -23.4191   -2.3711   29.3373 C.ar    1  UNL1        0.0959
     19 C         -24.4639   -0.4707   30.4923 C.3     1  UNL1        0.0295
     20 C         -23.4310    0.2341   29.9928 C.3     1  UNL1        0.0308
     21 C         -23.6335    0.9581   28.8563 C.ar    1  UNL1       -0.0221
     22 C         -22.4472    1.4747   28.1432 C.ar    1  UNL1       -0.0043
     23 C         -22.6602    2.2786   26.9954 C.ar    1  UNL1       -0.0006
     24 C         -24.0215    2.4449   26.5116 C.ar    1  UNL1       -0.0013
     25 C         -24.9899    2.3285   27.2857 C.ar    1  UNL1        0.0138
     26 C         -24.8410    1.5370   28.4666 C.ar    1  UNL1       -0.0054
     27 C         -25.8591    1.5954   27.3518 C.3     1  UNL1        0.2056
     28 F         -25.6626    1.2587   25.9767 F       1  UNL1       -0.2275
     29 C         -25.5098    1.9441   29.8001 C.2     1  UNL1       -0.0048
     30 C         -24.8143   -0.0484   31.9826 C.3     1  UNL1        0.0051
     31 C         -25.3757    3.1091   30.1721 C.2     1  UNL1       -0.0215
     32 C         -25.9215    3.6640   31.3838 C.3     1  UNL1        0.0517
     33 C         -27.0918    4.3338   31.4126 C.2     1  UNL1       -0.0260
     34 C         -27.7297    4.6151   30.3760 C.2     1  UNL1       -0.0300
     35 C         -28.2879    5.4610   29.9849 C.3     1  UNL1        0.0304
@<TRIPOS>BOND
     1     1     6    1
     2     6     8   am
     3     6     9    2
     4     5    10    1
     5    10    11    1
     6    10    12    1
     7     8    13    1
     8    17    19    1
     9    19    20    1
    10    20    21    1
    11     3    27    1
    12    25    27    1
    13    27    28    1
    14    26    29    1
    15    19    30    1
    16    29    31    2
    17    31    32    1
    18    32    33    1
    19    33    34    2
    20    34    35    1
    21     1     2   ar
    22     2     3   ar
    23     3     4   ar
    24     4     5   ar
    25     5     7   ar
    26     7     1   ar
    27    13    14   ar
    28    14    15   ar
    29    15    16   ar
    30    16    18   ar
    31    18    17   ar
    32    17    13   ar
    33    21    22   ar
    34    22    23   ar
    35    23    24   ar
    36    24    25   ar
    37    25    26   ar
    38    26    21   ar
