@<TRIPOS>MOLECULE
No_453-gen_results/8p0m/2024-11-26-14-13-15/
 12 13 0 0 0
SMALL
GASTEIGER

@<TRIPOS>ATOM
      1 C         -28.0162   -0.8135   28.8779 C.ar    1  UNL1        0.0000
      2 C         -28.4690   -0.7850   29.8287 C.ar    1  UNL1        0.0000
      3 C         -27.0871    0.2903   28.6377 C.ar    1  UNL1        0.0000
      4 C         -26.8317    1.2487   29.5869 C.ar    1  UNL1        0.0000
      5 C         -28.3914    0.0801   31.0065 C.ar    1  UNL1        0.0000
      6 C         -27.4940    1.1521   30.7841 C.ar    1  UNL1        0.0000
      7 C         -26.3172    0.3994   27.3653 C.ar    1  UNL1        0.0000
      8 C         -26.8815    0.9711   26.3721 C.ar    1  UNL1        0.0000
      9 C         -25.0088   -0.0567   27.3826 C.ar    1  UNL1        0.0000
     10 C         -26.2590    0.8367   25.0813 C.ar    1  UNL1        0.0000
     11 C         -24.2318    0.0673   26.2174 C.ar    1  UNL1        0.0000
     12 C         -24.8997    0.5146   25.0354 C.ar    1  UNL1        0.0000
@<TRIPOS>BOND
     1     3     7    1
     2     1     2   ar
     3     2     5   ar
     4     5     6   ar
     5     6     4   ar
     6     4     3   ar
     7     3     1   ar
     8     7     8   ar
     9     8    10   ar
    10    10    12   ar
    11    12    11   ar
    12    11     9   ar
    13     9     7   ar
