@<TRIPOS>MOLECULE
No_4530-gen_results/8p0m/2024-11-26-14-13-15/
 17 18 0 0 0
SMALL
GASTEIGER

@<TRIPOS>ATOM
      1 C         -28.0162   -0.8135   28.8779 C.ar    1  UNL1       -0.0003
      2 C         -28.4690   -0.7850   29.8287 C.ar    1  UNL1       -0.0000
      3 C         -27.0871    0.2903   28.6377 C.ar    1  UNL1       -0.0040
      4 C         -26.8317    1.2487   29.5869 C.ar    1  UNL1       -0.0003
      5 C         -28.3914    0.0801   31.0065 C.ar    1  UNL1       -0.0000
      6 C         -27.4940    1.1521   30.7841 C.ar    1  UNL1       -0.0000
      7 C         -26.3172    0.3994   27.3653 C.2     1  UNL1       -0.0217
      8 C         -26.8815    0.9711   26.3721 C.2     1  UNL1       -0.0012
      9 C         -28.2026    1.4637   26.4214 C.ar    1  UNL1        0.0337
     10 C         -28.8475    1.7009   27.4515 C.ar    1  UNL1        0.1386
     11 C         -29.9407    2.2689   27.5240 C.ar    1  UNL1        0.0369
     12 C         -30.5238    2.7338   26.2417 C.ar    1  UNL1        0.0031
     13 C         -29.8451    2.5456   25.0621 C.ar    1  UNL1        0.0002
     14 C         -28.6268    2.0727   25.1000 C.ar    1  UNL1        0.0030
     15 C         -25.0464   -0.2373   27.4578 C.3     1  UNL1        0.0310
     16 O         -28.6448    1.2144   28.6760 O.3     1  UNL1       -0.4714
     17 C         -29.4058    1.6221   29.4841 C.3     1  UNL1        0.2525
@<TRIPOS>BOND
     1     3     7    1
     2     7     8    2
     3     8     9    1
     4     7    15    1
     5    10    16    1
     6    16    17    1
     7     9    10   ar
     8    10    11   ar
     9    11    12   ar
    10    12    13   ar
    11    13    14   ar
    12    14     9   ar
    13     1     2   ar
    14     2     5   ar
    15     5     6   ar
    16     6     4   ar
    17     4     3   ar
    18     3     1   ar
