@<TRIPOS>MOLECULE
No_4531-gen_results/8p0m/2024-11-26-14-13-15/
 17 18 0 0 0
SMALL
GASTEIGER

@<TRIPOS>ATOM
      1 C         -28.0162   -0.8135   28.8779 C.ar    1  UNL1        0.0152
      2 C         -28.4690   -0.7850   29.8287 C.ar    1  UNL1        0.0577
      3 C         -27.1356    0.2359   28.5352 C.ar    1  UNL1        0.0723
      4 C         -26.8745    1.2825   29.3982 C.ar    1  UNL1        0.0054
      5 C         -28.3613    0.1987   30.9244 C.ar    1  UNL1        0.0129
      6 C         -27.5277    1.2234   30.6356 C.ar    1  UNL1        0.0184
      7 C         -26.3987    0.2949   27.2279 C.3     1  UNL1        0.4186
      8 F         -26.2345    1.5269   26.9600 F       1  UNL1       -0.1659
      9 F         -25.2362   -0.3484   27.3099 F       1  UNL1       -0.1659
     10 F         -27.1496   -0.2082   26.2061 F       1  UNL1       -0.1659
     11 CL        -29.5215   -2.1758   30.3746 Cl      1  UNL1       -0.0823
     12 C         -27.3061    2.3653   31.5874 C.ar    1  UNL1        0.0813
     13 N         -26.3831    2.7233   31.9636 N.ar    1  UNL1       -0.2438
     14 C         -26.0560    3.8511   32.6501 C.ar    1  UNL1        0.0988
     15 C         -28.3041    3.4330   31.4887 C.ar    1  UNL1        0.0191
     16 C         -28.2086    4.5968   32.2169 C.ar    1  UNL1        0.0031
     17 C         -26.9882    4.8346   32.8736 C.ar    1  UNL1        0.0207
@<TRIPOS>BOND
     1     3     7    1
     2     7     8    1
     3     7     9    1
     4     7    10    1
     5     2    11    1
     6     6    12    1
     7    12    13   ar
     8    13    14   ar
     9    14    17   ar
    10    17    16   ar
    11    16    15   ar
    12    15    12   ar
    13     1     2   ar
    14     2     5   ar
    15     5     6   ar
    16     6     4   ar
    17     4     3   ar
    18     3     1   ar
