@<TRIPOS>MOLECULE
No_4532-gen_results/8p0m/2024-11-26-14-13-15/
 13 14 0 0 0
SMALL
GASTEIGER

@<TRIPOS>ATOM
      1 C         -28.0162   -0.8135   28.8779 C.ar    1  UNL1        0.0988
      2 C         -27.0636   -0.1189   28.6079 C.ar    1  UNL1        0.0192
      3 C         -27.0010    0.6913   27.4910 C.ar    1  UNL1        0.0018
      4 C         -25.8548    1.4825   27.0830 C.ar    1  UNL1        0.0066
      5 C         -24.6901    1.4526   27.8807 C.ar    1  UNL1        0.0798
      6 C         -24.7379    0.6010   29.0416 C.ar    1  UNL1        0.0067
      7 C         -25.8234   -0.1688   29.3887 C.ar    1  UNL1        0.0033
      8 N         -27.9613   -1.6072   30.0877 N.ar    1  UNL1       -0.2423
      9 C         -23.5206    2.2106   27.5733 C.2     1  UNL1        0.3878
     10 O         -22.7113    2.4004   28.4702 O.co2   1  UNL1       -0.2406
     11 O         -23.4526    2.7917   26.4467 O.co2   1  UNL1       -0.2406
     12 C         -26.7841   -1.9302   30.6831 C.ar    1  UNL1        0.0989
     13 C         -25.7616   -1.1064   30.4518 C.ar    1  UNL1        0.0207
@<TRIPOS>BOND
     1     5     9    1
     2     9    10   ar
     3     9    11   ar
     4     2     3   ar
     5     3     4   ar
     6     4     5   ar
     7     5     6   ar
     8     6     7   ar
     9     1     2   ar
    10     2     7   ar
    11     7    13   ar
    12    13    12   ar
    13    12     8   ar
    14     8     1   ar
