@<TRIPOS>MOLECULE
No_4533-gen_results/8p0m/2024-11-26-14-13-15/
 21 22 0 0 0
SMALL
GASTEIGER

@<TRIPOS>ATOM
      1 C         -28.0162   -0.8135   28.8779 C.ar    1  UNL1       -0.0035
      2 C         -28.4690   -0.7850   29.8287 C.ar    1  UNL1       -0.0003
      3 C         -28.1816    0.4277   28.1134 C.ar    1  UNL1       -0.0098
      4 C         -28.9841    1.4155   28.5154 C.ar    1  UNL1       -0.0035
      5 C         -29.3802    0.1384   30.4612 C.ar    1  UNL1       -0.0000
      6 C         -29.5415    1.2736   29.7242 C.ar    1  UNL1       -0.0003
      7 C         -27.4586    0.4934   26.7701 C.3     1  UNL1        0.1211
      8 C         -26.0264    0.3840   26.7617 C.ar    1  UNL1       -0.0101
      9 C         -25.2897    0.9319   25.7830 C.ar    1  UNL1       -0.0035
     10 C         -23.8971    0.9071   25.8408 C.ar    1  UNL1       -0.0006
     11 C         -23.2504    0.7158   27.0661 C.ar    1  UNL1       -0.0043
     12 C         -24.0334    0.3003   28.1689 C.ar    1  UNL1       -0.0228
     13 C         -25.3916    0.1762   28.0589 C.ar    1  UNL1       -0.0078
     14 C         -28.1918    0.4722   25.5975 C.2     1  UNL1        0.2335
     15 O         -28.7702   -0.1663   24.9636 O.2     1  UNL1       -0.2742
     16 N         -28.4334    1.9242   25.2789 N.am    1  UNL1       -0.2755
     17 C         -29.1566    2.3275   24.0943 C.3     1  UNL1        0.1149
     18 C         -23.3053    0.0507   29.4532 C.3     1  UNL1        0.0223
     19 C         -23.0952   -1.0612   29.9314 C.3     1  UNL1        0.0047
     20 C         -22.9032    1.2437   30.1564 C.3     1  UNL1        0.0047
     21 C         -27.7379    3.1096   25.8947 C.3     1  UNL1        0.1149
@<TRIPOS>BOND
     1     3     7    1
     2     7     8    1
     3     7    14    1
     4    14    15    2
     5    14    16   am
     6    16    17    1
     7    12    18    1
     8    18    19    1
     9    18    20    1
    10    16    21    1
    11     8     9   ar
    12     9    10   ar
    13    10    11   ar
    14    11    12   ar
    15    12    13   ar
    16    13     8   ar
    17     1     2   ar
    18     2     5   ar
    19     5     6   ar
    20     6     4   ar
    21     4     3   ar
    22     3     1   ar
