@<TRIPOS>MOLECULE
No_4535-gen_results/8p0m/2024-11-26-14-13-15/
 22 25 0 0 0
SMALL
GASTEIGER

@<TRIPOS>ATOM
      1 C         -28.0162   -0.8135   28.8779 C.ar    1  UNL1        0.0114
      2 C         -27.0636   -0.1189   28.6079 C.ar    1  UNL1        0.0577
      3 C         -26.9287    1.1713   29.0083 C.ar    1  UNL1        0.0114
      4 C         -27.9560    1.7411   29.7840 C.ar    1  UNL1        0.0009
      5 C         -29.0569   -0.3271   29.7466 C.ar    1  UNL1        0.0021
      6 C         -30.1704   -1.1582   30.1327 C.ar    1  UNL1        0.0151
      7 C         -28.9772    0.9577   30.1786 C.ar    1  UNL1        0.0001
      8 C         -31.2739   -1.0414   29.5690 C.ar    1  UNL1        0.0714
      9 C         -32.3223   -1.9908   29.7858 C.ar    1  UNL1        0.0685
     10 C         -33.5198   -1.9382   29.0600 C.2     1  UNL1        0.2514
     11 C         -29.7561   -2.5806   30.4076 C.ar    1  UNL1        0.0013
     12 C         -30.7240   -3.5490   30.7103 C.ar    1  UNL1        0.0002
     13 C         -31.9400   -3.2668   30.1889 C.ar    1  UNL1        0.0058
     14 N         -33.8388   -0.7495   28.5993 N.am    1  UNL1       -0.2602
     15 O         -34.4394   -2.7130   29.2944 O.2     1  UNL1       -0.2698
     16 C         -35.1404   -0.4348   27.9805 C.3     1  UNL1        0.0953
     17 CL        -25.7529   -0.8948   27.7287 Cl      1  UNL1       -0.0822
     18 C         -35.2012    0.6855   27.3756 C.3     1  UNL1        0.0217
     19 C         -34.1496    1.5980   27.2990 C.3     1  UNL1        0.0053
     20 C         -32.8821    1.2852   27.8233 C.3     1  UNL1        0.0424
     21 C         -32.7246    0.1822   28.3741 C.3     1  UNL1        0.1693
     22 N         -31.5654   -0.0828   28.9860 N.pl3   1  UNL1       -0.2190
@<TRIPOS>BOND
     1     5     6    1
     2     9    10    1
     3    10    14   am
     4    10    15    2
     5    14    16    1
     6     2    17    1
     7    18    19    1
     8    14    21    1
     9    20    21    1
    10     8    22    1
    11    22    21    1
    12    16    18    1
    13    19    20    1
    14     1     2   ar
    15     2     3   ar
    16     3     4   ar
    17     4     7   ar
    18     7     5   ar
    19     5     1   ar
    20     6     8   ar
    21     8     9   ar
    22     9    13   ar
    23    13    12   ar
    24    12    11   ar
    25    11     6   ar
