@<TRIPOS>MOLECULE
No_4536-gen_results/8p0m/2024-11-26-14-13-15/
 13 14 0 0 0
SMALL
GASTEIGER

@<TRIPOS>ATOM
      1 C         -28.0162   -0.8135   28.8779 C.2     1  UNL1        0.0372
      2 C         -27.0636   -0.1190   28.6079 C.2     1  UNL1       -0.0362
      3 C         -26.9716    0.7139   27.5060 C.3     1  UNL1        0.0271
      4 C         -25.8205    1.4909   27.1160 C.3     1  UNL1        0.0304
      5 C         -24.8579    1.3421   27.6008 C.ar    1  UNL1       -0.0255
      6 C         -23.5687    2.1107   27.3209 C.ar    1  UNL1       -0.0046
      7 C         -22.3866    1.9588   28.0825 C.ar    1  UNL1       -0.0003
      8 C         -22.4117    0.9982   29.1111 C.ar    1  UNL1       -0.0003
      9 C         -23.5355    0.3332   29.4614 C.ar    1  UNL1       -0.0043
     10 C         -24.6529    0.4503   28.7643 C.ar    1  UNL1       -0.0221
     11 C         -25.7524   -0.2793   29.2070 C.3     1  UNL1        0.0481
     12 C         -29.2750   -0.1271   29.1728 C.2     1  UNL1        0.2336
     13 O         -30.2021   -0.5039   28.4882 O.2     1  UNL1       -0.2832
@<TRIPOS>BOND
     1     1     2    2
     2     2     3    1
     3     3     4    1
     4     4     5    1
     5     2    11    1
     6    10    11    1
     7     1    12    1
     8    12    13    2
     9     5     6   ar
    10     6     7   ar
    11     7     8   ar
    12     8     9   ar
    13     9    10   ar
    14    10     5   ar
