@<TRIPOS>MOLECULE
No_454-gen_results/8p0m/2024-11-26-14-13-15/
 17 19 0 0 0
SMALL
GASTEIGER

@<TRIPOS>ATOM
      1 C         -28.0162   -0.8135   28.8779 C.ar    1  UNL1        0.0025
      2 C         -28.4690   -0.7850   29.8287 C.ar    1  UNL1        0.0307
      3 C         -28.1816    0.4277   28.1134 C.ar    1  UNL1        0.0001
      4 C         -27.4498    0.6435   26.8500 C.ar    1  UNL1        0.0000
      5 C         -27.8596    1.4573   25.9076 C.ar    1  UNL1        0.0000
      6 C         -29.4263    0.1097   30.4178 C.ar    1  UNL1       -0.0194
      7 C         -30.0593   -0.0863   31.6841 C.3     1  UNL1        0.0269
      8 C         -28.9785    1.4326   28.5693 C.ar    1  UNL1       -0.0003
      9 C         -29.5762    1.2651   29.7104 C.ar    1  UNL1       -0.0042
     10 C         -27.1601    1.5812   24.7090 C.ar    1  UNL1        0.0000
     11 C         -26.0746    0.7654   24.4402 C.ar    1  UNL1        0.0000
     12 C         -25.6245   -0.1131   25.4126 C.ar    1  UNL1        0.0000
     13 C         -26.2711   -0.2041   26.5738 C.ar    1  UNL1        0.0000
     14 C         -30.2151   -1.1337   32.2127 C.3     1  UNL1        0.0128
     15 C         -29.7667   -2.3284   31.5926 C.3     1  UNL1        0.0695
     16 C         -28.7326   -2.1813   30.5626 C.2     1  UNL1        0.1727
     17 O         -28.0930   -3.2177   30.0732 O.2     1  UNL1       -0.2913
@<TRIPOS>BOND
     1     3     4    1
     2     6     7    1
     3    14    15    1
     4     2    16    1
     5    15    16    1
     6    16    17    2
     7     7    14    1
     8     1     2   ar
     9     2     6   ar
    10     6     9   ar
    11     9     8   ar
    12     8     3   ar
    13     3     1   ar
    14     4     5   ar
    15     5    10   ar
    16    10    11   ar
    17    11    12   ar
    18    12    13   ar
    19    13     4   ar
