@<TRIPOS>MOLECULE
No_4540-gen_results/8p0m/2024-11-26-14-13-15/
 33 37 0 0 0
SMALL
GASTEIGER

@<TRIPOS>ATOM
      1 C         -28.0162   -0.8135   28.8779 C.ar    1  UNL1        0.0046
      2 C         -27.0636   -0.1190   28.6079 C.ar    1  UNL1        0.0001
      3 C         -25.7647   -0.3897   29.0360 C.ar    1  UNL1       -0.0002
      4 C         -25.5296   -1.5302   29.9014 C.ar    1  UNL1        0.0001
      5 C         -26.6888   -2.2893   30.1810 C.ar    1  UNL1        0.0046
      6 C         -27.8727   -1.9508   29.7373 C.ar    1  UNL1        0.0555
      7 C         -24.5491    0.4100   28.7341 C.ar    1  UNL1       -0.0006
      8 C         -24.4789    1.1871   27.6843 C.ar    1  UNL1        0.0192
      9 C         -23.2716    1.8973   27.3731 C.ar    1  UNL1        0.1350
     10 C         -22.1063    1.7032   28.0412 C.ar    1  UNL1        0.0366
     11 C         -23.3188    0.1792   29.4669 C.ar    1  UNL1       -0.0001
     12 C         -22.1165    0.8402   29.1011 C.ar    1  UNL1        0.0031
     13 C         -29.0352   -2.7858   30.1613 C.2     1  UNL1        0.2716
     14 N         -28.9002   -4.0976   30.3678 N.am    1  UNL1       -0.1371
     15 O         -30.1709   -2.3042   30.3135 O.2     1  UNL1       -0.2679
     16 C         -29.9261   -5.0317   30.6971 C.2     1  UNL1        0.2716
     17 C         -30.8394   -5.2743   29.7091 C.ar    1  UNL1        0.0555
     18 C         -30.6950   -5.0943   28.5110 C.ar    1  UNL1        0.0051
     19 C         -31.5099   -5.4828   27.3883 C.ar    1  UNL1        0.0068
     20 C         -32.6920   -6.1489   27.6787 C.ar    1  UNL1        0.0346
     21 C         -32.9256   -6.4193   29.0650 C.ar    1  UNL1        0.0068
     22 C         -32.0223   -6.0642   30.0743 C.ar    1  UNL1        0.0051
     23 O         -30.0580   -5.2231   31.9525 O.2     1  UNL1       -0.2679
     24 O         -23.3290    2.7676   26.3014 O.3     1  UNL1       -0.4751
     25 BR        -33.8502   -6.6287   26.3753 Br      1  UNL1       -0.0490
     26 C         -24.4667    2.5800   25.5725 C.3     1  UNL1        0.2141
     27 C         -25.1328    1.5458   26.4593 C.3     1  UNL1        0.0912
     28 C         -26.3750    0.8929   26.0148 C.ar    1  UNL1       -0.0147
     29 C         -27.5189    1.6166   26.1751 C.ar    1  UNL1       -0.0038
     30 C         -26.2394    0.1130   24.8223 C.ar    1  UNL1       -0.0038
     31 C         -28.7351    1.1463   25.5378 C.ar    1  UNL1       -0.0003
     32 C         -27.3472   -0.4064   24.2194 C.ar    1  UNL1       -0.0003
     33 C         -28.5612    0.1231   24.5652 C.ar    1  UNL1       -0.0000
@<TRIPOS>BOND
     1     3     7    1
     2     6    13    1
     3    13    14   am
     4    13    15    2
     5    14    16   am
     6    16    17    1
     7    16    23    2
     8     9    24    1
     9    20    25    1
    10    24    26    1
    11     8    27    1
    12    26    27    1
    13    27    28    1
    14     7     8   ar
    15     8     9   ar
    16     9    10   ar
    17    10    12   ar
    18    12    11   ar
    19    11     7   ar
    20     1     2   ar
    21     2     3   ar
    22     3     4   ar
    23     4     5   ar
    24     5     6   ar
    25     6     1   ar
    26    17    18   ar
    27    18    19   ar
    28    19    20   ar
    29    20    21   ar
    30    21    22   ar
    31    22    17   ar
    32    28    29   ar
    33    29    31   ar
    34    31    33   ar
    35    33    32   ar
    36    32    30   ar
    37    30    28   ar
