@<TRIPOS>MOLECULE
No_4542-gen_results/8p0m/2024-11-26-14-13-15/
 7 6 0 0 0
SMALL
GASTEIGER

@<TRIPOS>ATOM
      1 F         -28.0727   -1.2542   28.5316 F       1  UNL1       -0.1697
      2 C         -27.3591   -0.3792   28.7224 C.3     1  UNL1        0.4017
      3 F         -26.3180   -0.6608   29.1159 F       1  UNL1       -0.1697
      4 C         -27.2545    0.4794   27.4896 C.3     1  UNL1        0.1293
      5 F         -27.9307    0.4754   29.6895 F       1  UNL1       -0.1697
      6 C         -25.9910    0.8564   27.1684 C.2     1  UNL1       -0.0174
      7 C         -24.8575    0.3707   27.8504 C.2     1  UNL1       -0.0046
@<TRIPOS>BOND
     1     1     2    1
     2     2     3    1
     3     2     4    1
     4     2     5    1
     5     4     6    1
     6     6     7    2
