@<TRIPOS>MOLECULE
No_4543-gen_results/8p0m/2024-11-26-14-13-15/
 14 15 0 0 0
SMALL
GASTEIGER

@<TRIPOS>ATOM
      1 C         -28.0162   -0.8135   28.8779 C.ar    1  UNL1        0.0086
      2 C         -27.0636   -0.1190   28.6079 C.ar    1  UNL1        0.0003
      3 C         -27.0010    0.6913   27.4910 C.ar    1  UNL1        0.0023
      4 C         -28.1373    0.7363   26.6350 C.ar    1  UNL1        0.0296
      5 C         -29.2360    0.0765   27.0690 C.ar    1  UNL1        0.1401
      6 C         -29.2177   -0.6429   28.1747 C.ar    1  UNL1        0.0298
      7 F         -30.3222    0.1455   26.3092 F       1  UNL1       -0.2042
      8 C         -25.7269   -0.1942   29.4070 C.ar    1  UNL1        0.0000
      9 C         -25.4574   -0.9692   30.1187 C.ar    1  UNL1        0.0002
     10 C         -26.3704   -2.1240   30.3548 C.ar    1  UNL1        0.0066
     11 C         -27.6783   -1.9655   29.8247 C.ar    1  UNL1        0.0798
     12 C         -28.7097   -2.9556   30.2640 C.2     1  UNL1        0.3878
     13 O         -28.4099   -4.1578   30.2448 O.co2   1  UNL1       -0.2406
     14 O         -29.8451   -2.5602   30.6728 O.co2   1  UNL1       -0.2406
@<TRIPOS>BOND
     1     5     7    1
     2    11    12    1
     3    12    13   ar
     4    12    14   ar
     5     2     3   ar
     6     3     4   ar
     7     4     5   ar
     8     5     6   ar
     9     6     1   ar
    10     1     2   ar
    11     2     8   ar
    12     8     9   ar
    13     9    10   ar
    14    10    11   ar
    15    11     1   ar
