@<TRIPOS>MOLECULE
No_4544-gen_results/8p0m/2024-11-26-14-13-15/
 19 21 0 0 0
SMALL
GASTEIGER

@<TRIPOS>ATOM
      1 C         -28.0162   -0.8135   28.8779 C.ar    1  UNL1        0.0031
      2 C         -27.0636   -0.1189   28.6079 C.ar    1  UNL1       -0.0001
      3 C         -25.7923   -0.4302   29.0761 C.ar    1  UNL1       -0.0000
      4 C         -25.2700   -0.0487   30.0123 C.ar    1  UNL1       -0.0000
      5 C         -29.2965   -0.1838   28.9398 C.ar    1  UNL1        0.0366
      6 C         -29.5648    0.8003   28.0352 C.ar    1  UNL1        0.1353
      7 C         -28.4695    1.4413   27.4238 C.ar    1  UNL1        0.0162
      8 C         -27.1368    1.0792   27.7975 C.ar    1  UNL1       -0.0009
      9 C         -23.8989   -0.3559   30.5250 C.ar    1  UNL1       -0.0000
     10 C         -23.1075   -1.1949   29.7370 C.ar    1  UNL1        0.0000
     11 C         -23.6421   -1.6781   28.5918 C.ar    1  UNL1       -0.0000
     12 C         -24.9086   -1.3299   28.1894 C.ar    1  UNL1       -0.0000
     13 O         -30.7986    1.2580   27.8176 O.3     1  UNL1       -0.4724
     14 C         -31.4914    0.9104   26.8973 C.3     1  UNL1        0.2204
     15 C         -31.1229    0.9159   25.6603 C.2     1  UNL1        0.0151
     16 C         -32.8181    0.3491   27.1431 C.3     1  UNL1        0.2299
     17 C         -29.8890    1.5294   25.2447 C.2     1  UNL1       -0.0222
     18 C         -28.6167    1.9655   26.0171 C.3     1  UNL1        0.0552
     19 O         -33.4476    0.5419   28.1778 O.3     1  UNL1       -0.2160
@<TRIPOS>BOND
     1     2     3    1
     2     6    13    1
     3    13    14    1
     4    14    15    1
     5    14    16    1
     6    15    17    2
     7     7    18    1
     8    17    18    1
     9    16    19    1
    10     1     2   ar
    11     2     8   ar
    12     8     7   ar
    13     7     6   ar
    14     6     5   ar
    15     5     1   ar
    16     3     4   ar
    17     4     9   ar
    18     9    10   ar
    19    10    11   ar
    20    11    12   ar
    21    12     3   ar
