@<TRIPOS>MOLECULE
No_4545-gen_results/8p0m/2024-11-26-14-13-15/
 35 38 0 0 0
SMALL
GASTEIGER

@<TRIPOS>ATOM
      1 C         -28.0162   -0.8135   28.8779 C.ar    1  UNL1       -0.0005
      2 C         -27.0636   -0.1189   28.6079 C.ar    1  UNL1       -0.0026
      3 C         -27.0010    0.6913   27.4910 C.ar    1  UNL1       -0.0003
      4 C         -28.1373    0.7363   26.6350 C.ar    1  UNL1       -0.0000
      5 C         -29.2360    0.0765   27.0690 C.ar    1  UNL1       -0.0003
      6 C         -29.2177   -0.6429   28.1747 C.ar    1  UNL1       -0.0026
      7 C         -28.0030   -1.6604   30.1266 C.3     1  UNL1        0.1432
      8 N         -27.0435   -2.4948   30.2692 N.am    1  UNL1       -0.1810
      9 C         -27.2614   -3.8473   29.9657 C.2     1  UNL1        0.3592
     10 N         -26.1010   -4.5577   29.7951 N.am    1  UNL1       -0.0679
     11 O         -28.3097   -4.3885   30.1480 O.2     1  UNL1       -0.2474
     12 C         -28.0787    1.6082   25.4445 C.ar    1  UNL1       -0.0000
     13 C         -27.0067    1.7065   24.7836 C.ar    1  UNL1       -0.0000
     14 C         -29.3055    2.2318   25.0170 C.ar    1  UNL1       -0.0000
     15 C         -29.7128    2.3601   23.8024 C.ar    1  UNL1        0.0000
     16 C         -25.8202    1.0979   25.0798 C.ar    1  UNL1       -0.0000
     17 C         -25.7531    0.6466   26.5949 C.ar    1  UNL1       -0.0001
     18 C         -30.9022    3.0295   23.3891 C.ar    1  UNL1        0.0000
     19 C         -31.7514    3.5582   24.3907 C.ar    1  UNL1        0.0000
     20 C         -31.3611    3.4684   25.7211 C.ar    1  UNL1        0.0000
     21 C         -30.2050    2.8549   26.1044 C.ar    1  UNL1        0.0000
     22 C         -24.4290    0.2739   27.1464 C.2     1  UNL1        0.0033
     23 C         -23.5557    1.3173   27.5395 C.2     1  UNL1        0.0685
     24 C         -23.6730    2.6369   27.2380 C.3     1  UNL1        0.0391
     25 C         -22.3883    0.7724   28.2775 C.2     1  UNL1        0.4091
     26 N         -21.2400    1.0993   27.8376 N.2     1  UNL1        0.1967
     27 N         -22.5271   -0.1091   29.2540 N.pl3   1  UNL1       -0.0275
     28 C         -23.6325   -0.4649   29.9513 C.3     1  UNL1        0.2560
     29 C         -23.3105   -0.4919   31.5199 C.3     1  UNL1        0.0817
     30 C         -24.2447    0.1592   32.3619 C.ar    1  UNL1       -0.0179
     31 C         -24.9353   -0.6723   33.3106 C.ar    1  UNL1       -0.0041
     32 C         -25.9239   -0.0666   34.1093 C.ar    1  UNL1       -0.0003
     33 C         -26.4221    1.2120   33.8450 C.ar    1  UNL1       -0.0000
     34 C         -25.8162    1.9846   32.8048 C.ar    1  UNL1       -0.0003
     35 C         -24.7791    1.4422   32.0553 C.ar    1  UNL1       -0.0041
@<TRIPOS>BOND
     1     1     7    1
     2     7     8    1
     3     8     9   am
     4     9    10   am
     5     9    11    2
     6    12    14    1
     7    17    22    1
     8    22    23    2
     9    23    24    1
    10    23    25    1
    11    25    26    2
    12    25    27    1
    13    27    28    1
    14    28    29    1
    15    29    30    1
    16     1     2   ar
    17     2     3   ar
    18     4     5   ar
    19     5     6   ar
    20     6     1   ar
    21    14    15   ar
    22    15    18   ar
    23    18    19   ar
    24    19    20   ar
    25    20    21   ar
    26    21    14   ar
    27    30    31   ar
    28    31    32   ar
    29    32    33   ar
    30    33    34   ar
    31    34    35   ar
    32    35    30   ar
    33     3     4   ar
    34     4    12   ar
    35    12    13   ar
    36    13    16   ar
    37    16    17   ar
    38    17     3   ar
