@<TRIPOS>MOLECULE
No_4546-gen_results/8p0m/2024-11-26-14-13-15/
 32 34 0 0 0
SMALL
GASTEIGER

@<TRIPOS>ATOM
      1 C         -28.0162   -0.8135   28.8779 C.ar    1  UNL1        0.0369
      2 C         -27.0636   -0.1189   28.6079 C.ar    1  UNL1        0.0031
      3 C         -25.7923   -0.4302   29.0761 C.ar    1  UNL1        0.0002
      4 C         -25.5756   -1.5654   29.9363 C.ar    1  UNL1        0.0031
      5 C         -26.7354   -2.3004   30.2173 C.ar    1  UNL1        0.0369
      6 C         -27.9184   -1.9537   29.7629 C.ar    1  UNL1        0.1388
      7 O         -29.0001   -2.7012   30.1151 O.3     1  UNL1       -0.4711
      8 C         -24.5290    0.3490   28.7998 C.ar    1  UNL1        0.0000
      9 C         -24.4808    1.2113   27.7998 C.ar    1  UNL1        0.0000
     10 C         -23.2760    1.8178   27.4206 C.ar    1  UNL1        0.0000
     11 C         -22.0486    1.5250   28.1131 C.ar    1  UNL1        0.0000
     12 C         -23.2966   -0.0161   29.4358 C.ar    1  UNL1        0.0000
     13 C         -22.0768    0.6512   29.1041 C.ar    1  UNL1        0.0000
     14 C         -28.8856   -3.9734   30.5998 C.3     1  UNL1        0.2564
     15 C         -30.0799   -4.7405   30.5558 C.3     1  UNL1        0.2645
     16 O         -30.6972   -4.8857   29.5517 O.2     1  UNL1       -0.4665
     17 C         -31.2978   -6.0351   29.1323 C.2     1  UNL1        0.1807
     18 C         -31.6670   -6.8598   30.0346 C.2     1  UNL1        0.0408
     19 C         -30.9523   -6.8952   31.3028 C.2     1  UNL1        0.0391
     20 C         -30.0717   -5.8135   31.6043 C.2     1  UNL1        0.1601
     21 C         -31.8213   -6.0040   27.7695 C.3     1  UNL1        0.3651
     22 O         -31.6295   -5.0420   27.0399 O.3     1  UNL1       -0.1756
     23 F         -32.1622   -7.0789   27.3112 F       1  UNL1       -0.1924
     24 O         -29.4835   -5.6479   32.7454 O.2     1  UNL1       -0.4665
     25 C         -29.6919   -4.5634   33.5805 C.3     1  UNL1        0.3181
     26 C         -29.6216   -4.9485   34.9562 C.3     1  UNL1        0.4505
     27 F         -29.1762   -6.0753   35.0644 F       1  UNL1       -0.1593
     28 O         -28.7718   -4.0769   35.6914 O.2     1  UNL1       -0.4136
     29 F         -30.8685   -4.8973   35.4724 F       1  UNL1       -0.1593
     30 C         -28.0949   -4.3324   36.7380 C.2     1  UNL1        0.2628
     31 C         -27.2493   -3.1988   37.2411 C.1     1  UNL1        0.1749
     32 O         -27.9892   -2.2118   37.5168 O.2     1  UNL1       -0.2278
@<TRIPOS>BOND
     1     6     7    1
     2     3     8    1
     3     7    14    1
     4    14    15    1
     5    15    16    1
     6    16    17    1
     7    17    18    2
     8    18    19    1
     9    15    20    1
    10    19    20    2
    11    17    21    1
    12    21    22    1
    13    21    23    1
    14    20    24    1
    15    24    25    1
    16    25    26    1
    17    26    27    1
    18    26    28    1
    19    26    29    1
    20    28    30    1
    21    30    31    2
    22    31    32    2
    23     1     2   ar
    24     2     3   ar
    25     3     4   ar
    26     4     5   ar
    27     5     6   ar
    28     6     1   ar
    29     8     9   ar
    30     9    10   ar
    31    10    11   ar
    32    11    13   ar
    33    13    12   ar
    34    12     8   ar
