@<TRIPOS>MOLECULE
No_4547-gen_results/8p0m/2024-11-26-14-13-15/
 35 37 0 0 0
SMALL
GASTEIGER

@<TRIPOS>ATOM
      1 C         -28.0162   -0.8135   28.8779 C.2     1  UNL1        0.0760
      2 C         -27.0636   -0.1189   28.6079 C.2     1  UNL1       -0.0059
      3 C         -25.7647   -0.3897   29.0360 C.3     1  UNL1        0.1801
      4 C         -24.5517    0.4058   28.7646 C.3     1  UNL1        0.0508
      5 C         -24.6957    1.4480   27.7988 C.3     1  UNL1        0.1068
      6 C         -25.9755    1.7250   27.3077 C.3     1  UNL1        0.0158
      7 C         -27.0718    1.0134   27.6535 C.3     1  UNL1        0.0255
      8 C         -29.2099   -0.0501   29.3493 C.2     1  UNL1        0.3414
      9 O         -29.6363    0.6945   28.7664 O.2     1  UNL1       -0.2449
     10 O         -29.7661   -0.5567   30.4761 O.3     1  UNL1       -0.4400
     11 C         -23.5041    2.2343   27.5044 C.2     1  UNL1        0.3644
     12 O         -22.3462    1.9112   27.8691 O.co2   1  UNL1       -0.2457
     13 O         -23.6228    3.1299   26.5401 O.co2   1  UNL1       -0.2457
     14 F         -25.4820   -1.3539   29.8758 F       1  UNL1       -0.2328
     15 C         -31.0433   -0.2949   30.8255 C.3     1  UNL1        0.2132
     16 C         -31.4258   -0.8877   31.9351 C.ar    1  UNL1        0.0217
     17 C         -32.6339   -0.7644   32.3621 C.ar    1  UNL1        0.0040
     18 C         -30.5572   -1.7650   32.7177 C.ar    1  UNL1       -0.0005
     19 C         -30.9723   -2.4864   33.8725 C.ar    1  UNL1       -0.0001
     20 C         -33.1205   -1.4738   33.5879 C.ar    1  UNL1        0.0534
     21 C         -32.2540   -2.2607   34.2990 C.ar    1  UNL1        0.0045
     22 C         -34.4895   -1.2493   34.0480 C.2     1  UNL1        0.2490
     23 N         -34.7715   -0.1709   34.5457 N.am    1  UNL1       -0.2761
     24 C         -34.0708    0.5885   35.1728 C.3     1  UNL1        0.0943
     25 C         -34.6195    1.9135   35.7075 C.3     1  UNL1        0.0328
     26 C         -36.1675    0.3277   34.3037 C.3     1  UNL1        0.0943
     27 C         -36.6755    1.5021   34.8131 C.3     1  UNL1        0.0328
     28 C         -35.8304    2.3134   35.5678 C.3     1  UNL1        0.1068
     29 O         -35.2009   -2.2439   33.8894 O.2     1  UNL1       -0.2699
     30 C         -36.3209    3.5646   36.1207 C.2     1  UNL1        0.3644
     31 O         -35.9507    3.9550   37.1316 O.co2   1  UNL1       -0.2457
     32 O         -37.2091    4.1523   35.3933 O.co2   1  UNL1       -0.2457
     33 C         -31.0621    1.2415   30.9913 C.2     1  UNL1        0.0167
     34 C         -30.6406    1.7528   32.2032 C.2     1  UNL1       -0.0265
     35 C         -30.6429    2.9614   32.5080 C.3     1  UNL1        0.0305
@<TRIPOS>BOND
     1     1     2    2
     2     2     3    1
     3     3     4    1
     4     4     5    1
     5     5     6    1
     6     2     7    1
     7     6     7    1
     8     1     8    1
     9     8     9    2
    10     8    10    1
    11     5    11    1
    12    11    12   ar
    13    11    13   ar
    14     3    14    1
    15    10    15    1
    16    15    16    1
    17    20    22    1
    18    22    23   am
    19    23    24    1
    20    23    26    1
    21    25    28    1
    22    27    28    1
    23    22    29    2
    24    28    30    1
    25    30    31   ar
    26    30    32   ar
    27    15    33    1
    28    33    34    2
    29    34    35    1
    30    24    25    1
    31    27    26    1
    32    16    17   ar
    33    17    20   ar
    34    20    21   ar
    35    21    19   ar
    36    19    18   ar
    37    18    16   ar
