@<TRIPOS>MOLECULE
No_4548-gen_results/8p0m/2024-11-26-14-13-15/
 13 14 0 0 0
SMALL
GASTEIGER

@<TRIPOS>ATOM
      1 C         -28.0162   -0.8135   28.8779 C.ar    1  UNL1        0.0000
      2 C         -28.4690   -0.7850   29.8287 C.ar    1  UNL1        0.0000
      3 C         -26.5042   -0.7777   28.8766 C.ar    1  UNL1        0.0000
      4 C         -25.8103   -0.8531   30.1028 C.ar    1  UNL1        0.0000
      5 C         -27.9906   -0.8916   31.2257 C.ar    1  UNL1        0.0000
      6 C         -26.6042   -0.8676   31.2652 C.ar    1  UNL1        0.0000
      7 C         -30.0739   -0.8360   29.8615 C.ar    1  UNL1        0.0008
      8 C         -30.7602    0.2411   30.4035 C.ar    1  UNL1        0.0001
      9 C         -32.1439    0.2456   30.3542 C.ar    1  UNL1        0.0009
     10 C         -32.7758   -0.8510   29.7208 C.ar    1  UNL1        0.0114
     11 C         -32.0839   -1.8817   29.1877 C.ar    1  UNL1        0.0577
     12 C         -30.7139   -1.9001   29.2890 C.ar    1  UNL1        0.0114
     13 CL        -32.8255   -3.2092   28.4547 Cl      1  UNL1       -0.0822
@<TRIPOS>BOND
     1     2     7    1
     2    11    13    1
     3     1     2   ar
     4     2     5   ar
     5     5     6   ar
     6     6     4   ar
     7     4     3   ar
     8     3     1   ar
     9     7     8   ar
    10     8     9   ar
    11     9    10   ar
    12    10    11   ar
    13    11    12   ar
    14    12     7   ar
