@<TRIPOS>MOLECULE
No_4549-gen_results/8p0m/2024-11-26-14-13-15/
 12 13 0 0 0
SMALL
GASTEIGER

@<TRIPOS>ATOM
      1 N         -28.0544   -1.0498   28.7246 N.ar    1  UNL1       -0.2292
      2 C         -28.6544   -0.5669   29.5076 C.ar    1  UNL1        0.1317
      3 C         -26.6945   -1.3221   29.0236 C.ar    1  UNL1        0.1003
      4 C         -26.2777   -1.0466   30.3588 C.ar    1  UNL1        0.0208
      5 C         -28.4647   -0.2194   30.8657 C.ar    1  UNL1        0.0343
      6 C         -27.1473   -0.4500   31.2550 C.ar    1  UNL1        0.0045
      7 N         -30.0736   -0.2908   29.2323 N.pl3   1  UNL1       -0.2932
      8 C         -31.0388   -0.2596   29.9930 C.3     1  UNL1        0.0922
      9 C         -32.2694    0.1115   29.5212 C.3     1  UNL1        0.0215
     10 C         -30.3786   -0.1031   27.8501 C.3     1  UNL1        0.0922
     11 C         -31.6111    0.1600   27.3547 C.3     1  UNL1        0.0215
     12 C         -32.5830    0.2808   28.2665 C.3     1  UNL1        0.0035
@<TRIPOS>BOND
     1     2     7    1
     2     7     8    1
     3     7    10    1
     4     9    12    1
     5    11    12    1
     6     8     9    1
     7    11    10    1
     8     1     2   ar
     9     2     5   ar
    10     5     6   ar
    11     6     4   ar
    12     4     3   ar
    13     3     1   ar
