@<TRIPOS>MOLECULE
No_455-gen_results/8p0m/2024-11-26-14-13-15/
 20 22 0 0 0
SMALL
GASTEIGER

@<TRIPOS>ATOM
      1 CL        -28.1493   -0.8198   28.9079 Cl      1  UNL1       -0.0822
      2 C         -27.8339    0.4961   29.0598 C.ar    1  UNL1        0.0577
      3 C         -27.5135    1.2383   28.0485 C.ar    1  UNL1        0.0115
      4 C         -27.0548    2.6251   28.1330 C.ar    1  UNL1        0.0054
      5 C         -26.9438    3.1838   29.4305 C.ar    1  UNL1        0.0554
      6 C         -27.2205    2.3582   30.5116 C.ar    1  UNL1        0.0054
      7 C         -27.5987    1.0586   30.3700 C.ar    1  UNL1        0.0115
      8 C         -26.4856    4.5602   29.5942 C.2     1  UNL1        0.2690
      9 N         -25.8407    4.8344   30.6420 N.am    1  UNL1       -0.1754
     10 O         -26.5816    5.4185   28.6882 O.2     1  UNL1       -0.2680
     11 C         -25.3030    6.2501   30.9075 C.ar    1  UNL1        0.0737
     12 C         -24.8398    6.3474   32.2990 C.ar    1  UNL1        0.0166
     13 C         -23.8404    7.1254   32.5565 C.ar    1  UNL1        0.0013
     14 C         -23.5125    8.2563   31.6592 C.ar    1  UNL1        0.0001
     15 C         -24.1400    8.1548   30.3885 C.ar    1  UNL1        0.0013
     16 C         -24.9145    7.0762   30.0340 C.ar    1  UNL1        0.0166
     17 C         -22.5679    9.1541   32.2468 C.ar    1  UNL1        0.0000
     18 C         -21.7552    8.8742   33.0360 C.ar    1  UNL1        0.0000
     19 C         -22.0472    7.7415   34.0127 C.ar    1  UNL1        0.0000
     20 C         -23.0861    6.9647   33.7498 C.ar    1  UNL1        0.0000
@<TRIPOS>BOND
     1     1     2    1
     2     5     8    1
     3     8     9   am
     4     8    10    2
     5     9    11    1
     6    11    12   ar
     7    12    13   ar
     8    14    15   ar
     9    15    16   ar
    10    16    11   ar
    11     2     3   ar
    12     3     4   ar
    13     4     5   ar
    14     5     6   ar
    15     6     7   ar
    16     7     2   ar
    17    13    14   ar
    18    14    17   ar
    19    17    18   ar
    20    18    19   ar
    21    19    20   ar
    22    20    13   ar
