@<TRIPOS>MOLECULE
No_4550-gen_results/8p0m/2024-11-26-14-13-15/
 17 18 0 0 0
SMALL
GASTEIGER

@<TRIPOS>ATOM
      1 C         -28.0162   -0.8135   28.8779 C.ar    1  UNL1        0.0074
      2 C         -28.4690   -0.7850   29.8287 C.ar    1  UNL1        0.0002
      3 C         -28.1960    0.3478   28.0550 C.ar    1  UNL1        0.0822
      4 C         -29.0191    1.3501   28.3782 C.ar    1  UNL1        0.0074
      5 C         -29.4107    0.1803   30.3782 C.ar    1  UNL1        0.0000
      6 C         -29.6059    1.2495   29.6193 C.ar    1  UNL1        0.0002
      7 C         -27.4478    0.3799   26.7122 C.2     1  UNL1        0.3229
      8 N         -27.8661    0.6718   25.7147 N.2     1  UNL1       -0.0600
      9 N         -26.0558    0.0721   26.7437 N.pl3   1  UNL1       -0.1662
     10 C         -25.2108   -0.1283   27.7852 C.ar    1  UNL1        0.1389
     11 C         -24.1328    0.6917   28.0016 C.ar    1  UNL1        0.0403
     12 C         -23.4057    0.6482   28.8231 C.ar    1  UNL1        0.0035
     13 C         -23.3442   -0.4986   29.7750 C.ar    1  UNL1        0.0002
     14 C         -25.2800   -1.2307   28.6647 C.ar    1  UNL1        0.0403
     15 C         -24.3093   -1.3919   29.6324 C.ar    1  UNL1        0.0035
     16 C         -25.5101    0.3415   25.4253 C.3     1  UNL1        0.2585
     17 C         -29.1669    0.9564   25.2900 C.3     1  UNL1        0.3206
@<TRIPOS>BOND
     1     3     7    1
     2     7     8    2
     3     7     9    1
     4     9    10    1
     5     9    16    1
     6     8    17    1
     7    10    11   ar
     8    11    12   ar
     9    12    13   ar
    10    13    15   ar
    11    15    14   ar
    12    14    10   ar
    13     1     2   ar
    14     2     5   ar
    15     5     6   ar
    16     6     4   ar
    17     4     3   ar
    18     3     1   ar
