@<TRIPOS>MOLECULE
No_4551-gen_results/8p0m/2024-11-26-14-13-15/
 16 17 0 0 0
SMALL
GASTEIGER

@<TRIPOS>ATOM
      1 C         -28.0162   -0.8135   28.8779 C.ar    1  UNL1       -0.0043
      2 C         -28.4690   -0.7850   29.8287 C.ar    1  UNL1       -0.0003
      3 C         -26.5042   -0.7777   28.8766 C.ar    1  UNL1       -0.0219
      4 C         -25.6540   -0.6597   27.7191 C.3     1  UNL1        0.0307
      5 C         -27.9180   -0.9374   31.1824 C.ar    1  UNL1       -0.0000
      6 C         -26.5423   -0.9399   31.2606 C.ar    1  UNL1       -0.0003
      7 C         -25.7832   -0.8935   30.1201 C.ar    1  UNL1       -0.0043
      8 C         -25.2204    0.6866   27.3939 C.3     1  UNL1        0.0267
      9 C         -23.9014    0.8981   27.7598 C.ar    1  UNL1       -0.0222
     10 C         -23.1016    0.3129   28.6912 C.ar    1  UNL1       -0.0043
     11 C         -21.7183    0.6026   28.8792 C.ar    1  UNL1       -0.0003
     12 C         -21.1526    1.5739   28.0765 C.ar    1  UNL1       -0.0000
     13 C         -23.1839    1.9462   26.8995 C.ar    1  UNL1       -0.0043
     14 C         -21.8235    2.1840   27.1061 C.ar    1  UNL1       -0.0003
     15 C         -26.0070    1.5526   26.7132 C.3     1  UNL1        0.0047
     16 C         -26.4745    2.7472   27.4043 C.3     1  UNL1        0.0004
@<TRIPOS>BOND
     1     3     4    1
     2     4     8    1
     3     8     9    1
     4     8    15    1
     5    15    16    1
     6     1     2   ar
     7     2     5   ar
     8     5     6   ar
     9     6     7   ar
    10     7     3   ar
    11     3     1   ar
    12     9    10   ar
    13    10    11   ar
    14    11    12   ar
    15    12    14   ar
    16    14    13   ar
    17    13     9   ar
