@<TRIPOS>MOLECULE
No_4552-gen_results/8p0m/2024-11-26-14-13-15/
 26 28 0 0 0
SMALL
GASTEIGER

@<TRIPOS>ATOM
      1 C         -28.0162   -0.8135   28.8779 C.ar    1  UNL1        0.0799
      2 C         -27.0636   -0.1190   28.6079 C.ar    1  UNL1        0.0066
      3 C         -26.9716    0.7139   27.5060 C.ar    1  UNL1        0.0004
      4 C         -28.1053    0.7744   26.6421 C.ar    1  UNL1        0.0046
      5 C         -29.2041    0.1179   27.0477 C.ar    1  UNL1        0.0556
      6 C         -29.2127   -0.6088   28.1281 C.ar    1  UNL1        0.0112
      7 C         -30.3709    0.2326   26.1381 C.2     1  UNL1        0.2687
      8 N         -31.3573   -0.3781   26.3731 N.am    1  UNL1       -0.1785
      9 O         -30.1260    0.5621   24.8954 O.2     1  UNL1       -0.2680
     10 C         -32.2654   -0.6557   25.9751 C.2     1  UNL1        0.0672
     11 C         -25.6676    1.4015   27.1252 C.ar    1  UNL1        0.0000
     12 C         -24.9433    2.0104   28.2324 C.ar    1  UNL1        0.0000
     13 C         -23.5518    2.2466   27.9437 C.ar    1  UNL1        0.0000
     14 C         -23.0412    2.2073   26.6651 C.ar    1  UNL1        0.0000
     15 C         -25.0000    1.2096   25.9061 C.ar    1  UNL1        0.0000
     16 C         -23.7512    1.5632   25.7018 C.ar    1  UNL1        0.0000
     17 C         -28.0977   -1.6286   30.1257 C.2     1  UNL1        0.3878
     18 O         -28.7894   -1.6717   30.9219 O.co2   1  UNL1       -0.2406
     19 O         -27.0153   -2.4988   30.0914 O.co2   1  UNL1       -0.2406
     20 C         -33.3302   -1.4729   26.4841 C.3     1  UNL1        0.0705
     21 C         -33.0947   -2.0580   27.6511 C.ar    1  UNL1       -0.0164
     22 C         -34.0188   -2.9015   28.2422 C.ar    1  UNL1       -0.0039
     23 C         -33.7539   -3.4919   29.5373 C.ar    1  UNL1       -0.0003
     24 C         -32.5153   -3.2164   30.1788 C.ar    1  UNL1       -0.0000
     25 C         -31.6137   -2.4010   29.5348 C.ar    1  UNL1       -0.0003
     26 C         -31.8554   -1.8614   28.3119 C.ar    1  UNL1       -0.0039
@<TRIPOS>BOND
     1     5     7    1
     2     7     8    1
     3     7     9    2
     4     8    10    2
     5     3    11    1
     6     1    17    1
     7    17    18   ar
     8    17    19   ar
     9    10    20    1
    10    20    21    1
    11     1     2   ar
    12     2     3   ar
    13     3     4   ar
    14     4     5   ar
    15     5     6   ar
    16     6     1   ar
    17    11    12   ar
    18    12    13   ar
    19    13    14   ar
    20    14    16   ar
    21    16    15   ar
    22    15    11   ar
    23    21    22   ar
    24    22    23   ar
    25    23    24   ar
    26    24    25   ar
    27    25    26   ar
    28    26    21   ar
