@<TRIPOS>MOLECULE
No_4553-gen_results/8p0m/2024-11-26-14-13-15/
 34 37 0 0 0
SMALL
GASTEIGER

@<TRIPOS>ATOM
      1 C         -28.0162   -0.8135   28.8779 C.ar    1  UNL1        0.0000
      2 C         -27.0636   -0.1189   28.6079 C.ar    1  UNL1        0.0000
      3 C         -25.7923   -0.4302   29.0761 C.ar    1  UNL1        0.0000
      4 C         -25.5756   -1.5654   29.9363 C.ar    1  UNL1        0.0000
      5 C         -26.7354   -2.3004   30.2173 C.ar    1  UNL1        0.0000
      6 C         -27.9184   -1.9537   29.7629 C.ar    1  UNL1        0.0000
      7 C         -27.1057    1.1023   27.7593 C.ar    1  UNL1        0.0000
      8 C         -26.7157    2.2350   27.9945 C.ar    1  UNL1        0.0002
      9 C         -27.6806    0.8547   26.4259 C.ar    1  UNL1        0.0000
     10 C         -26.0318    2.5935   29.1910 C.ar    1  UNL1        0.0061
     11 C         -26.8615    3.3798   27.0755 C.ar    1  UNL1        0.0000
     12 C         -27.4568    3.2690   25.8921 C.ar    1  UNL1        0.0000
     13 C         -27.8759    1.9029   25.5140 C.ar    1  UNL1        0.0000
     14 C         -24.6288    2.4459   29.3090 C.ar    1  UNL1        0.0798
     15 C         -26.7758    2.8501   30.4049 C.ar    1  UNL1       -0.0036
     16 C         -26.2389    2.6327   31.6617 C.ar    1  UNL1       -0.0140
     17 C         -23.9763    2.4936   30.6348 C.ar    1  UNL1        0.0063
     18 C         -24.7937    2.6144   31.7993 C.ar    1  UNL1       -0.0036
     19 C         -23.7494    2.3656   28.1722 C.2     1  UNL1        0.3878
     20 O         -22.6645    1.7506   28.2348 O.co2   1  UNL1       -0.2406
     21 O         -24.0357    3.0734   27.1392 O.co2   1  UNL1       -0.2406
     22 C         -27.0275    2.8552   32.8673 C.3     1  UNL1        0.0983
     23 C         -27.2366    1.6702   33.5409 C.ar    1  UNL1       -0.0179
     24 C         -26.9669    0.5098   33.0578 C.ar    1  UNL1       -0.0041
     25 C         -27.2567   -0.7155   33.7914 C.ar    1  UNL1       -0.0003
     26 C         -27.7578   -0.6494   35.0746 C.ar    1  UNL1       -0.0003
     27 C         -27.9456    0.6062   35.6623 C.ar    1  UNL1       -0.0046
     28 C         -27.7061    1.7936   34.9884 C.ar    1  UNL1       -0.0254
     29 C         -27.4885    4.1115   33.2629 C.3     1  UNL1        0.2640
     30 O         -27.4094    5.0720   32.5258 O.3     1  UNL1       -0.1954
     31 N         -28.3234    4.1575   34.3404 N.2     1  UNL1       -0.2095
     32 C         -28.5598    3.4963   35.1669 C.2     1  UNL1        0.2661
     33 C         -26.2629    2.2534   35.7097 C.3     1  UNL1        0.0307
     34 F         -29.2687    3.3399   36.1406 F       1  UNL1       -0.1793
@<TRIPOS>BOND
     1     2     7    1
     2     8    10    1
     3    14    19    1
     4    19    20   ar
     5    19    21   ar
     6    16    22    1
     7    22    23    1
     8    22    29    1
     9    29    30    1
    10    29    31    1
    11    31    32    2
    12    28    33    1
    13    32    34    1
    14     1     2   ar
    15     2     3   ar
    16     3     4   ar
    17     4     5   ar
    18     5     6   ar
    19     6     1   ar
    20    23    24   ar
    21    24    25   ar
    22    25    26   ar
    23    26    27   ar
    24    27    28   ar
    25    28    23   ar
    26     7     8   ar
    27     8    11   ar
    28    11    12   ar
    29    12    13   ar
    30    13     9   ar
    31     9     7   ar
    32    10    14   ar
    33    14    17   ar
    34    17    18   ar
    35    18    16   ar
    36    16    15   ar
    37    15    10   ar
