@<TRIPOS>MOLECULE
No_4554-gen_results/8p0m/2024-11-26-14-13-15/
 23 25 0 0 0
SMALL
GASTEIGER

@<TRIPOS>ATOM
      1 C         -28.0162   -0.8135   28.8779 C.ar    1  UNL1        0.0305
      2 C         -27.0636   -0.1189   28.6079 C.ar    1  UNL1        0.0023
      3 C         -27.0010    0.6913   27.4910 C.ar    1  UNL1        0.0003
      4 C         -25.8548    1.4825   27.0830 C.ar    1  UNL1        0.0066
      5 C         -24.6901    1.4526   27.8807 C.ar    1  UNL1        0.0798
      6 C         -24.7379    0.6010   29.0416 C.ar    1  UNL1        0.0066
      7 C         -25.8234   -0.1688   29.3887 C.ar    1  UNL1        0.0003
      8 C         -29.2455   -0.0678   29.1937 C.ar    1  UNL1        0.0024
      9 C         -30.2428   -0.7042   29.8595 C.ar    1  UNL1        0.0033
     10 C         -30.0569   -2.0600   30.2573 C.ar    1  UNL1        0.0392
     11 C         -28.8600   -2.6861   30.1797 C.ar    1  UNL1        0.1658
     12 C         -27.8047   -2.0076   29.6720 C.ar    1  UNL1        0.1737
     13 F         -26.6235   -2.5543   29.7267 F       1  UNL1       -0.2010
     14 C         -23.5024    2.2162   27.5738 C.2     1  UNL1        0.3878
     15 O         -22.3901    1.9778   28.1230 O.co2   1  UNL1       -0.2406
     16 O         -23.5239    2.9823   26.4940 O.co2   1  UNL1       -0.2406
     17 O         -28.6330   -3.8875   30.7801 O.3     1  UNL1       -0.4727
     18 C         -29.4855   -4.8935   30.3613 C.3     1  UNL1        0.2138
     19 C         -29.9068   -5.6076   31.5798 C.3     1  UNL1        0.2490
     20 O         -30.4265   -6.7648   31.3063 O.2     1  UNL1       -0.4688
     21 C         -31.3364   -6.9952   30.5030 C.2     1  UNL1        0.1679
     22 C         -31.1524   -6.2876   29.2581 C.2     1  UNL1        0.0177
     23 C         -30.3451   -5.0196   29.3842 C.3     1  UNL1        0.0767
@<TRIPOS>BOND
     1     1     2    1
     2    12    13    1
     3     5    14    1
     4    14    15   ar
     5    14    16   ar
     6    11    17    1
     7    17    18    1
     8    18    19    1
     9    19    20    1
    10    20    21    1
    11    21    22    2
    12    18    23    1
    13    22    23    1
    14     2     3   ar
    15     3     4   ar
    16     4     5   ar
    17     5     6   ar
    18     6     7   ar
    19     7     2   ar
    20     1     8   ar
    21     8     9   ar
    22     9    10   ar
    23    10    11   ar
    24    11    12   ar
    25    12     1   ar
