@<TRIPOS>MOLECULE
No_4556-gen_results/8p0m/2024-11-26-14-13-15/
 9 9 0 0 0
SMALL
GASTEIGER

@<TRIPOS>ATOM
      1 F         -28.0727   -1.2542   28.5316 F       1  UNL1       -0.1933
      2 C         -28.2662   -0.4214   29.1931 C.3     1  UNL1        0.3410
      3 C         -28.1839    0.5652   29.0416 C.ar    1  UNL1        0.0436
      4 C         -27.7132    1.1254   27.6783 C.ar    1  UNL1        0.0011
      5 C         -27.5605    2.3419   27.2561 C.ar    1  UNL1       -0.0001
      6 C         -27.8235    3.4198   28.2637 C.ar    1  UNL1       -0.0000
      7 C         -28.2262    3.0402   29.5188 C.ar    1  UNL1       -0.0001
      8 C         -28.3436    1.7562   29.8653 C.ar    1  UNL1        0.0011
      9 F         -29.5193   -0.6332   29.9123 F       1  UNL1       -0.1933
@<TRIPOS>BOND
     1     1     2    1
     2     2     9    1
     3     2     3    1
     4     3     4   ar
     5     4     5   ar
     6     5     6   ar
     7     6     7   ar
     8     7     8   ar
     9     8     3   ar
