@<TRIPOS>MOLECULE
No_4557-gen_results/8p0m/2024-11-26-14-13-15/
 14 14 0 0 0
SMALL
GASTEIGER

@<TRIPOS>ATOM
      1 O         -28.1229   -1.3353   28.4874 O.2     1  UNL1       -0.2587
      2 C         -27.0637   -0.8242   28.8687 C.2     1  UNL1        0.3150
      3 C         -26.9592    0.0926   29.7582 C.3     1  UNL1        0.1266
      4 F         -25.9002   -1.3969   28.3552 F       1  UNL1       -0.1632
      5 C         -25.6945    0.7127   30.0607 C.2     1  UNL1       -0.0172
      6 C         -25.0067    1.3447   29.6632 C.2     1  UNL1        0.0068
      7 C         -23.6088    1.7354   30.0536 C.3     1  UNL1        0.2083
      8 O         -22.8808    2.4453   29.3051 O.3     1  UNL1       -0.2152
      9 C         -25.3441    2.0398   28.3001 C.ar    1  UNL1       -0.0018
     10 C         -26.0038    1.6912   27.5724 C.ar    1  UNL1       -0.0002
     11 C         -26.2780    1.9190   26.5192 C.ar    1  UNL1       -0.0000
     12 C         -25.4784    3.0696   26.0300 C.ar    1  UNL1       -0.0000
     13 C         -24.5420    3.6365   26.7558 C.ar    1  UNL1       -0.0000
     14 C         -24.3475    3.1717   27.9444 C.ar    1  UNL1       -0.0002
@<TRIPOS>BOND
     1     1     2    2
     2     2     3    1
     3     2     4    1
     4     3     5    1
     5     5     6    2
     6     6     7    1
     7     7     8    1
     8     6     9    1
     9     9    10   ar
    10    10    11   ar
    11    11    12   ar
    12    12    13   ar
    13    13    14   ar
    14    14     9   ar
