@<TRIPOS>MOLECULE
No_4558-gen_results/8p0m/2024-11-26-14-13-15/
 24 28 0 0 0
SMALL
GASTEIGER

@<TRIPOS>ATOM
      1 C         -28.0162   -0.8135   28.8779 C.ar    1  UNL1        0.0457
      2 C         -28.4690   -0.7850   29.8287 C.ar    1  UNL1       -0.0066
      3 C         -28.1960    0.3478   28.0550 C.ar    1  UNL1       -0.0085
      4 C         -29.0191    1.3501   28.3782 C.ar    1  UNL1       -0.0030
      5 C         -29.4107    0.1803   30.3782 C.ar    1  UNL1       -0.0030
      6 C         -29.6059    1.2495   29.6193 C.ar    1  UNL1       -0.0006
      7 C         -27.4597    0.3802   26.7091 C.3     1  UNL1        0.0323
      8 C         -26.0094    0.3317   26.7236 C.3     1  UNL1        0.0324
      9 C         -25.3055    0.0239   27.8527 C.ar    1  UNL1       -0.0069
     10 C         -23.9153    0.1563   27.8949 C.ar    1  UNL1       -0.0029
     11 C         -23.1483   -0.2523   29.0524 C.ar    1  UNL1        0.0011
     12 C         -23.7810   -0.9943   30.0185 C.ar    1  UNL1        0.0173
     13 C         -25.1019   -1.2679   29.9479 C.ar    1  UNL1        0.0788
     14 C         -25.8418   -0.8004   28.9158 C.ar    1  UNL1        0.0644
     15 N         -27.0504   -1.1434   29.2447 N.pl3   1  UNL1       -0.2606
     16 C         -27.0614   -2.5338   29.7410 C.3     1  UNL1        0.2536
     17 C         -28.5481   -2.0621   30.7194 C.3     1  UNL1        0.0557
     18 C         -29.5242   -3.0823   30.5201 C.3     1  UNL1        0.0390
     19 C         -26.0166   -2.9802   30.6207 C.3     1  UNL1        0.1665
     20 O         -27.5259   -3.4977   28.9569 O.3     1  UNL1       -0.1984
     21 N         -25.2694   -2.5080   30.5932 N.pl3   1  UNL1       -0.2318
     22 C         -28.2065   -1.8822   32.1926 C.3     1  UNL1        0.1465
     23 O         -29.1636   -1.6263   31.6315 O.3     1  UNL1       -0.3534
     24 C         -30.3243   -2.4508   31.9851 C.3     1  UNL1        0.1426
@<TRIPOS>BOND
     1     3     7    1
     2     7     8    1
     3     8     9    1
     4     1    15    1
     5    14    15    1
     6    15    16    1
     7     2    17    1
     8    17    18    1
     9    16    19    1
    10    16    20    1
    11    13    21    1
    12    17    22    1
    13    22    23    1
    14    18    24    1
    15    23    24    1
    16    21    19    1
    17     9    10   ar
    18    10    11   ar
    19    11    12   ar
    20    12    13   ar
    21    13    14   ar
    22    14     9   ar
    23     1     2   ar
    24     2     5   ar
    25     5     6   ar
    26     6     4   ar
    27     4     3   ar
    28     3     1   ar
