@<TRIPOS>MOLECULE
No_456-gen_results/8p0m/2024-11-26-14-13-15/
 24 26 0 0 0
SMALL
GASTEIGER

@<TRIPOS>ATOM
      1 C         -28.0162   -0.8135   28.8779 C.ar    1  UNL1        0.0178
      2 C         -28.4690   -0.7850   29.8287 C.ar    1  UNL1        0.0769
      3 C         -26.5042   -0.7777   28.8766 C.ar    1  UNL1        0.0579
      4 C         -25.8103   -0.8531   30.1028 C.ar    1  UNL1        0.0114
      5 C         -27.9906   -0.8916   31.2257 C.ar    1  UNL1        0.0065
      6 C         -26.6042   -0.8676   31.2652 C.ar    1  UNL1        0.0011
      7 C         -30.0739   -0.8360   29.8615 C.2     1  UNL1        0.3458
      8 O         -30.6891   -1.6554   30.2229 O.2     1  UNL1       -0.2445
      9 O         -30.6229    0.3836   29.6329 O.3     1  UNL1       -0.4179
     10 CL        -25.6904   -0.6231   27.3911 Cl      1  UNL1       -0.0822
     11 C         -31.6325    0.6345   29.1229 C.2     1  UNL1        0.1831
     12 C         -31.7948    1.9298   28.6260 C.2     1  UNL1        0.0408
     13 C         -30.9051    2.8758   28.9605 C.ar    1  UNL1        0.0031
     14 C         -31.0897    4.2543   28.6210 C.ar    1  UNL1        0.0001
     15 C         -30.1286    5.2708   29.0407 C.ar    1  UNL1        0.0000
     16 C         -28.9791    4.8524   29.7338 C.ar    1  UNL1        0.0000
     17 C         -28.7824    3.4928   30.0561 C.ar    1  UNL1        0.0000
     18 C         -29.6967    2.6046   29.6813 C.ar    1  UNL1        0.0001
     19 C         -27.5360    3.1487   30.8049 C.ar    1  UNL1        0.0000
     20 C         -27.0586    3.9736   31.8207 C.ar    1  UNL1        0.0000
     21 C         -25.9659    3.4999   32.5747 C.ar    1  UNL1        0.0000
     22 C         -25.2643    2.3471   32.1908 C.ar    1  UNL1        0.0000
     23 C         -25.6092    1.6890   31.0794 C.ar    1  UNL1        0.0000
     24 C         -26.7953    2.0695   30.3950 C.ar    1  UNL1        0.0000
@<TRIPOS>BOND
     1     2     7    1
     2     7     8    2
     3     7     9    1
     4     3    10    1
     5     9    11    1
     6    11    12    2
     7    12    13    1
     8    17    19    1
     9    13    14   ar
    10    14    15   ar
    11    15    16   ar
    12    16    17   ar
    13    17    18   ar
    14    18    13   ar
    15     1     2   ar
    16     2     5   ar
    17     5     6   ar
    18     6     4   ar
    19     4     3   ar
    20     3     1   ar
    21    19    20   ar
    22    20    21   ar
    23    21    22   ar
    24    22    23   ar
    25    23    24   ar
    26    24    19   ar
