@<TRIPOS>MOLECULE
No_4560-gen_results/8p0m/2024-11-26-14-13-15/
 17 18 0 0 0
SMALL
GASTEIGER

@<TRIPOS>ATOM
      1 C         -28.0162   -0.8135   28.8779 C.3     1  UNL1        0.1110
      2 C         -27.0636   -0.1190   28.6079 C.3     1  UNL1        0.0707
      3 C         -25.7923   -0.4302   29.0761 C.3     1  UNL1        0.0337
      4 C         -24.5456    0.3494   28.8225 C.ar    1  UNL1       -0.0253
      5 C         -24.6586    1.4196   27.8878 C.ar    1  UNL1       -0.0195
      6 C         -25.9471    1.6811   27.3792 C.3     1  UNL1        0.0795
      7 C         -27.0439    0.9739   27.6871 C.2     1  UNL1        0.1545
      8 C         -28.6703   -0.4455   30.2080 C.3     1  UNL1        0.3982
      9 F         -28.5247    0.4708   30.7424 F       1  UNL1       -0.1700
     10 F         -28.3125   -1.5200   31.0768 F       1  UNL1       -0.1700
     11 F         -30.0574   -0.6900   30.0034 F       1  UNL1       -0.1700
     12 C         -23.4830    2.2216   27.6366 C.ar    1  UNL1       -0.0042
     13 C         -22.1876    1.7089   28.0346 C.ar    1  UNL1       -0.0003
     14 C         -22.1070    0.5890   28.8951 C.ar    1  UNL1       -0.0003
     15 C         -23.3008   -0.1534   29.2704 C.ar    1  UNL1       -0.0046
     16 C         -26.0464    2.8635   26.4955 C.3     1  UNL1        0.0125
     17 O         -28.2149    1.2866   27.1977 O.2     1  UNL1       -0.2957
@<TRIPOS>BOND
     1     1     2    1
     2     3     4    1
     3     5     6    1
     4     2     7    1
     5     6     7    1
     6     1     8    1
     7     8     9    1
     8     8    10    1
     9     8    11    1
    10     6    16    1
    11     7    17    2
    12     2     3    1
    13     4    15   ar
    14    15    14   ar
    15    14    13   ar
    16    13    12   ar
    17    12     5   ar
    18     5     4   ar
