@<TRIPOS>MOLECULE
No_4563-gen_results/8p0m/2024-11-26-14-13-15/
 15 17 0 0 0
SMALL
GASTEIGER

@<TRIPOS>ATOM
      1 C         -28.0162   -0.8135   28.8779 C.ar    1  UNL1       -0.0003
      2 C         -27.0636   -0.1189   28.6079 C.ar    1  UNL1       -0.0040
      3 C         -25.7923   -0.4302   29.0761 C.ar    1  UNL1       -0.0003
      4 C         -24.5456    0.3494   28.8225 C.ar    1  UNL1       -0.0000
      5 C         -23.2409    0.0217   29.3323 C.ar    1  UNL1       -0.0000
      6 C         -27.8820   -1.8995   29.8633 C.ar    1  UNL1       -0.0000
      7 C         -26.6706   -2.3272   30.3212 C.ar    1  UNL1       -0.0000
      8 C         -25.5433   -1.5852   29.9316 C.ar    1  UNL1       -0.0000
      9 C         -22.1918    0.8302   29.0004 C.ar    1  UNL1       -0.0000
     10 C         -22.1472    1.7783   28.0287 C.ar    1  UNL1       -0.0000
     11 C         -24.5322    1.3987   27.8163 C.ar    1  UNL1       -0.0003
     12 C         -25.7399    1.6952   27.1553 C.ar    1  UNL1       -0.0043
     13 C         -23.3709    2.0781   27.4138 C.ar    1  UNL1       -0.0000
     14 C         -27.0657    0.9903   27.5858 C.ar    1  UNL1       -0.0218
     15 C         -28.2927    1.3383   26.9671 C.3     1  UNL1        0.0310
@<TRIPOS>BOND
     1    14    15    1
     2     4     5   ar
     3     5     9   ar
     4     9    10   ar
     5    10    13   ar
     6    13    11   ar
     7     1     2   ar
     8     3     8   ar
     9     8     7   ar
    10     7     6   ar
    11     6     1   ar
    12     2     3   ar
    13     3     4   ar
    14     4    11   ar
    15    11    12   ar
    16    12    14   ar
    17    14     2   ar
