@<TRIPOS>MOLECULE
No_4564-gen_results/8p0m/2024-11-26-14-13-15/
 30 31 0 0 0
SMALL
GASTEIGER

@<TRIPOS>ATOM
      1 C         -28.0162   -0.8135   28.8779 C.ar    1  UNL1        0.0408
      2 C         -27.0636   -0.1190   28.6079 C.ar    1  UNL1        0.0741
      3 C         -25.7647   -0.3897   29.0360 C.ar    1  UNL1       -0.0002
      4 C         -25.5296   -1.5302   29.9014 C.ar    1  UNL1       -0.0189
      5 C         -24.3236   -1.9076   30.4324 C.3     1  UNL1        0.0311
      6 C         -27.9274   -1.9227   29.7902 C.ar    1  UNL1        0.1390
      7 C         -26.6914   -2.2806   30.2948 C.ar    1  UNL1        0.0327
      8 C         -23.2806   -2.0391   29.4813 C.3     1  UNL1        0.0309
      9 O         -29.0049   -2.6569   30.1988 O.3     1  UNL1       -0.4637
     10 C         -28.9072   -3.9392   30.6003 C.3     1  UNL1        0.3186
     11 C         -30.1999   -4.6648   30.2607 C.2     1  UNL1        0.4084
     12 O         -30.2643   -5.7088   30.9491 O.co2   1  UNL1       -0.2415
     13 O         -30.9317   -4.3718   29.3952 O.co2   1  UNL1       -0.2415
     14 C         -27.1342    1.0151   27.6191 C.3     1  UNL1        0.4187
     15 F         -26.3171    1.0802   26.8340 F       1  UNL1       -0.1659
     16 F         -27.1337    2.1612   28.3461 F       1  UNL1       -0.1659
     17 F         -28.3973    0.9810   27.0441 F       1  UNL1       -0.1659
     18 C         -22.3830   -0.8555   29.2854 C.2     1  UNL1       -0.0211
     19 C         -22.8381    0.2466   28.6897 C.2     1  UNL1        0.0549
     20 C         -22.0203    1.3772   28.2215 C.2     1  UNL1        0.2646
     21 N         -22.6213    2.4827   27.6998 N.am    1  UNL1       -0.2013
     22 O         -20.8135    1.2521   28.1339 O.2     1  UNL1       -0.2684
     23 C         -24.0850    2.6541   27.7319 C.3     1  UNL1        0.1201
     24 C         -24.4485    3.5075   28.7776 C.3     1  UNL1        0.0498
     25 C         -25.2110    4.6383   28.6054 C.ar    1  UNL1       -0.0204
     26 C         -25.7296    5.4658   29.6189 C.ar    1  UNL1       -0.0042
     27 C         -26.3072    6.6966   29.3032 C.ar    1  UNL1       -0.0003
     28 C         -25.7205    4.9798   27.2787 C.ar    1  UNL1       -0.0042
     29 C         -26.3650    6.1495   26.9901 C.ar    1  UNL1       -0.0003
     30 C         -26.7109    7.0026   28.0369 C.ar    1  UNL1       -0.0000
@<TRIPOS>BOND
     1     4     5    1
     2     5     8    1
     3     6     9    1
     4     9    10    1
     5    10    11    1
     6    11    12   ar
     7    11    13   ar
     8     2    14    1
     9    14    15    1
    10    14    16    1
    11    14    17    1
    12     8    18    1
    13    18    19    2
    14    19    20    1
    15    20    21   am
    16    20    22    2
    17    21    23    1
    18    23    24    1
    19    24    25    1
    20    25    26   ar
    21    26    27   ar
    22    27    30   ar
    23    30    29   ar
    24    29    28   ar
    25    28    25   ar
    26     1     2   ar
    27     2     3   ar
    28     3     4   ar
    29     4     7   ar
    30     7     6   ar
    31     6     1   ar
