@<TRIPOS>MOLECULE
No_4565-gen_results/8p0m/2024-11-26-14-13-15/
 28 29 0 0 0
SMALL
GASTEIGER

@<TRIPOS>ATOM
      1 C         -28.0162   -0.8135   28.8779 C.ar    1  UNL1        0.0369
      2 C         -27.0636   -0.1189   28.6079 C.ar    1  UNL1        0.0031
      3 C         -25.7923   -0.4302   29.0761 C.ar    1  UNL1        0.0002
      4 C         -25.5756   -1.5654   29.9363 C.ar    1  UNL1        0.0031
      5 C         -26.7354   -2.3004   30.2173 C.ar    1  UNL1        0.0369
      6 C         -27.9184   -1.9537   29.7629 C.ar    1  UNL1        0.1386
      7 O         -29.0001   -2.7012   30.1151 O.3     1  UNL1       -0.4739
      8 C         -24.5290    0.3490   28.7998 C.ar    1  UNL1        0.0000
      9 C         -23.3442    0.0060   29.1658 C.ar    1  UNL1        0.0000
     10 C         -22.1783    0.7811   28.7783 C.ar    1  UNL1        0.0000
     11 C         -22.3218    1.7499   27.7727 C.ar    1  UNL1        0.0000
     12 C         -24.6102    1.3558   27.7479 C.ar    1  UNL1        0.0000
     13 C         -23.5148    2.0341   27.3068 C.ar    1  UNL1        0.0000
     14 C         -29.3590   -2.8169   31.4427 C.3     1  UNL1        0.2243
     15 C         -29.7819   -4.1265   31.7466 C.3     1  UNL1        0.1378
     16 C         -29.8400   -5.0556   30.8071 C.3     1  UNL1        0.0550
     17 N         -29.0233   -4.5729   32.9297 N.3     1  UNL1       -0.1289
     18 C         -30.4825   -4.8241   29.5754 C.3     1  UNL1        0.1468
     19 O         -30.5388   -5.8459   28.7163 O.3     1  UNL1       -0.3249
     20 C         -31.8007   -5.9949   28.0916 C.3     1  UNL1        0.3090
     21 C         -32.8584   -5.6806   28.8092 C.3     1  UNL1        0.2135
     22 C         -33.0772   -6.1816   29.9097 C.3     1  UNL1        0.0432
     23 O         -32.8624   -4.2044   28.8849 O.3     1  UNL1       -0.2174
     24 F         -31.7032   -6.7937   27.0175 F       1  UNL1       -0.2012
     25 C         -33.8697   -5.4947   30.8560 C.3     1  UNL1        0.0285
     26 C         -33.8608   -5.9084   32.2163 C.2     1  UNL1       -0.0306
     27 C         -34.2847   -5.0231   33.2141 C.2     1  UNL1       -0.0304
     28 C         -34.1287   -5.2698   34.5782 C.3     1  UNL1        0.0303
@<TRIPOS>BOND
     1     6     7    1
     2     3     8    1
     3     7    14    1
     4    14    15    1
     5    15    16    1
     6    15    17    1
     7    16    18    1
     8    18    19    1
     9    19    20    1
    10    20    21    1
    11    21    22    1
    12    21    23    1
    13    20    24    1
    14    22    25    1
    15    25    26    1
    16    26    27    2
    17    27    28    1
    18     1     2   ar
    19     2     3   ar
    20     3     4   ar
    21     4     5   ar
    22     5     6   ar
    23     6     1   ar
    24     8     9   ar
    25     9    10   ar
    26    10    11   ar
    27    11    13   ar
    28    13    12   ar
    29    12     8   ar
