@<TRIPOS>MOLECULE
No_4566-gen_results/8p0m/2024-11-26-14-13-15/
 26 28 0 0 0
SMALL
GASTEIGER

@<TRIPOS>ATOM
      1 C         -28.0162   -0.8135   28.8779 C.ar    1  UNL1        0.0008
      2 C         -28.4690   -0.7850   29.8287 C.ar    1  UNL1        0.0001
      3 C         -28.1816    0.4277   28.1134 C.ar    1  UNL1        0.0002
      4 C         -27.4498    0.6435   26.8500 C.ar    1  UNL1        0.0046
      5 C         -27.8596    1.4573   25.9076 C.ar    1  UNL1        0.0554
      6 C         -28.3080   -1.9885   30.8635 C.ar    1  UNL1        0.0009
      7 C         -27.5277   -3.0190   30.3596 C.ar    1  UNL1        0.0114
      8 C         -26.7389   -2.8481   29.2719 C.ar    1  UNL1        0.0577
      9 C         -26.9091   -1.6576   28.5337 C.ar    1  UNL1        0.0114
     10 C         -28.9724    2.3472   26.1217 C.ar    1  UNL1        0.0046
     11 C         -29.6230    2.2195   27.3318 C.ar    1  UNL1        0.0001
     12 C         -29.2848    1.2346   28.2720 C.ar    1  UNL1        0.0000
     13 CL        -25.5535   -3.9864   28.8994 Cl      1  UNL1       -0.0822
     14 C         -27.0383    1.6607   24.6860 C.2     1  UNL1        0.2690
     15 N         -25.8211    1.4451   24.9011 N.am    1  UNL1       -0.1755
     16 C         -24.9803    2.2214   25.6724 C.ar    1  UNL1        0.0734
     17 C         -23.6084    1.8700   25.9363 C.ar    1  UNL1        0.0166
     18 C         -25.4353    3.4900   26.2502 C.ar    1  UNL1        0.0140
     19 C         -24.5452    4.2394   27.0745 C.ar    1  UNL1        0.0013
     20 C         -22.7707    2.4895   26.8247 C.ar    1  UNL1        0.0011
     21 C         -23.3084    3.6820   27.4039 C.ar    1  UNL1       -0.0026
     22 O         -27.5090    2.1729   23.7202 O.2     1  UNL1       -0.2680
     23 C         -25.0507    5.4421   27.7205 C.3     1  UNL1        0.1665
     24 CL        -24.9338    6.8158   26.9282 Cl      1  UNL1       -0.1017
     25 C         -25.7317    5.3843   28.9574 C.2     1  UNL1        0.2278
     26 O         -26.2190    4.4336   29.3910 O.2     1  UNL1       -0.2866
@<TRIPOS>BOND
     1     8    13    1
     2     5    14    1
     3    14    15   am
     4    15    16    1
     5    14    22    2
     6    19    23    1
     7    23    24    1
     8    23    25    1
     9    25    26    2
    10     3     1    1
    11     3     4   ar
    12     4     5   ar
    13     5    10   ar
    14    10    11   ar
    15    11    12   ar
    16    12     3   ar
    17    16    17   ar
    18    17    20   ar
    19    20    21   ar
    20    21    19   ar
    21    19    18   ar
    22    18    16   ar
    23     1     2   ar
    24     2     6   ar
    25     6     7   ar
    26     7     8   ar
    27     8     9   ar
    28     9     1   ar
