@<TRIPOS>MOLECULE
No_4567-gen_results/8p0m/2024-11-26-14-13-15/
 24 25 0 0 0
SMALL
GASTEIGER

@<TRIPOS>ATOM
      1 C         -28.0162   -0.8135   28.8779 C.ar    1  UNL1        0.0000
      2 C         -28.4690   -0.7850   29.8287 C.ar    1  UNL1        0.0000
      3 C         -27.1356    0.2359   28.5352 C.ar    1  UNL1        0.0000
      4 C         -26.8745    1.2825   29.3982 C.ar    1  UNL1        0.0001
      5 C         -27.5070    1.2380   30.6295 C.ar    1  UNL1        0.0000
      6 C         -28.3293    0.1745   30.9350 C.ar    1  UNL1        0.0000
      7 C         -26.3848    0.5209   27.2533 C.ar    1  UNL1        0.0001
      8 C         -26.1694    1.4950   26.7677 C.ar    1  UNL1        0.0046
      9 C         -25.8547    2.6655   27.6822 C.ar    1  UNL1        0.0550
     10 C         -26.4041    2.5783   28.9775 C.ar    1  UNL1        0.0046
     11 C         -25.2011    3.8959   27.1720 C.2     1  UNL1        0.2648
     12 N         -25.1635    4.9490   27.8801 N.am    1  UNL1       -0.2016
     13 O         -24.2621    3.7515   26.2425 O.2     1  UNL1       -0.2684
     14 C         -24.5884    6.2603   27.4065 C.3     1  UNL1        0.1164
     15 C         -25.5854    7.3922   27.5229 C.3     1  UNL1        0.0351
     16 C         -25.8356    7.7580   28.8525 C.3     1  UNL1        0.0632
     17 BR        -24.6638    7.9769   29.9201 Br      1  UNL1       -0.0813
     18 C         -27.2348    7.9027   29.1788 C.3     1  UNL1        0.0374
     19 C         -27.5478    7.8523   30.5136 C.2     1  UNL1       -0.0253
     20 C         -26.8517    8.0631   31.3790 C.2     1  UNL1       -0.0045
     21 C         -27.1861    7.9739   32.8470 C.2     1  UNL1       -0.0003
     22 C         -26.2223    8.1999   33.8550 C.2     1  UNL1       -0.0000
     23 C         -24.8722    8.3707   33.4745 C.2     1  UNL1       -0.0000
     24 C         -24.5289    8.4083   32.2313 C.2     1  UNL1       -0.0000
@<TRIPOS>BOND
     1     9    11    1
     2    11    12   am
     3    11    13    2
     4    12    14    1
     5    14    15    1
     6    15    16    1
     7    16    17    1
     8    16    18    1
     9    18    19    1
    10    19    20    2
    11    20    21    1
    12    21    22    2
    13    22    23    1
    14    23    24    2
    15     4    10   ar
    16    10     9   ar
    17     9     8   ar
    18     8     7   ar
    19     7     3   ar
    20     1     2   ar
    21     2     6   ar
    22     6     5   ar
    23     5     4   ar
    24     4     3   ar
    25     3     1   ar
