@<TRIPOS>MOLECULE
No_4568-gen_results/8p0m/2024-11-26-14-13-15/
 23 23 0 0 0
SMALL
GASTEIGER

@<TRIPOS>ATOM
      1 C         -28.0162   -0.8135   28.8779 C.ar    1  UNL1        0.0407
      2 C         -27.0636   -0.1189   28.6079 C.ar    1  UNL1        0.0742
      3 C         -25.7647   -0.3897   29.0360 C.ar    1  UNL1        0.0011
      4 C         -25.5296   -1.5302   29.9014 C.ar    1  UNL1       -0.0032
      5 C         -24.3236   -1.9076   30.4324 C.3     1  UNL1        0.0993
      6 C         -27.9274   -1.9227   29.7902 C.ar    1  UNL1        0.1384
      7 C         -26.6914   -2.2806   30.2948 C.ar    1  UNL1        0.0340
      8 N         -23.7000   -1.1225   31.2784 N.3     1  UNL1       -0.2677
      9 C         -22.6434   -0.2534   30.9950 C.3     1  UNL1        0.0728
     10 C         -24.3821   -0.8071   32.5739 C.3     1  UNL1        0.0899
     11 C         -27.3648    1.0347   27.7226 C.3     1  UNL1        0.4187
     12 F         -28.2870    0.9731   26.9698 F       1  UNL1       -0.1659
     13 F         -27.4923    2.2069   28.5210 F       1  UNL1       -0.1659
     14 F         -26.1774    1.3789   27.0145 F       1  UNL1       -0.1659
     15 O         -29.0223   -2.6032   30.1551 O.3     1  UNL1       -0.4714
     16 C         -29.4200   -2.7003   31.4720 C.3     1  UNL1        0.2525
     17 C         -21.9110   -0.6019   29.7987 C.3     1  UNL1        0.0220
     18 C         -21.5544    0.4933   28.9066 C.3     1  UNL1        0.0275
     19 C         -22.6428    1.1819   28.2979 C.2     1  UNL1       -0.0261
     20 C         -22.4581    2.0020   27.1512 C.2     1  UNL1       -0.0049
     21 C         -23.5688    2.7150   26.6158 C.2     1  UNL1       -0.0049
     22 C         -24.6736    3.0003   27.5302 C.2     1  UNL1       -0.0258
     23 C         -25.6405    3.9536   27.3428 C.3     1  UNL1        0.0307
@<TRIPOS>BOND
     1     4     5    1
     2     5     8    1
     3     8     9    1
     4     8    10    1
     5     2    11    1
     6    11    12    1
     7    11    13    1
     8    11    14    1
     9     6    15    1
    10    15    16    1
    11     9    17    1
    12    17    18    1
    13    18    19    1
    14    19    20    2
    15    20    21    1
    16    21    22    2
    17    22    23    1
    18     1     2   ar
    19     2     3   ar
    20     3     4   ar
    21     4     7   ar
    22     7     6   ar
    23     6     1   ar
