@<TRIPOS>MOLECULE
No_4569-gen_results/8p0m/2024-11-26-14-13-15/
 30 31 0 0 0
SMALL
GASTEIGER

@<TRIPOS>ATOM
      1 C         -28.0162   -0.8135   28.8779 C.ar    1  UNL1        0.0103
      2 C         -28.4690   -0.7850   29.8287 C.ar    1  UNL1        0.0761
      3 C         -27.1356    0.2359   28.5352 C.ar    1  UNL1        0.0716
      4 C         -26.8745    1.2825   29.3982 C.ar    1  UNL1        0.0039
      5 C         -28.3613    0.1987   30.9244 C.ar    1  UNL1        0.0064
      6 C         -27.5277    1.2234   30.6356 C.ar    1  UNL1        0.0002
      7 C         -26.3879    0.2914   27.2334 C.3     1  UNL1        0.4186
      8 F         -25.7787   -0.5228   27.0339 F       1  UNL1       -0.1659
      9 F         -25.6033    1.4597   27.1041 F       1  UNL1       -0.1659
     10 F         -27.3759    0.5235   26.2013 F       1  UNL1       -0.1659
     11 C         -29.3026   -2.1090   30.1683 C.2     1  UNL1        0.3481
     12 O         -28.8756   -3.2315   30.3546 O.2     1  UNL1       -0.2444
     13 O         -30.5084   -1.9072   30.5162 O.3     1  UNL1       -0.3814
     14 C         -27.3077    2.3301   31.6149 C.ar    1  UNL1        0.0003
     15 C         -26.4790    3.0141   31.6013 C.ar    1  UNL1        0.0046
     16 C         -26.1803    4.1809   32.5576 C.ar    1  UNL1        0.0569
     17 C         -27.0730    4.3327   33.5716 C.ar    1  UNL1        0.0112
     18 C         -28.1629    3.4612   33.5736 C.ar    1  UNL1        0.0799
     19 C         -28.3254    2.4717   32.6612 C.ar    1  UNL1        0.0066
     20 C         -24.9584    5.0116   32.4508 C.2     1  UNL1        0.2842
     21 N         -23.8215    4.4880   32.6441 N.am    1  UNL1       -0.0837
     22 O         -25.1231    6.2038   32.1171 O.2     1  UNL1       -0.2667
     23 C         -29.1503    3.6053   34.7244 C.2     1  UNL1        0.3878
     24 O         -28.9621    4.4675   35.4668 O.co2   1  UNL1       -0.2406
     25 O         -30.0946    2.7924   34.7107 O.co2   1  UNL1       -0.2406
     26 C         -31.3979   -2.9148   30.4651 C.2     1  UNL1        0.4290
     27 C         -32.7304   -2.6182   30.5585 C.2     1  UNL1        0.4626
     28 O         -33.5553   -3.4529   30.6230 O.co2   1  UNL1       -0.2332
     29 O         -33.0626   -1.4398   31.0245 O.co2   1  UNL1       -0.2332
     30 O         -31.0720   -4.0418   30.1397 O.2     1  UNL1       -0.2369
@<TRIPOS>BOND
     1     3     7    1
     2     7     8    1
     3     7     9    1
     4     7    10    1
     5     2    11    1
     6    11    12    2
     7    11    13    1
     8     6    14    1
     9    16    20    1
    10    20    21   am
    11    20    22    2
    12    18    23    1
    13    23    24   ar
    14    23    25   ar
    15    13    26    1
    16    26    27    1
    17    27    28   ar
    18    27    29   ar
    19    26    30    2
    20    14    15   ar
    21    15    16   ar
    22    16    17   ar
    23    17    18   ar
    24    18    19   ar
    25    19    14   ar
    26     1     2   ar
    27     2     5   ar
    28     5     6   ar
    29     6     4   ar
    30     4     3   ar
    31     3     1   ar
