@<TRIPOS>MOLECULE
No_457-gen_results/8p0m/2024-11-26-14-13-15/
 34 36 0 0 0
SMALL
GASTEIGER

@<TRIPOS>ATOM
      1 C         -28.0162   -0.8135   28.8779 C.ar    1  UNL1        0.0442
      2 C         -27.0636   -0.1189   28.6079 C.ar    1  UNL1        0.1487
      3 C         -26.8756    1.1325   28.9134 C.ar    1  UNL1        0.0337
      4 C         -27.9014    1.8066   29.6436 C.ar    1  UNL1       -0.0146
      5 C         -29.0458   -0.2316   29.7181 C.ar    1  UNL1        0.0825
      6 C         -28.9402    1.0517   30.0597 C.ar    1  UNL1        0.0028
      7 O         -26.0385   -0.8477   27.9602 O.3     1  UNL1       -0.4210
      8 C         -25.0055   -1.4082   28.7375 C.2     1  UNL1        0.3459
      9 C         -23.8323   -0.6857   28.9329 C.ar    1  UNL1        0.0823
     10 C         -23.4261   -0.0737   29.7889 C.ar    1  UNL1        0.0823
     11 C         -22.0660    0.4223   29.8885 C.ar    1  UNL1        0.0067
     12 C         -21.1388    0.1041   28.8819 C.ar    1  UNL1        0.0002
     13 C         -21.5679   -0.7255   27.8711 C.ar    1  UNL1        0.0002
     14 C         -22.8097   -1.1053   27.9143 C.ar    1  UNL1        0.0067
     15 O         -25.1699   -2.6778   29.0157 O.2     1  UNL1       -0.2445
     16 C         -30.2075   -1.0906   30.1640 C.2     1  UNL1        0.3878
     17 O         -30.2273   -1.8764   30.9869 O.co2   1  UNL1       -0.2406
     18 O         -31.3391   -0.6398   29.6418 O.co2   1  UNL1       -0.2406
     19 C         -24.3005    0.3966   30.9803 C.2     1  UNL1        0.3459
     20 O         -24.3491   -0.2101   31.9610 O.2     1  UNL1       -0.2445
     21 O         -24.5618    1.7098   31.0724 O.3     1  UNL1       -0.4210
     22 C         -25.2791    2.2115   32.0803 C.ar    1  UNL1        0.1488
     23 C         -25.2341    3.6661   32.2221 C.ar    1  UNL1        0.0376
     24 C         -25.8535    4.3033   33.2965 C.ar    1  UNL1        0.0031
     25 C         -26.7029    3.5002   34.1142 C.ar    1  UNL1        0.0002
     26 C         -26.7671    2.1419   33.9373 C.ar    1  UNL1        0.0031
     27 C         -26.0669    1.5198   32.9509 C.ar    1  UNL1        0.0376
     28 C         -27.7989    3.2605   30.0239 C.3     1  UNL1        0.0524
     29 C         -28.4966    4.1335   29.1585 C.2     1  UNL1       -0.0214
     30 C         -28.4910    5.4588   29.5049 C.2     1  UNL1       -0.0042
     31 C         -27.6669    5.9653   30.5311 C.2     1  UNL1       -0.0003
     32 C         -27.6852    7.3506   30.8554 C.2     1  UNL1       -0.0000
     33 C         -28.5437    8.1343   30.1467 C.2     1  UNL1       -0.0000
     34 C         -29.3366    7.7356   29.1566 C.2     1  UNL1       -0.0000
@<TRIPOS>BOND
     1     2     7    1
     2     7     8    1
     3     8     9    1
     4     8    15    2
     5     5    16    1
     6    16    17   ar
     7    16    18   ar
     8    10    19    1
     9    19    20    2
    10    19    21    1
    11    21    22    1
    12     4    28    1
    13    28    29    1
    14    29    30    2
    15    30    31    1
    16    31    32    2
    17    32    33    1
    18    33    34    2
    19    22    23   ar
    20    23    24   ar
    21    24    25   ar
    22    25    26   ar
    23    26    27   ar
    24    27    22   ar
    25     1     2   ar
    26     2     3   ar
    27     3     4   ar
    28     4     6   ar
    29     6     5   ar
    30     5     1   ar
    31     9    10   ar
    32    10    11   ar
    33    11    12   ar
    34    12    13   ar
    35    13    14   ar
    36    14     9   ar
