@<TRIPOS>MOLECULE
No_4570-gen_results/8p0m/2024-11-26-14-13-15/
 15 16 0 0 0
SMALL
GASTEIGER

@<TRIPOS>ATOM
      1 C         -28.0162   -0.8135   28.8779 C.ar    1  UNL1        0.0489
      2 C         -28.4690   -0.7850   29.8287 C.ar    1  UNL1        0.0607
      3 C         -26.5455   -0.8762   28.8500 C.ar    1  UNL1        0.1462
      4 C         -25.8041   -1.0324   30.0571 C.ar    1  UNL1        0.0346
      5 C         -27.9437   -0.9869   31.2075 C.ar    1  UNL1        0.0116
      6 C         -26.5825   -1.0386   31.2231 C.ar    1  UNL1        0.0038
      7 C         -24.3810   -1.1082   30.0855 C.ar    1  UNL1        0.0030
      8 C         -23.7590   -1.1322   30.8961 C.ar    1  UNL1        0.0001
      9 C         -24.3562   -0.7698   32.2492 C.ar    1  UNL1        0.0000
     10 C         -25.7653   -0.8949   32.4030 C.ar    1  UNL1        0.0001
     11 CL        -30.3167   -0.7717   29.8493 Cl      1  UNL1       -0.0821
     12 O         -25.7411   -0.9470   27.7624 O.3     1  UNL1       -0.4507
     13 C         -25.5419    0.3133   27.0927 C.2     1  UNL1        0.1750
     14 C         -24.4450    0.9955   27.3875 C.2     1  UNL1        0.0148
     15 C         -24.0911    2.1444   26.6404 C.3     1  UNL1        0.0341
@<TRIPOS>BOND
     1     2    11    1
     2     3    12    1
     3    12    13    1
     4    13    14    2
     5    14    15    1
     6     6    10   ar
     7    10     9   ar
     8     9     8   ar
     9     8     7   ar
    10     7     4   ar
    11     1     2   ar
    12     2     5   ar
    13     5     6   ar
    14     6     4   ar
    15     4     3   ar
    16     3     1   ar
