@<TRIPOS>MOLECULE
No_4571-gen_results/8p0m/2024-11-26-14-13-15/
 12 13 0 0 0
SMALL
GASTEIGER

@<TRIPOS>ATOM
      1 C         -28.0162   -0.8135   28.8779 C.ar    1  UNL1        0.0145
      2 C         -28.4690   -0.7850   29.8287 C.ar    1  UNL1        0.0478
      3 C         -26.5455   -0.8762   28.8500 C.ar    1  UNL1        0.0013
      4 C         -25.8041   -1.0324   30.0571 C.ar    1  UNL1        0.0001
      5 C         -27.9437   -0.9869   31.2075 C.ar    1  UNL1        0.0145
      6 C         -26.5825   -1.0386   31.2231 C.ar    1  UNL1        0.0013
      7 N         -29.9436   -0.6830   29.6853 N.pl3   1  UNL1       -0.3075
      8 C         -30.4726    0.0145   28.8172 C.3     1  UNL1        0.0908
      9 C         -31.8182   -0.2292   28.5234 C.3     1  UNL1        0.0215
     10 C         -30.8249   -1.5328   30.4837 C.3     1  UNL1        0.0908
     11 C         -32.1164   -1.6968   30.2263 C.3     1  UNL1        0.0215
     12 C         -32.6468   -0.9806   29.2445 C.3     1  UNL1        0.0035
@<TRIPOS>BOND
     1     2     7    1
     2     7     8    1
     3     7    10    1
     4     9    12    1
     5    11    12    1
     6     8     9    1
     7    11    10    1
     8     1     2   ar
     9     2     5   ar
    10     5     6   ar
    11     6     4   ar
    12     4     3   ar
    13     3     1   ar
