@<TRIPOS>MOLECULE
No_4572-gen_results/8p0m/2024-11-26-14-13-15/
 26 28 0 0 0
SMALL
GASTEIGER

@<TRIPOS>ATOM
      1 C         -28.0162   -0.8135   28.8779 C.ar    1  UNL1        0.0068
      2 C         -27.0636   -0.1190   28.6079 C.ar    1  UNL1        0.0276
      3 C         -25.7923   -0.4302   29.0761 C.ar    1  UNL1        0.0020
      4 C         -25.5756   -1.5654   29.9363 C.ar    1  UNL1        0.0002
      5 C         -26.7354   -2.3004   30.2173 C.ar    1  UNL1        0.0046
      6 C         -27.9184   -1.9537   29.7629 C.ar    1  UNL1        0.0555
      7 C         -27.1057    1.1023   27.7593 C.ar    1  UNL1        0.1399
      8 C         -26.1219    1.4820   27.0232 C.ar    1  UNL1        0.0295
      9 C         -24.7142    1.1299   27.4889 C.ar    1  UNL1        0.0304
     10 C         -24.5718    0.0966   28.4066 C.ar    1  UNL1       -0.0000
     11 C         -23.5495    1.7790   26.9027 C.3     1  UNL1        0.2737
     12 N         -23.5037    2.2388   25.6847 N.3     1  UNL1       -0.0898
     13 F         -22.4826    1.7511   27.6077 F       1  UNL1       -0.2112
     14 C         -29.0837   -2.7247   30.2621 C.2     1  UNL1        0.2716
     15 N         -29.0203   -4.0270   30.4890 N.am    1  UNL1       -0.1371
     16 O         -30.2548   -2.2495   30.0505 O.2     1  UNL1       -0.2679
     17 C         -30.0955   -4.9158   30.7850 C.2     1  UNL1        0.2716
     18 C         -30.8877   -5.2263   29.7447 C.ar    1  UNL1        0.0556
     19 C         -31.5622   -6.4148   29.7880 C.ar    1  UNL1        0.0069
     20 C         -32.3025   -6.8646   28.6001 C.ar    1  UNL1        0.0298
     21 C         -32.2365   -6.0665   27.4123 C.ar    1  UNL1        0.1401
     22 C         -31.4701   -4.9012   27.4064 C.ar    1  UNL1        0.0298
     23 C         -30.7491   -4.5311   28.5039 C.ar    1  UNL1        0.0069
     24 F         -32.9253   -6.5033   26.3903 F       1  UNL1       -0.2042
     25 F         -27.9395    1.9001   28.1822 F       1  UNL1       -0.2042
     26 O         -30.1169   -5.3775   31.9622 O.2     1  UNL1       -0.2679
@<TRIPOS>BOND
     1     9    11    1
     2    11    12    1
     3    11    13    1
     4     6    14    1
     5    14    15   am
     6    14    16    2
     7    15    17   am
     8    17    18    1
     9    21    24    1
    10     7    25    1
    11    17    26    2
    12    18    19   ar
    13    19    20   ar
    14    20    21   ar
    15    21    22   ar
    16    22    23   ar
    17    23    18   ar
    18     1     2   ar
    19     3     4   ar
    20     4     5   ar
    21     5     6   ar
    22     6     1   ar
    23     2     3   ar
    24     3    10   ar
    25    10     9   ar
    26     9     8   ar
    27     8     7   ar
    28     7     2   ar
