@<TRIPOS>MOLECULE
No_4573-gen_results/8p0m/2024-11-26-14-13-15/
 13 14 0 0 0
SMALL
GASTEIGER

@<TRIPOS>ATOM
      1 C         -28.0162   -0.8135   28.8779 C.ar    1  UNL1        0.0000
      2 C         -28.4690   -0.7850   29.8287 C.ar    1  UNL1        0.0000
      3 C         -27.1356    0.2359   28.5352 C.ar    1  UNL1        0.0001
      4 C         -26.8745    1.2825   29.3982 C.ar    1  UNL1        0.0029
      5 C         -27.5070    1.2380   30.6295 C.ar    1  UNL1        0.0001
      6 C         -28.3293    0.1745   30.9350 C.ar    1  UNL1        0.0000
      7 C         -26.4077    0.3070   27.2259 C.ar    1  UNL1       -0.0003
      8 C         -25.7128    1.4905   26.9213 C.ar    1  UNL1       -0.0042
      9 C         -25.4551    2.4911   27.8860 C.ar    1  UNL1       -0.0187
     10 C         -24.6434    3.6682   27.5931 C.3     1  UNL1        0.0311
     11 C         -26.1059    2.3987   29.1669 C.ar    1  UNL1        0.0383
     12 C         -25.8005    3.4836   30.1526 C.2     1  UNL1        0.2338
     13 O         -25.9292    4.6719   29.7836 O.2     1  UNL1       -0.2832
@<TRIPOS>BOND
     1     9    10    1
     2    11    12    1
     3    12    13    2
     4     1     2   ar
     5     2     6   ar
     6     6     5   ar
     7     5     4   ar
     8     3     1   ar
     9     3     4   ar
    10     4    11   ar
    11    11     9   ar
    12     9     8   ar
    13     8     7   ar
    14     7     3   ar
