@<TRIPOS>MOLECULE
No_4574-gen_results/8p0m/2024-11-26-14-13-15/
 22 24 0 0 0
SMALL
GASTEIGER

@<TRIPOS>ATOM
      1 C         -28.0162   -0.8135   28.8779 C.ar    1  UNL1        0.0084
      2 C         -28.4690   -0.7850   29.8287 C.ar    1  UNL1        0.0716
      3 C         -26.5042   -0.7777   28.8766 C.ar    1  UNL1        0.0538
      4 C         -25.8103   -0.8531   30.1028 C.ar    1  UNL1        0.0045
      5 C         -27.9906   -0.8916   31.2257 C.ar    1  UNL1        0.0039
      6 C         -26.6042   -0.8676   31.2652 C.ar    1  UNL1        0.0001
      7 C         -30.0739   -0.8360   29.8615 C.3     1  UNL1        0.4186
      8 F         -30.5629   -0.0238   30.8073 F       1  UNL1       -0.1659
      9 F         -30.4803   -2.0886   30.0563 F       1  UNL1       -0.1659
     10 F         -30.4818   -0.4582   28.6861 F       1  UNL1       -0.1659
     11 C         -25.6356   -0.7098   27.6730 C.2     1  UNL1        0.2527
     12 N         -25.9514    0.0791   26.6794 N.am    1  UNL1       -0.2555
     13 C         -26.5285    0.0679   25.8219 C.ar    1  UNL1        0.0501
     14 C         -27.3601   -0.8996   25.4010 C.ar    1  UNL1        0.0146
     15 C         -28.2296   -0.7813   24.2519 C.ar    1  UNL1        0.0013
     16 C         -28.2830    0.4537   23.6341 C.ar    1  UNL1       -0.0002
     17 C         -27.4703    1.5109   24.0124 C.ar    1  UNL1       -0.0030
     18 C         -26.6398    1.4220   25.1146 C.ar    1  UNL1       -0.0084
     19 C         -24.9226    1.3082   26.8684 C.3     1  UNL1        0.0988
     20 C         -25.2898    2.3642   26.4435 C.3     1  UNL1        0.0266
     21 C         -25.9383    2.5436   25.4978 C.3     1  UNL1        0.0294
     22 O         -24.6398   -1.3807   27.8228 O.2     1  UNL1       -0.2696
@<TRIPOS>BOND
     1     2     7    1
     2     7     8    1
     3     7     9    1
     4     7    10    1
     5     3    11    1
     6    11    12   am
     7    12    13    1
     8    12    19    1
     9    18    21    1
    10    20    21    1
    11    11    22    2
    12    20    19    1
    13    13    14   ar
    14    14    15   ar
    15    15    16   ar
    16    16    17   ar
    17    17    18   ar
    18    18    13   ar
    19     1     2   ar
    20     2     5   ar
    21     5     6   ar
    22     6     4   ar
    23     4     3   ar
    24     3     1   ar
