@<TRIPOS>MOLECULE
No_4575-gen_results/8p0m/2024-11-26-14-13-15/
 35 37 0 0 0
SMALL
GASTEIGER

@<TRIPOS>ATOM
      1 CL        -28.1493   -0.8198   28.9079 Cl      1  UNL1       -0.0822
      2 C         -26.9116   -0.0797   28.9452 C.ar    1  UNL1        0.0576
      3 C         -26.7384    1.0439   29.2534 C.ar    1  UNL1        0.0107
      4 C         -25.4392    1.7115   29.2755 C.ar    1  UNL1        0.0054
      5 C         -24.2812    0.9888   28.8542 C.ar    1  UNL1        0.0554
      6 C         -24.4868   -0.3041   28.4957 C.ar    1  UNL1        0.0054
      7 C         -25.7046   -0.8667   28.5244 C.ar    1  UNL1        0.0115
      8 C         -22.9690    1.6346   28.7977 C.2     1  UNL1        0.2690
      9 N         -21.8929    0.9368   28.5399 N.am    1  UNL1       -0.1741
     10 O         -22.9132    2.9053   28.6664 O.2     1  UNL1       -0.2680
     11 C         -21.7203   -0.4454   28.7055 C.2     1  UNL1        0.0890
     12 C         -20.4744   -0.6941   29.2397 C.2     1  UNL1        0.0193
     13 C         -27.8258    1.9766   29.7374 C.ar    1  UNL1        0.0008
     14 C         -28.4363    1.8330   30.7440 C.ar    1  UNL1        0.0000
     15 C         -28.0850    0.8301   31.7893 C.ar    1  UNL1        0.0001
     16 C         -26.9238    0.4687   32.0249 C.ar    1  UNL1        0.0000
     17 C         -26.5951   -0.4211   33.2070 C.ar    1  UNL1        0.0001
     18 C         -27.6881   -0.8717   33.8817 C.ar    1  UNL1        0.0046
     19 C         -28.9446   -0.5489   33.6120 C.ar    1  UNL1        0.0554
     20 C         -29.2151    0.3491   32.6236 C.ar    1  UNL1        0.0046
     21 C         -28.1080    3.0513   28.7628 C.ar    1  UNL1        0.0000
     22 C         -29.2079    3.7048   28.9078 C.ar    1  UNL1        0.0000
     23 C         -29.9482    3.5684   30.1357 C.ar    1  UNL1        0.0000
     24 C         -29.5937    2.6891   31.0909 C.ar    1  UNL1        0.0000
     25 C         -30.0711   -1.0652   34.4418 C.2     1  UNL1        0.2691
     26 N         -30.4514   -0.4561   35.3979 N.am    1  UNL1       -0.1727
     27 C         -31.1932    0.0692   35.9058 C.2     1  UNL1        0.1022
     28 C         -32.4844    0.1330   35.2696 C.2     1  UNL1        0.0194
     29 P         -31.1076    1.1706   37.3736 P.3     1  UNL1        0.1547
     30 O         -32.1201    1.5102   37.8959 O.3     1  UNL1       -0.3533
     31 O         -30.2238    2.3256   36.9139 O.2     1  UNL1       -0.4544
     32 O         -30.1397    0.2432   38.2234 O.3     1  UNL1       -0.3533
     33 O         -30.5300   -2.2193   34.1941 O.2     1  UNL1       -0.2680
     34 C         -33.2574   -0.9462   35.3505 C.2     1  UNL1        0.0014
     35 C         -33.2894   -1.7190   36.3448 C.2     1  UNL1        0.0000
@<TRIPOS>BOND
     1     1     2    1
     2     5     8    1
     3     8     9   am
     4     8    10    2
     5     9    11    1
     6    11    12    2
     7     3    13    1
     8    14    15    1
     9    19    25    1
    10    25    26   am
    11    26    27    1
    12    27    28    2
    13    27    29    1
    14    29    30    1
    15    29    31    2
    16    29    32    1
    17    25    33    2
    18    28    34    1
    19    34    35    2
    20    15    16   ar
    21    16    17   ar
    22    17    18   ar
    23    18    19   ar
    24    19    20   ar
    25    20    15   ar
    26     2     3   ar
    27     3     4   ar
    28     4     5   ar
    29     5     6   ar
    30     6     7   ar
    31     7     2   ar
    32    13    14   ar
    33    14    24   ar
    34    24    23   ar
    35    23    22   ar
    36    22    21   ar
    37    21    13   ar
