@<TRIPOS>MOLECULE
No_4576-gen_results/8p0m/2024-11-26-14-13-15/
 17 19 0 0 0
SMALL
GASTEIGER

@<TRIPOS>ATOM
      1 C         -28.0162   -0.8135   28.8779 C.ar    1  UNL1       -0.0000
      2 C         -27.0636   -0.1190   28.6079 C.ar    1  UNL1       -0.0000
      3 C         -25.7923   -0.4302   29.0761 C.ar    1  UNL1       -0.0000
      4 C         -25.5756   -1.5654   29.9363 C.ar    1  UNL1       -0.0000
      5 C         -26.7354   -2.3004   30.2173 C.ar    1  UNL1        0.0000
      6 C         -27.9184   -1.9537   29.7629 C.ar    1  UNL1       -0.0000
      7 C         -27.1057    1.1023   27.7593 C.ar    1  UNL1       -0.0003
      8 C         -26.1219    1.4820   27.0232 C.ar    1  UNL1       -0.0000
      9 C         -26.0928    2.6187   26.1808 C.ar    1  UNL1       -0.0000
     10 C         -24.8978    3.1557   25.6096 C.ar    1  UNL1       -0.0000
     11 C         -23.6829    2.4421   25.8463 C.ar    1  UNL1        0.0000
     12 C         -23.6913    1.3254   26.6991 C.ar    1  UNL1       -0.0000
     13 C         -24.8098    0.8591   27.2802 C.ar    1  UNL1       -0.0000
     14 C         -24.7160   -0.1674   28.2908 C.ar    1  UNL1       -0.0000
     15 C         -28.4979    1.5753   27.4709 C.2     1  UNL1       -0.0046
     16 C         -29.2566    1.0269   26.5859 C.2     1  UNL1       -0.0258
     17 C         -30.5333    1.5238   26.3475 C.3     1  UNL1        0.0307
@<TRIPOS>BOND
     1     7    15    1
     2    15    16    2
     3    16    17    1
     4     1     2   ar
     5     3     4   ar
     6     4     5   ar
     7     5     6   ar
     8     6     1   ar
     9     2     3   ar
    10     3    14   ar
    11    14    13   ar
    12     8     7   ar
    13     7     2   ar
    14     8     9   ar
    15     9    10   ar
    16    10    11   ar
    17    11    12   ar
    18    12    13   ar
    19    13     8   ar
