@<TRIPOS>MOLECULE
No_4578-gen_results/8p0m/2024-11-26-14-13-15/
 27 28 0 0 0
SMALL
GASTEIGER

@<TRIPOS>ATOM
      1 O         -28.1229   -1.3353   28.4874 O.2     1  UNL1       -0.2692
      2 C         -27.4806   -0.4044   28.7094 C.2     1  UNL1        0.2565
      3 C         -26.3804   -0.0867   27.9394 C.ar    1  UNL1        0.0539
      4 N         -27.6665    0.4468   29.8988 N.am    1  UNL1       -0.2330
      5 C         -26.4086    0.8567   26.8802 C.ar    1  UNL1        0.0045
      6 C         -25.0824   -0.6970   28.1699 C.ar    1  UNL1        0.0004
      7 C         -25.2842    1.0488   26.0470 C.ar    1  UNL1        0.0001
      8 C         -23.9159   -0.3440   27.4444 C.ar    1  UNL1       -0.0002
      9 C         -24.0618    0.5290   26.3707 C.ar    1  UNL1       -0.0000
     10 C         -28.7784    0.1033   30.7872 C.2     1  UNL1        0.0681
     11 C         -26.8454    1.5246   30.2211 C.ar    1  UNL1        0.0586
     12 C         -26.0878    1.4823   31.0460 C.ar    1  UNL1        0.0152
     13 C         -25.0745    2.6030   31.2740 C.ar    1  UNL1        0.0015
     14 C         -25.1085    3.6223   30.3575 C.ar    1  UNL1        0.0067
     15 C         -25.9967    3.5762   29.2707 C.ar    1  UNL1        0.0810
     16 C         -26.8983    2.5047   29.1621 C.ar    1  UNL1        0.0218
     17 C         -25.8833    4.7072   28.3142 C.2     1  UNL1        0.3878
     18 O         -25.2248    4.7753   27.5086 O.co2   1  UNL1       -0.2406
     19 O         -27.1003    5.4691   28.3370 O.co2   1  UNL1       -0.2406
     20 C         -24.8473   -1.6086   29.3006 C.2     1  UNL1       -0.0217
     21 C         -23.7788   -2.1038   29.7468 C.2     1  UNL1       -0.0046
     22 C         -26.0896   -2.2814   29.8673 C.3     1  UNL1        0.0310
     23 C         -28.5737    0.3552   31.9399 C.2     1  UNL1       -0.0050
     24 C         -29.1037    0.2288   33.0125 C.3     1  UNL1        0.0530
     25 C         -28.7380    0.4909   34.4114 C.2     1  UNL1       -0.0259
     26 C         -27.4612    0.9542   34.6168 C.2     1  UNL1       -0.0300
     27 C         -26.6495    1.1553   33.5268 C.3     1  UNL1        0.0304
@<TRIPOS>BOND
     1     1     2    2
     2     2     3    1
     3     2     4   am
     4     4    10    1
     5     4    11    1
     6    15    17    1
     7    17    18   ar
     8    17    19   ar
     9     6    20    1
    10    20    21    2
    11    20    22    1
    12    10    23    2
    13    23    24    1
    14    24    25    1
    15    25    26    2
    16    26    27    1
    17    11    12   ar
    18    12    13   ar
    19    13    14   ar
    20    14    15   ar
    21    15    16   ar
    22    16    11   ar
    23     3     5   ar
    24     5     7   ar
    25     7     9   ar
    26     9     8   ar
    27     8     6   ar
    28     6     3   ar
