@<TRIPOS>MOLECULE
No_458-gen_results/8p0m/2024-11-26-14-13-15/
 12 12 0 0 0
SMALL
GASTEIGER

@<TRIPOS>ATOM
      1 C         -28.0162   -0.8135   28.8779 C.ar    1  UNL1        0.0069
      2 C         -27.0636   -0.1190   28.6079 C.ar    1  UNL1        0.0552
      3 C         -26.9716    0.7139   27.5060 C.ar    1  UNL1        0.0069
      4 C         -28.1053    0.7744   26.6421 C.ar    1  UNL1        0.0298
      5 C         -29.2008    0.1044   27.0527 C.ar    1  UNL1        0.1401
      6 C         -29.2096   -0.6029   28.1853 C.ar    1  UNL1        0.0298
      7 F         -30.2807    0.2156   26.2913 F       1  UNL1       -0.2042
      8 C         -25.7162   -0.2143   29.4079 C.2     1  UNL1        0.2648
      9 O         -24.6830   -0.1796   28.8801 O.2     1  UNL1       -0.2684
     10 N         -25.7687   -0.0037   30.7628 N.am    1  UNL1       -0.2017
     11 C         -24.6087   -0.0550   31.5484 C.3     1  UNL1        0.1155
     12 C         -23.5790   -0.1266   30.9543 C.3     1  UNL1        0.0253
@<TRIPOS>BOND
     1     5     7    1
     2     2     8    1
     3     8     9    2
     4     8    10   am
     5    10    11    1
     6    11    12    1
     7     1     2   ar
     8     2     3   ar
     9     3     4   ar
    10     4     5   ar
    11     5     6   ar
    12     6     1   ar
