@<TRIPOS>MOLECULE
No_4580-gen_results/8p0m/2024-11-26-14-13-15/
 17 17 0 0 0
SMALL
GASTEIGER

@<TRIPOS>ATOM
      1 C         -28.0162   -0.8135   28.8779 C.ar    1  UNL1        0.0068
      2 C         -27.0636   -0.1189   28.6079 C.ar    1  UNL1        0.0298
      3 C         -25.7647   -0.3897   29.0360 C.ar    1  UNL1        0.1401
      4 C         -25.5296   -1.5302   29.9014 C.ar    1  UNL1        0.0298
      5 C         -26.6888   -2.2893   30.1810 C.ar    1  UNL1        0.0068
      6 C         -27.8727   -1.9508   29.7373 C.ar    1  UNL1        0.0540
      7 F         -24.6993    0.3604   28.7753 F       1  UNL1       -0.2042
      8 C         -29.0333   -2.8145   30.1506 C.2     1  UNL1        0.2528
      9 N         -30.2066   -2.2497   30.2766 N.am    1  UNL1       -0.2525
     10 O         -28.8825   -4.0248   30.3981 O.2     1  UNL1       -0.2696
     11 C         -30.5213   -0.9137   30.1926 C.2     1  UNL1        0.0636
     12 C         -31.0990   -3.0990   31.1598 C.3     1  UNL1        0.1204
     13 C         -30.9175   -0.2605   31.4111 C.2     1  UNL1       -0.0053
     14 C         -30.2925    0.2079   32.1271 C.3     1  UNL1        0.0530
     15 C         -30.7037    0.7667   33.4547 C.2     1  UNL1       -0.0259
     16 C         -32.0272    0.7450   33.6995 C.2     1  UNL1       -0.0300
     17 C         -32.8445    0.1753   32.7880 C.3     1  UNL1        0.0304
@<TRIPOS>BOND
     1     3     7    1
     2     6     8    1
     3     8     9   am
     4     8    10    2
     5     9    11    1
     6     9    12    1
     7    11    13    2
     8    13    14    1
     9    14    15    1
    10    15    16    2
    11    16    17    1
    12     1     2   ar
    13     2     3   ar
    14     3     4   ar
    15     4     5   ar
    16     5     6   ar
    17     6     1   ar
