@<TRIPOS>MOLECULE
No_4581-gen_results/8p0m/2024-11-26-14-13-15/
 27 29 0 0 0
SMALL
GASTEIGER

@<TRIPOS>ATOM
      1 C         -28.0162   -0.8135   28.8779 C.ar    1  UNL1        0.0066
      2 C         -28.4690   -0.7850   29.8287 C.ar    1  UNL1        0.0797
      3 C         -27.1356    0.2359   28.5352 C.ar    1  UNL1        0.0023
      4 C         -26.8745    1.2825   29.3982 C.ar    1  UNL1        0.0039
      5 C         -28.3613    0.1987   30.9244 C.ar    1  UNL1        0.0104
      6 C         -27.5277    1.2234   30.6356 C.ar    1  UNL1        0.0716
      7 C         -26.3987    0.2949   27.2279 C.ar    1  UNL1        0.0275
      8 C         -26.9022    0.7280   26.2134 C.ar    1  UNL1        0.1401
      9 C         -26.1747    0.6364   24.9259 C.ar    1  UNL1        0.0296
     10 C         -24.9912    0.4116   27.2698 C.ar    1  UNL1        0.0030
     11 C         -24.1911    0.5659   26.1774 C.ar    1  UNL1        0.0002
     12 C         -24.8392    0.6873   24.9353 C.ar    1  UNL1        0.0023
     13 F         -28.2413    0.6167   25.9846 F       1  UNL1       -0.2042
     14 C         -24.2024    0.1773   28.5916 C.ar    1  UNL1        0.0107
     15 C         -23.2470    1.1833   28.9359 C.ar    1  UNL1        0.0576
     16 C         -24.3330   -0.9522   29.3348 C.ar    1  UNL1        0.0008
     17 C         -23.9190   -1.2654   30.2136 C.ar    1  UNL1        0.0001
     18 C         -22.9634   -0.2723   30.9056 C.ar    1  UNL1        0.0009
     19 C         -22.7166    0.9180   30.2207 C.ar    1  UNL1        0.0114
     20 C         -29.4769   -1.9696   30.3110 C.2     1  UNL1        0.3877
     21 O         -30.3713   -2.2054   29.7048 O.co2   1  UNL1       -0.2406
     22 O         -29.3709   -2.3743   31.5612 O.co2   1  UNL1       -0.2406
     23 CL        -22.9323    2.6281   28.1942 Cl      1  UNL1       -0.0822
     24 C         -27.3261    2.3327   31.6288 C.3     1  UNL1        0.4186
     25 F         -27.5321    3.4742   31.3570 F       1  UNL1       -0.1659
     26 F         -25.9807    2.2147   32.0581 F       1  UNL1       -0.1659
     27 F         -27.9776    1.9746   32.8062 F       1  UNL1       -0.1659
@<TRIPOS>BOND
     1     3     7    1
     2     8    13    1
     3    10    14    1
     4     2    20    1
     5    20    21   ar
     6    20    22   ar
     7    15    23    1
     8     6    24    1
     9    24    25    1
    10    24    26    1
    11    24    27    1
    12     1     2   ar
    13     2     5   ar
    14     5     6   ar
    15     6     4   ar
    16     4     3   ar
    17     3     1   ar
    18     7     8   ar
    19     8     9   ar
    20     9    12   ar
    21    12    11   ar
    22    11    10   ar
    23    10     7   ar
    24    14    15   ar
    25    15    19   ar
    26    19    18   ar
    27    18    17   ar
    28    17    16   ar
    29    16    14   ar
