@<TRIPOS>MOLECULE
No_4582-gen_results/8p0m/2024-11-26-14-13-15/
 10 10 0 0 0
SMALL
GASTEIGER

@<TRIPOS>ATOM
      1 C         -28.0162   -0.8135   28.8779 C.ar    1  UNL1        0.0116
      2 C         -27.0636   -0.1189   28.6079 C.ar    1  UNL1        0.0577
      3 C         -26.9287    1.1713   29.0083 C.ar    1  UNL1        0.0116
      4 C         -27.9560    1.7411   29.7840 C.ar    1  UNL1        0.0074
      5 C         -29.0569   -0.3271   29.7466 C.ar    1  UNL1        0.0074
      6 C         -28.9828    0.9722   30.1516 C.ar    1  UNL1        0.0798
      7 CL        -25.7352   -0.7297   27.6631 Cl      1  UNL1       -0.0822
      8 C         -30.0810    1.5109   31.0109 C.2     1  UNL1        0.3878
      9 O         -31.0867    1.2089   31.1750 O.co2   1  UNL1       -0.2406
     10 O         -29.6217    2.6234   31.6920 O.co2   1  UNL1       -0.2406
@<TRIPOS>BOND
     1     2     7    1
     2     6     8    1
     3     8     9   ar
     4     8    10   ar
     5     1     2   ar
     6     2     3   ar
     7     3     4   ar
     8     4     6   ar
     9     6     5   ar
    10     5     1   ar
