@<TRIPOS>MOLECULE
No_4583-gen_results/8p0m/2024-11-26-14-13-15/
 35 38 0 0 0
SMALL
GASTEIGER

@<TRIPOS>ATOM
      1 C         -28.0162   -0.8135   28.8779 C.ar    1  UNL1        0.0064
      2 C         -28.4690   -0.7850   29.8287 C.ar    1  UNL1        0.0757
      3 C         -26.5455   -0.8762   28.8500 C.ar    1  UNL1        0.0003
      4 C         -25.8041   -1.0324   30.0571 C.ar    1  UNL1        0.0015
      5 C         -27.9437   -0.9869   31.2075 C.ar    1  UNL1        0.0064
      6 C         -26.5825   -1.0386   31.2231 C.ar    1  UNL1        0.0003
      7 C         -24.3810   -1.1082   30.0855 C.ar    1  UNL1        0.0189
      8 C         -23.6421   -1.1177   29.0487 C.ar    1  UNL1       -0.0012
      9 C         -22.4003   -0.5056   29.0274 C.ar    1  UNL1       -0.0030
     10 C         -21.6769   -0.1194   27.8941 C.3     1  UNL1        0.0279
     11 C         -20.4363    0.6920   28.3289 C.3     1  UNL1        0.0051
     12 C         -30.0892   -0.6839   29.8943 C.2     1  UNL1        0.3415
     13 O         -30.6890   -1.6630   30.1657 O.2     1  UNL1       -0.2449
     14 O         -30.6139    0.4240   29.5987 O.3     1  UNL1       -0.4404
     15 C         -23.6862   -1.1406   31.3923 C.ar    1  UNL1        0.0988
     16 N         -22.7734   -0.6706   31.5481 N.ar    1  UNL1       -0.2426
     17 C         -21.8518   -0.2263   30.4557 C.ar    1  UNL1        0.0946
     18 C         -31.8640    0.6014   29.1716 C.3     1  UNL1        0.2362
     19 C         -32.1419    0.4681   27.9025 C.ar    1  UNL1        0.0316
     20 C         -33.1247   -0.1206   27.4736 C.ar    1  UNL1        0.0001
     21 C         -31.1824    0.9481   26.8912 C.ar    1  UNL1        0.0541
     22 C         -31.3473    0.7170   25.5374 C.ar    1  UNL1        0.0012
     23 C         -33.4316   -0.3866   26.0427 C.ar    1  UNL1       -0.0004
     24 C         -32.5250    0.0832   25.1260 C.ar    1  UNL1       -0.0025
     25 CL        -29.7349    1.8166   27.2852 Cl      1  UNL1       -0.0828
     26 C         -30.3966    1.1865   24.5219 C.3     1  UNL1        0.1031
     27 C         -29.0567    0.9523   24.8441 C.1     1  UNL1       -0.0859
     28 C         -28.1005    0.7499   24.6073 C.1     1  UNL1       -0.0859
     29 C         -26.6676    0.4372   24.8309 C.3     1  UNL1        0.1023
     30 C         -25.8782    1.3015   25.5071 C.ar    1  UNL1       -0.0092
     31 C         -24.4162    0.9344   25.6308 C.ar    1  UNL1       -0.0033
     32 C         -23.5715    1.8112   26.3685 C.ar    1  UNL1       -0.0003
     33 C         -24.1304    2.9298   27.0543 C.ar    1  UNL1       -0.0000
     34 C         -25.4786    3.2904   26.8804 C.ar    1  UNL1       -0.0003
     35 C         -26.3430    2.4272   26.1927 C.ar    1  UNL1       -0.0033
@<TRIPOS>BOND
     1     4     7    1
     2    10    11    1
     3     2    12    1
     4    12    13    2
     5    12    14    1
     6    14    18    1
     7    18    19    1
     8    21    25    1
     9    22    26    1
    10    26    27    1
    11    27    28    3
    12    28    29    1
    13    10     9    1
    14    29    30    1
    15    19    20   ar
    16    20    23   ar
    17    23    24   ar
    18    24    22   ar
    19    22    21   ar
    20    21    19   ar
    21     7     8   ar
    22     8     9   ar
    23     9    17   ar
    24    17    16   ar
    25    16    15   ar
    26    15     7   ar
    27     1     2   ar
    28     2     5   ar
    29     5     6   ar
    30     6     4   ar
    31     4     3   ar
    32     3     1   ar
    33    30    31   ar
    34    31    32   ar
    35    32    33   ar
    36    33    34   ar
    37    34    35   ar
    38    35    30   ar
