@<TRIPOS>MOLECULE
No_4584-gen_results/8p0m/2024-11-26-14-13-15/
 17 18 0 0 0
SMALL
GASTEIGER

@<TRIPOS>ATOM
      1 O         -28.1229   -1.3353   28.4874 O.2     1  UNL1       -0.2730
      2 C         -27.0637   -0.8242   28.8687 C.2     1  UNL1        0.2450
      3 N         -25.9773   -1.1378   28.8137 N.am    1  UNL1       -0.2046
      4 C         -24.7669   -0.3464   29.1634 C.3     1  UNL1        0.1264
      5 C         -27.1684    0.7551   29.2892 C.3     1  UNL1        0.1010
      6 C         -24.9442    0.9296   29.5403 C.3     1  UNL1        0.1258
      7 C         -23.7270    1.8024   29.7846 C.2     1  UNL1        0.3661
      8 C         -26.1544    1.5605   29.5880 C.3     1  UNL1        0.0266
      9 O         -23.8309    2.7883   30.3667 O.co2   1  UNL1       -0.2456
     10 O         -22.5865    1.6125   29.0482 O.co2   1  UNL1       -0.2456
     11 C         -28.6115    1.1801   29.3622 C.ar    1  UNL1       -0.0137
     12 C         -29.1966    1.1000   30.3238 C.ar    1  UNL1       -0.0015
     13 C         -30.5767    1.6022   30.4894 C.ar    1  UNL1        0.0293
     14 C         -29.1587    1.7047   28.1632 C.ar    1  UNL1       -0.0015
     15 C         -30.4425    2.2239   28.1539 C.ar    1  UNL1        0.0293
     16 C         -31.1462    2.1751   29.3788 C.ar    1  UNL1        0.1401
     17 F         -32.3758    2.6821   29.4041 F       1  UNL1       -0.2042
@<TRIPOS>BOND
     1     1     2    2
     2     2     3   am
     3     3     4    1
     4     2     5    1
     5     4     6    1
     6     6     7    1
     7     6     8    1
     8     7     9   ar
     9     7    10   ar
    10     5    11    1
    11    16    17    1
    12     8     5    1
    13    11    12   ar
    14    12    13   ar
    15    13    16   ar
    16    16    15   ar
    17    15    14   ar
    18    14    11   ar
