@<TRIPOS>MOLECULE
No_4585-gen_results/8p0m/2024-11-26-14-13-15/
 10 10 0 0 0
SMALL
GASTEIGER

@<TRIPOS>ATOM
      1 C         -28.0162   -0.8135   28.8779 C.ar    1  UNL1        0.0002
      2 C         -28.4690   -0.7850   29.8287 C.ar    1  UNL1        0.0000
      3 C         -26.5455   -0.8762   28.8500 C.ar    1  UNL1        0.0048
      4 C         -25.8041   -1.0324   30.0571 C.ar    1  UNL1        0.0575
      5 C         -26.5373   -1.0386   31.2171 C.ar    1  UNL1        0.0048
      6 C         -27.8843   -0.9532   31.1862 C.ar    1  UNL1        0.0002
      7 C         -24.3555   -1.1121   30.0346 C.2     1  UNL1        0.2749
      8 N         -23.6817   -1.3179   29.1136 N.2     1  UNL1       -0.2319
      9 O         -23.7106   -0.9557   31.1995 O.2     1  UNL1       -0.2656
     10 C         -22.1628   -1.2762   29.0461 C.3     1  UNL1        0.1551
@<TRIPOS>BOND
     1     4     7    1
     2     7     8    2
     3     7     9    1
     4     8    10    1
     5     1     2   ar
     6     2     6   ar
     7     6     5   ar
     8     5     4   ar
     9     4     3   ar
    10     3     1   ar
