@<TRIPOS>MOLECULE
No_4586-gen_results/8p0m/2024-11-26-14-13-15/
 11 12 0 0 0
SMALL
GASTEIGER

@<TRIPOS>ATOM
      1 C         -28.0162   -0.8135   28.8779 C.ar    1  UNL1       -0.0000
      2 C         -28.4690   -0.7850   29.8287 C.ar    1  UNL1       -0.0000
      3 C         -26.5455   -0.8762   28.8500 C.ar    1  UNL1       -0.0003
      4 C         -25.8041   -1.0324   30.0571 C.ar    1  UNL1       -0.0036
      5 C         -26.5373   -1.0386   31.2171 C.ar    1  UNL1       -0.0003
      6 C         -27.8843   -0.9532   31.1862 C.ar    1  UNL1       -0.0000
      7 C         -24.3655   -1.1134   30.0483 C.2     1  UNL1       -0.0178
      8 C         -23.7447   -1.3690   30.8125 C.2     1  UNL1       -0.0043
      9 C         -22.2072   -1.2504   30.8577 C.2     1  UNL1       -0.0045
     10 C         -21.8525   -0.5709   29.6725 C.2     1  UNL1       -0.0214
     11 C         -23.5951   -0.4908   28.8849 C.3     1  UNL1        0.0523
@<TRIPOS>BOND
     1     4     7    1
     2     7     8    2
     3     8     9    1
     4     9    10    2
     5     7    11    1
     6    10    11    1
     7     1     2   ar
     8     2     6   ar
     9     6     5   ar
    10     5     4   ar
    11     4     3   ar
    12     3     1   ar
