@<TRIPOS>MOLECULE
No_4587-gen_results/8p0m/2024-11-26-14-13-15/
 20 22 0 0 0
SMALL
GASTEIGER

@<TRIPOS>ATOM
      1 F         -28.0727   -1.2542   28.5316 F       1  UNL1       -0.2010
      2 C         -27.0607   -0.6291   28.8721 C.ar    1  UNL1        0.1738
      3 C         -26.3579   -0.0710   28.0115 C.ar    1  UNL1        0.1662
      4 C         -25.0715    0.5531   28.2555 C.ar    1  UNL1        0.0371
      5 C         -24.5772    0.4803   29.5696 C.ar    1  UNL1        0.0031
      6 C         -25.3317   -0.2027   30.5060 C.ar    1  UNL1        0.0025
      7 C         -26.4956   -0.7357   30.1606 C.ar    1  UNL1        0.0328
      8 C         -24.2571    1.2519   27.2615 C.ar    1  UNL1        0.0145
      9 C         -22.9100    1.4905   27.5343 C.ar    1  UNL1        0.0578
     10 C         -22.4184    1.2964   28.8818 C.ar    1  UNL1        0.0114
     11 C         -23.1962    0.8949   29.8319 C.ar    1  UNL1        0.0010
     12 CL        -21.9535    2.3137   26.3693 Cl      1  UNL1       -0.0822
     13 O         -26.7436    0.0230   26.7093 O.3     1  UNL1       -0.4684
     14 C         -27.8084    0.7128   26.3056 C.3     1  UNL1        0.2321
     15 C         -28.2632    0.4321   25.0707 C.ar    1  UNL1        0.0212
     16 C         -27.7117   -0.6747   24.3757 C.ar    1  UNL1       -0.0007
     17 C         -28.4143   -1.1565   23.1843 C.ar    1  UNL1       -0.0002
     18 C         -29.7700   -0.6743   23.1054 C.ar    1  UNL1       -0.0000
     19 C         -30.3754    0.2977   23.8433 C.ar    1  UNL1       -0.0002
     20 C         -29.6036    0.8692   24.7530 C.ar    1  UNL1       -0.0007
@<TRIPOS>BOND
     1     1     2    1
     2     9    12    1
     3     3    13    1
     4    13    14    1
     5    14    15    1
     6    15    16   ar
     7    16    17   ar
     8    17    18   ar
     9    18    19   ar
    10    19    20   ar
    11    20    15   ar
    12     2     3   ar
    13     3     4   ar
    14     5     6   ar
    15     6     7   ar
    16     7     2   ar
    17     4     5   ar
    18     5    11   ar
    19    11    10   ar
    20    10     9   ar
    21     9     8   ar
    22     8     4   ar
