@<TRIPOS>MOLECULE
No_4589-gen_results/8p0m/2024-11-26-14-13-15/
 31 35 0 0 0
SMALL
GASTEIGER

@<TRIPOS>ATOM
      1 C         -28.0162   -0.8135   28.8779 C.ar    1  UNL1        0.0111
      2 C         -28.4690   -0.7850   29.8287 C.ar    1  UNL1        0.0008
      3 C         -26.5042   -0.7777   28.8766 C.ar    1  UNL1        0.0540
      4 C         -25.8103   -0.8531   30.1028 C.ar    1  UNL1       -0.0074
      5 C         -27.9906   -0.8916   31.2257 C.ar    1  UNL1       -0.0003
      6 C         -26.6042   -0.8676   31.2652 C.ar    1  UNL1       -0.0031
      7 C         -30.0417   -0.7687   29.6526 C.ar    1  UNL1        0.0002
      8 C         -30.7229    0.3514   30.1471 C.ar    1  UNL1        0.0000
      9 C         -32.0933    0.4139   29.9602 C.ar    1  UNL1        0.0002
     10 C         -32.7231   -0.6870   29.3274 C.ar    1  UNL1        0.0064
     11 C         -32.0351   -1.7654   28.8972 C.ar    1  UNL1        0.0798
     12 C         -30.6814   -1.8360   29.1337 C.ar    1  UNL1        0.0066
     13 C         -32.6600   -2.9171   28.2490 C.2     1  UNL1        0.3878
     14 O         -33.8552   -3.1473   28.5739 O.co2   1  UNL1       -0.2406
     15 O         -32.0653   -3.6578   27.4289 O.co2   1  UNL1       -0.2406
     16 C         -24.3798   -0.8218   30.1311 C.3     1  UNL1        0.0525
     17 C         -23.8222    0.5160   30.0427 C.2     1  UNL1        0.0015
     18 C         -24.1780    1.4999   30.6013 C.2     1  UNL1        0.0154
     19 C         -23.6566    2.8526   30.2525 C.2     1  UNL1        0.0947
     20 N         -22.8458    2.6870   29.2316 N.2     1  UNL1       -0.2474
     21 C         -22.8159    0.9623   29.0313 C.3     1  UNL1        0.2122
     22 CL        -25.6266   -0.6580   27.4203 Cl      1  UNL1       -0.0826
     23 N         -22.1773    0.4055   28.1231 N.3     1  UNL1       -0.1015
     24 C         -32.8528    1.5869   30.3973 C.ar    1  UNL1        0.0000
     25 C         -33.8332    1.9615   30.0281 C.ar    1  UNL1        0.0000
     26 C         -34.5446    2.9344   30.2693 C.ar    1  UNL1        0.0000
     27 C         -35.8522    3.3257   29.7393 C.ar    1  UNL1        0.0000
     28 C         -36.3160    2.4004   28.8013 C.ar    1  UNL1        0.0000
     29 C         -35.6754    1.3109   28.4413 C.ar    1  UNL1        0.0000
     30 C         -34.5484    1.0666   28.9727 C.ar    1  UNL1        0.0000
     31 C         -33.8226   -0.2221   28.6948 C.ar    1  UNL1        0.0002
@<TRIPOS>BOND
     1     2     7    1
     2    11    13    1
     3    13    14   ar
     4    13    15   ar
     5     4    16    1
     6    16    17    1
     7    17    18    2
     8    18    19    1
     9    19    20    2
    10    17    21    1
    11    20    21    1
    12     3    22    1
    13    21    23    1
    14    25    26   ar
    15    26    27   ar
    16    27    28   ar
    17    28    29   ar
    18    29    30   ar
    19     1     2   ar
    20     2     5   ar
    21     5     6   ar
    22     6     4   ar
    23     4     3   ar
    24     3     1   ar
    25     7     8   ar
    26     8     9   ar
    27    10    11   ar
    28    11    12   ar
    29    12     7   ar
    30     9    10   ar
    31    10    31   ar
    32    31    30   ar
    33    30    25   ar
    34    25    24   ar
    35    24     9   ar
