@<TRIPOS>MOLECULE
No_4590-gen_results/8p0m/2024-11-26-14-13-15/
 21 23 0 0 0
SMALL
GASTEIGER

@<TRIPOS>ATOM
      1 C         -28.0162   -0.8135   28.8779 C.ar    1  UNL1        0.0131
      2 C         -28.4690   -0.7850   29.8287 C.ar    1  UNL1        0.0481
      3 C         -26.5042   -0.7777   28.8766 C.ar    1  UNL1       -0.0012
      4 C         -25.6540   -0.6597   27.7191 C.ar    1  UNL1       -0.0005
      5 C         -29.9920   -0.8134   29.9579 C.ar    1  UNL1        0.0145
      6 C         -24.2351   -0.6218   27.9719 C.ar    1  UNL1       -0.0026
      7 C         -23.7091   -0.7791   29.2532 C.ar    1  UNL1       -0.0009
      8 C         -24.4887   -0.9098   30.3453 C.ar    1  UNL1       -0.0052
      9 C         -25.8453   -0.9368   30.1856 C.ar    1  UNL1       -0.0026
     10 C         -30.5519   -0.7287   28.7598 C.ar    1  UNL1        0.0013
     11 C         -29.8995   -0.4607   27.6168 C.ar    1  UNL1        0.0001
     12 C         -28.5596   -0.4031   27.6449 C.ar    1  UNL1        0.0012
     13 N         -27.8765   -1.0692   31.1506 N.pl3   1  UNL1       -0.3018
     14 C         -26.7085   -1.0534   31.2899 C.3     1  UNL1        0.1177
     15 C         -28.7877   -1.2295   32.4069 C.3     1  UNL1        0.1125
     16 C         -22.1843   -0.7324   29.3586 C.3     1  UNL1        0.1387
     17 N         -21.4332   -0.0547   28.5147 N.pl3   1  UNL1       -0.2270
     18 C         -21.7985    1.1743   28.0471 C.2     1  UNL1        0.1409
     19 C         -22.7513    2.0274   28.7227 C.2     1  UNL1        0.2948
     20 F         -23.8665    1.6651   28.4803 F       1  UNL1       -0.1706
     21 F         -22.4835    3.0096   29.3323 F       1  UNL1       -0.1706
@<TRIPOS>BOND
     1     2    13    1
     2     9    14    1
     3    13    14    1
     4    13    15    1
     5     7    16    1
     6    16    17    1
     7    17    18    1
     8    18    19    2
     9    19    20    1
    10    19    21    1
    11     1     3    1
    12     3     4   ar
    13     4     6   ar
    14     6     7   ar
    15     7     8   ar
    16     8     9   ar
    17     9     3   ar
    18     1     2   ar
    19     2     5   ar
    20     5    10   ar
    21    10    11   ar
    22    11    12   ar
    23    12     1   ar
