@<TRIPOS>MOLECULE
No_4591-gen_results/8p0m/2024-11-26-14-13-15/
 16 17 0 0 0
SMALL
GASTEIGER

@<TRIPOS>ATOM
      1 C         -28.0162   -0.8135   28.8779 C.3     1  UNL1        0.0991
      2 C         -27.0636   -0.1190   28.6079 C.ar    1  UNL1       -0.0061
      3 C         -25.7923   -0.4302   29.0761 C.ar    1  UNL1       -0.0021
      4 C         -24.5456    0.3494   28.8225 C.ar    1  UNL1        0.0103
      5 C         -24.6586    1.4196   27.8878 C.ar    1  UNL1        0.0576
      6 C         -25.9471    1.6811   27.3792 C.ar    1  UNL1        0.0111
      7 C         -27.0439    0.9739   27.6871 C.ar    1  UNL1       -0.0021
      8 N         -28.6567   -0.5529   30.0960 N.3     1  UNL1       -0.2690
      9 C         -29.6293   -1.2869   30.6343 C.3     1  UNL1        0.0724
     10 C         -30.1544   -0.9011   31.9004 C.3     1  UNL1        0.0174
     11 C         -28.2410    0.5095   30.9664 C.3     1  UNL1        0.0724
     12 C         -28.7266    0.8599   32.1335 C.3     1  UNL1        0.0174
     13 C         -29.7106    0.1338   32.6449 C.3     1  UNL1        0.0029
     14 CL        -23.2643    2.2775   27.5006 Cl      1  UNL1       -0.0822
     15 C         -23.1368    0.0548   29.1931 C.2     1  UNL1        0.0008
     16 C         -22.0603    0.1791   28.5749 C.2     1  UNL1        0.0000
@<TRIPOS>BOND
     1     1     2    1
     2     1     8    1
     3     8     9    1
     4     8    11    1
     5    10    13    1
     6    12    13    1
     7     5    14    1
     8     4    15    1
     9    15    16    2
    10     9    10    1
    11    12    11    1
    12     2     3   ar
    13     3     4   ar
    14     4     5   ar
    15     5     6   ar
    16     6     7   ar
    17     7     2   ar
