@<TRIPOS>MOLECULE
No_4592-gen_results/8p0m/2024-11-26-14-13-15/
 26 27 0 0 0
SMALL
GASTEIGER

@<TRIPOS>ATOM
      1 C         -28.0162   -0.8135   28.8779 C.2     1  UNL1        0.2690
      2 C         -27.0636   -0.1190   28.6079 C.ar    1  UNL1        0.0554
      3 C         -27.0010    0.6913   27.4910 C.ar    1  UNL1        0.0047
      4 C         -25.8548    1.4825   27.0830 C.ar    1  UNL1        0.0048
      5 C         -24.6901    1.4526   27.8807 C.ar    1  UNL1        0.0567
      6 C         -24.7379    0.6010   29.0416 C.ar    1  UNL1        0.0048
      7 C         -25.8234   -0.1688   29.3887 C.ar    1  UNL1        0.0047
      8 N         -29.2150   -0.1726   29.0132 N.am    1  UNL1       -0.1753
      9 C         -30.2463   -0.7736   29.6388 C.ar    1  UNL1        0.0781
     10 C         -23.5190    2.2034   27.5550 C.2     1  UNL1        0.2842
     11 N         -22.5145    2.1984   28.3585 N.am    1  UNL1       -0.0837
     12 O         -23.4844    2.8071   26.4255 O.2     1  UNL1       -0.2667
     13 C         -31.5424   -0.4932   29.2554 C.ar    1  UNL1        0.0707
     14 C         -30.0132   -0.8692   31.0943 C.ar    1  UNL1        0.0168
     15 C         -31.0208   -1.5374   31.8940 C.ar    1  UNL1        0.0013
     16 C         -32.6038   -1.1395   30.0965 C.ar    1  UNL1        0.0059
     17 C         -32.3563   -1.3546   31.4335 C.ar    1  UNL1        0.0002
     18 O         -27.9483   -1.9185   29.4207 O.2     1  UNL1       -0.2680
     19 C         -31.8839   -0.1866   27.9251 C.2     1  UNL1        0.2703
     20 O         -32.4423   -0.8851   27.1126 O.2     1  UNL1       -0.2680
     21 N         -31.0858    0.9422   27.3747 N.am    1  UNL1       -0.1741
     22 C         -31.3146    1.3470   26.0180 C.2     1  UNL1        0.0889
     23 C         -30.4648    2.3456   25.7577 C.2     1  UNL1        0.0176
     24 C         -29.5562    2.2367   24.6507 C.2     1  UNL1       -0.0032
     25 C         -28.6069    3.3472   24.4573 C.2     1  UNL1       -0.0257
     26 C         -28.5379    4.3989   25.3181 C.3     1  UNL1        0.0307
@<TRIPOS>BOND
     1     1     2    1
     2     1     8   am
     3     8     9    1
     4     5    10    1
     5    10    11   am
     6    10    12    2
     7     1    18    2
     8    13    19    1
     9    19    20    2
    10    19    21   am
    11    21    22    1
    12    22    23    2
    13    23    24    1
    14    24    25    2
    15    25    26    1
    16     2     3   ar
    17     3     4   ar
    18     4     5   ar
    19     5     6   ar
    20     6     7   ar
    21     7     2   ar
    22     9    13   ar
    23    13    16   ar
    24    16    17   ar
    25    17    15   ar
    26    15    14   ar
    27    14     9   ar
