@<TRIPOS>MOLECULE
No_4594-gen_results/8p0m/2024-11-26-14-13-15/
 26 27 0 0 0
SMALL
GASTEIGER

@<TRIPOS>ATOM
      1 C         -28.0162   -0.8135   28.8779 C.3     1  UNL1        0.0952
      2 C         -27.0636   -0.1189   28.6079 C.ar    1  UNL1       -0.0103
      3 C         -26.9716    0.7139   27.5060 C.ar    1  UNL1        0.0503
      4 C         -25.8205    1.4909   27.1160 C.ar    1  UNL1        0.0081
      5 C         -24.6562    1.4242   27.9180 C.ar    1  UNL1        0.0715
      6 C         -24.6847    0.5901   29.0659 C.ar    1  UNL1        0.0035
      7 C         -25.8099   -0.1265   29.3338 C.ar    1  UNL1       -0.0038
      8 C         -28.6943   -0.4734   30.1587 C.2     1  UNL1        0.2031
      9 C         -29.7865   -1.3251   30.6371 C.3     1  UNL1        0.2965
     10 C         -23.4524    2.1889   27.6083 C.3     1  UNL1        0.4186
     11 F         -22.7872    2.4955   28.6308 F       1  UNL1       -0.1659
     12 F         -23.7148    3.2595   26.9263 F       1  UNL1       -0.1659
     13 F         -22.5907    1.4225   26.7802 F       1  UNL1       -0.1659
     14 O         -28.3493    0.5038   30.8986 O.2     1  UNL1       -0.2915
     15 CL        -30.5487   -0.8630   31.6103 Cl      1  UNL1       -0.0691
     16 F         -29.9310   -2.3556   29.9692 F       1  UNL1       -0.2111
     17 C         -28.1172    0.8950   26.5998 C.2     1  UNL1        0.2525
     18 O         -29.0749    1.4527   26.9351 O.2     1  UNL1       -0.2696
     19 N         -28.0826    0.3328   25.3789 N.am    1  UNL1       -0.2534
     20 C         -29.1512    0.2958   24.4253 C.ar    1  UNL1        0.0542
     21 C         -26.8216    0.1237   24.6355 C.3     1  UNL1        0.1203
     22 C         -30.2945   -0.2127   24.9363 C.ar    1  UNL1        0.0149
     23 C         -31.4401   -0.2394   24.1793 C.ar    1  UNL1        0.0013
     24 C         -31.4505    0.4768   22.9539 C.ar    1  UNL1        0.0001
     25 C         -30.3456    1.2161   22.6383 C.ar    1  UNL1        0.0013
     26 C         -29.1526    1.1802   23.3918 C.ar    1  UNL1        0.0149
@<TRIPOS>BOND
     1     1     8    1
     2     8     9    1
     3     5    10    1
     4    10    11    1
     5    10    12    1
     6    10    13    1
     7     8    14    2
     8     9    15    1
     9     9    16    1
    10     3    17    1
    11    17    18    2
    12    17    19   am
    13    19    20    1
    14    19    21    1
    15     1     2    1
    16     2     3   ar
    17     3     4   ar
    18     4     5   ar
    19     5     6   ar
    20     6     7   ar
    21     7     2   ar
    22    20    22   ar
    23    22    23   ar
    24    23    24   ar
    25    24    25   ar
    26    25    26   ar
    27    26    20   ar
