@<TRIPOS>MOLECULE
No_4595-gen_results/8p0m/2024-11-26-14-13-15/
 32 35 0 0 0
SMALL
GASTEIGER

@<TRIPOS>ATOM
      1 C         -28.0162   -0.8135   28.8779 C.ar    1  UNL1        0.1754
      2 C         -27.0636   -0.1189   28.6079 C.ar    1  UNL1        0.0199
      3 C         -25.7923   -0.4302   29.0761 C.ar    1  UNL1       -0.0005
      4 C         -25.5756   -1.5654   29.9363 C.ar    1  UNL1        0.0030
      5 C         -26.7354   -2.3004   30.2173 C.ar    1  UNL1        0.0401
      6 C         -27.9184   -1.9537   29.7629 C.ar    1  UNL1        0.1733
      7 O         -29.0001   -2.7012   30.1151 O.3     1  UNL1       -0.4606
      8 C         -24.5290    0.3490   28.7998 C.ar    1  UNL1       -0.0002
      9 C         -24.4808    1.2113   27.7998 C.ar    1  UNL1       -0.0000
     10 C         -23.2478    1.8974   27.4951 C.ar    1  UNL1       -0.0000
     11 C         -22.0497    1.5890   28.1642 C.ar    1  UNL1       -0.0000
     12 C         -23.3072    0.0149   29.4618 C.ar    1  UNL1       -0.0000
     13 C         -22.0852    0.6899   29.1374 C.ar    1  UNL1       -0.0000
     14 C         -28.8808   -3.9653   30.6064 C.3     1  UNL1        0.3187
     15 C         -30.1311   -4.6678   30.7784 C.2     1  UNL1        0.4084
     16 O         -30.0054   -5.6880   31.4187 O.co2   1  UNL1       -0.2415
     17 O         -31.2065   -4.1712   30.5873 O.co2   1  UNL1       -0.2415
     18 O         -29.2699   -0.5225   28.4616 O.3     1  UNL1       -0.4480
     19 C         -29.5330    0.4087   27.5794 C.ar    1  UNL1        0.1759
     20 C         -30.6816    0.3014   26.9086 C.ar    1  UNL1        0.1793
     21 C         -30.9601    1.1478   25.8418 C.ar    1  UNL1        0.0406
     22 C         -29.9532    2.1466   25.4921 C.ar    1  UNL1        0.0030
     23 C         -28.7706    2.2262   26.2257 C.ar    1  UNL1       -0.0007
     24 C         -28.5728    1.3692   27.2151 C.ar    1  UNL1        0.0199
     25 C         -27.2233    1.0921   27.8409 C.3     1  UNL1        0.0590
     26 O         -31.6138   -0.5488   27.2162 O.3     1  UNL1       -0.4473
     27 C         -32.4274   -0.4139   28.2867 C.2     1  UNL1        0.1797
     28 C         -32.9866    0.6180   28.5326 C.2     1  UNL1        0.0407
     29 C         -33.3098    1.0964   29.4451 C.2     1  UNL1        0.0032
     30 C         -33.8639    2.4701   29.7460 C.2     1  UNL1        0.0001
     31 C         -34.1352    3.1580   28.5617 C.2     1  UNL1        0.0000
     32 C         -33.7950    2.6673   27.3770 C.2     1  UNL1        0.0000
@<TRIPOS>BOND
     1     6     7    1
     2     3     8    1
     3     7    14    1
     4    14    15    1
     5    15    16   ar
     6    15    17   ar
     7     1    18    1
     8    18    19    1
     9     2    25    1
    10    24    25    1
    11    20    26    1
    12    26    27    1
    13    27    28    2
    14    28    29    1
    15    29    30    2
    16    30    31    1
    17    31    32    2
    18     1     2   ar
    19     2     3   ar
    20     3     4   ar
    21     4     5   ar
    22     5     6   ar
    23     6     1   ar
    24    19    20   ar
    25    20    21   ar
    26    21    22   ar
    27    22    23   ar
    28    23    24   ar
    29    24    19   ar
    30     8     9   ar
    31     9    10   ar
    32    10    11   ar
    33    11    13   ar
    34    13    12   ar
    35    12     8   ar
