@<TRIPOS>MOLECULE
No_4596-gen_results/8p0m/2024-11-26-14-13-15/
 16 17 0 0 0
SMALL
GASTEIGER

@<TRIPOS>ATOM
      1 O         -28.1229   -1.3353   28.4874 O.2     1  UNL1       -0.2541
      2 C         -27.4806   -0.4044   28.7094 C.2     1  UNL1        0.3334
      3 C         -27.1904    0.2460   29.5268 C.ar    1  UNL1        0.0678
      4 F         -26.7282   -0.1238   27.4073 F       1  UNL1       -0.1586
      5 C         -27.6905    0.2967   30.8292 C.ar    1  UNL1        0.0053
      6 C         -27.3202    1.0931   31.9540 C.ar    1  UNL1       -0.0027
      7 C         -26.2504    2.0573   31.6826 C.ar    1  UNL1       -0.0061
      8 C         -25.6372    2.0737   30.4091 C.ar    1  UNL1       -0.0027
      9 C         -26.0498    1.2082   29.4679 C.ar    1  UNL1        0.0053
     10 C         -25.8008    2.9654   32.7634 C.3     1  UNL1        0.0991
     11 N         -26.2056    4.1954   32.6901 N.3     1  UNL1       -0.2690
     12 C         -25.6902    5.2352   33.3948 C.3     1  UNL1        0.0724
     13 C         -27.2378    4.6024   31.8019 C.3     1  UNL1        0.0724
     14 C         -27.3440    5.6417   31.3073 C.3     1  UNL1        0.0174
     15 C         -25.7874    6.5978   33.0382 C.3     1  UNL1        0.0174
     16 C         -26.7555    6.8317   31.9948 C.3     1  UNL1        0.0029
@<TRIPOS>BOND
     1     1     2    2
     2     2     3    1
     3     2     4    1
     4     7    10    1
     5    10    11    1
     6    11    12    1
     7    11    13    1
     8    14    16    1
     9    15    16    1
    10    12    15    1
    11    14    13    1
    12     3     5   ar
    13     5     6   ar
    14     6     7   ar
    15     7     8   ar
    16     8     9   ar
    17     9     3   ar
