@<TRIPOS>MOLECULE
No_4597-gen_results/8p0m/2024-11-26-14-13-15/
 14 14 0 0 0
SMALL
GASTEIGER

@<TRIPOS>ATOM
      1 CL        -28.1493   -0.8198   28.9079 Cl      1  UNL1       -0.0813
      2 C         -26.9116   -0.0797   28.9452 C.ar    1  UNL1        0.0704
      3 C         -26.7384    1.0439   29.2534 C.ar    1  UNL1        0.0953
      4 C         -25.4392    1.7115   29.2755 C.ar    1  UNL1        0.1508
      5 C         -24.2813    0.9888   28.8542 C.ar    1  UNL1        0.0492
      6 C         -24.4869   -0.3041   28.4957 C.ar    1  UNL1        0.0024
      7 C         -25.7046   -0.8667   28.5244 C.ar    1  UNL1        0.0122
      8 C         -22.8877    1.3961   28.8614 C.3     1  UNL1        0.2492
      9 N         -21.8929    0.6784   28.5425 N.pl3   1  UNL1       -0.0814
     10 C         -21.3829   -0.1268   29.1941 C.cat   1  UNL1        0.5349
     11 N         -21.8657   -0.5930   30.2918 N.pl3   1  UNL1        0.1354
     12 N         -20.2918   -0.8888   28.6930 N.pl3   1  UNL1        0.1354
     13 CL        -28.0086    2.1098   29.8014 Cl      1  UNL1       -0.0790
     14 F         -25.1878    2.9599   29.6822 F       1  UNL1       -0.2035
@<TRIPOS>BOND
     1     1     2    1
     2     5     8    1
     3     8     9    1
     4     9    10    1
     5    10    11    2
     6    10    12    1
     7     3    13    1
     8     4    14    1
     9     2     3   ar
    10     3     4   ar
    11     4     5   ar
    12     5     6   ar
    13     6     7   ar
    14     7     2   ar
