@<TRIPOS>MOLECULE
No_4598-gen_results/8p0m/2024-11-26-14-13-15/
 16 16 0 0 0
SMALL
GASTEIGER

@<TRIPOS>ATOM
      1 C         -28.0162   -0.8135   28.8779 C.ar    1  UNL1        0.0069
      2 C         -27.0636   -0.1189   28.6079 C.ar    1  UNL1        0.0298
      3 C         -25.7923   -0.4302   29.0761 C.ar    1  UNL1        0.1401
      4 C         -25.5756   -1.5654   29.9363 C.ar    1  UNL1        0.0298
      5 C         -26.7354   -2.3004   30.2173 C.ar    1  UNL1        0.0069
      6 C         -27.9184   -1.9537   29.7629 C.ar    1  UNL1        0.0555
      7 C         -29.0732   -2.7835   30.1783 C.2     1  UNL1        0.2690
      8 O         -29.0022   -3.9850   30.2347 O.2     1  UNL1       -0.2680
      9 N         -30.2323   -2.1525   30.4715 N.am    1  UNL1       -0.1741
     10 C         -31.3959   -2.9332   30.8362 C.2     1  UNL1        0.0889
     11 F         -24.6730    0.2826   28.7605 F       1  UNL1       -0.2042
     12 C         -31.4519   -3.6452   31.7920 C.2     1  UNL1        0.0179
     13 C         -30.6110   -3.3383   32.8696 C.2     1  UNL1        0.0014
     14 C         -30.4983   -4.2986   33.9910 C.2     1  UNL1        0.0000
     15 C         -31.2281   -5.4497   33.9172 C.2     1  UNL1        0.0000
     16 C         -32.0242   -5.7360   32.8339 C.2     1  UNL1        0.0000
@<TRIPOS>BOND
     1     6     7    1
     2     7     8    2
     3     7     9   am
     4     9    10    1
     5     3    11    1
     6    10    12    2
     7    12    13    1
     8    13    14    2
     9    14    15    1
    10    15    16    2
    11     1     2   ar
    12     2     3   ar
    13     3     4   ar
    14     4     5   ar
    15     5     6   ar
    16     6     1   ar
