@<TRIPOS>MOLECULE
No_4599-gen_results/8p0m/2024-11-26-14-13-15/
 35 36 0 0 0
SMALL
GASTEIGER

@<TRIPOS>ATOM
      1 C         -28.0162   -0.8135   28.8779 C.2     1  UNL1        0.2495
      2 C         -27.0636   -0.1190   28.6079 C.ar    1  UNL1        0.0536
      3 C         -26.9287    1.1713   29.0083 C.ar    1  UNL1        0.0047
      4 C         -25.7702    2.0341   28.6884 C.ar    1  UNL1        0.0067
      5 C         -24.7141    1.4431   27.9188 C.ar    1  UNL1        0.0798
      6 C         -24.8590    0.0783   27.5836 C.ar    1  UNL1        0.0067
      7 C         -25.9647   -0.6606   27.9164 C.ar    1  UNL1        0.0047
      8 N         -27.9821   -1.6367   30.0748 N.am    1  UNL1       -0.2644
      9 O         -29.2163   -0.4132   28.6627 O.2     1  UNL1       -0.2699
     10 C         -26.7315   -2.0678   30.6432 C.3     1  UNL1        0.1157
     11 C         -29.1005   -2.4113   30.5218 C.3     1  UNL1        0.2043
     12 C         -23.5128    2.1515   27.5474 C.2     1  UNL1        0.3878
     13 O         -22.4892    1.8528   27.3586 O.co2   1  UNL1       -0.2406
     14 O         -23.8426    3.4887   27.2670 O.co2   1  UNL1       -0.2406
     15 C         -28.9942   -3.7704   30.4789 C.2     1  UNL1        0.3380
     16 O         -29.8939   -4.4428   30.9271 O.3     1  UNL1       -0.4371
     17 O         -28.0480   -4.3652   29.7580 O.2     1  UNL1       -0.2482
     18 C         -30.2420   -5.7043   30.5500 C.3     1  UNL1        0.2942
     19 C         -31.2626   -5.6249   29.4434 C.2     1  UNL1        0.2865
     20 O         -31.2369   -6.5789   28.6581 O.2     1  UNL1       -0.2693
     21 N         -31.9172   -4.5581   29.1487 N.am    1  UNL1       -0.1950
     22 C         -32.7282   -4.3968   27.9981 C.3     1  UNL1        0.1393
     23 C         -32.3874   -3.2334   27.2916 C.ar    1  UNL1        0.0015
     24 C         -32.5588   -3.0822   25.9311 C.ar    1  UNL1       -0.0024
     25 C         -32.0841   -2.0012   25.1701 C.ar    1  UNL1        0.0036
     26 C         -31.4958   -0.9364   25.7758 C.ar    1  UNL1        0.0714
     27 C         -31.5656   -0.9947   27.2036 C.ar    1  UNL1        0.0036
     28 C         -31.8588   -2.0520   27.8968 C.ar    1  UNL1       -0.0024
     29 C         -31.0633    0.2208   25.0350 C.3     1  UNL1        0.4186
     30 F         -30.9165    1.0438   25.5866 F       1  UNL1       -0.1659
     31 F         -31.9249    0.4097   24.0111 F       1  UNL1       -0.1659
     32 F         -29.8784   -0.2539   24.3838 F       1  UNL1       -0.1659
     33 C         -34.1391   -4.4012   28.4321 C.2     1  UNL1       -0.0051
     34 C         -34.7307   -5.1699   28.8156 C.2     1  UNL1       -0.0283
     35 C         -36.1488   -5.1175   29.2396 C.3     1  UNL1        0.0304
@<TRIPOS>BOND
     1     1     2    1
     2     1     8   am
     3     1     9    2
     4     8    10    1
     5     8    11    1
     6     5    12    1
     7    12    13   ar
     8    12    14   ar
     9    11    15    1
    10    15    16    1
    11    15    17    2
    12    16    18    1
    13    18    19    1
    14    19    20    2
    15    19    21   am
    16    21    22    1
    17    22    23    1
    18    26    29    1
    19    29    30    1
    20    29    31    1
    21    29    32    1
    22    22    33    1
    23    33    34    2
    24    34    35    1
    25     2     3   ar
    26     3     4   ar
    27     4     5   ar
    28     5     6   ar
    29     6     7   ar
    30     7     2   ar
    31    23    24   ar
    32    24    25   ar
    33    25    26   ar
    34    26    27   ar
    35    27    28   ar
    36    28    23   ar
