@<TRIPOS>MOLECULE
No_46-gen_results/8p0m/2024-11-26-14-13-15/
 19 20 0 0 0
SMALL
GASTEIGER

@<TRIPOS>ATOM
      1 C         -28.0162   -0.8135   28.8779 C.ar    1  UNL1        0.0998
      2 CL        -26.9857   -0.3274   28.4842 Cl      1  UNL1       -0.0788
      3 C         -29.2685    0.0525   28.7317 C.ar    1  UNL1        0.0214
      4 C         -30.4028   -0.3544   29.3643 C.ar    1  UNL1        0.0838
      5 C         -30.4561   -1.5809   30.1089 C.ar    1  UNL1        0.0469
      6 C         -29.3204   -2.3417   30.3186 C.ar    1  UNL1        0.1788
      7 C         -28.1306   -1.9251   29.7665 C.ar    1  UNL1        0.2397
      8 O         -27.0159   -2.6580   29.9756 O.3     1  UNL1       -0.2824
      9 O         -29.3806   -3.4824   31.0829 O.3     1  UNL1       -0.4674
     10 C         -31.6530    0.4020   29.1467 C.2     1  UNL1        0.3879
     11 O         -32.3007    0.4210   28.2790 O.co2   1  UNL1       -0.2406
     12 O         -31.9602    1.1251   30.2763 O.co2   1  UNL1       -0.2406
     13 C         -29.3162   -4.6548   30.4312 C.3     1  UNL1        0.2321
     14 C         -30.4930   -5.4869   30.6703 C.ar    1  UNL1        0.0212
     15 C         -30.6262   -6.0220   31.8710 C.ar    1  UNL1       -0.0007
     16 C         -31.6583   -6.9498   32.0990 C.ar    1  UNL1       -0.0002
     17 C         -32.4590   -7.3078   31.0052 C.ar    1  UNL1       -0.0000
     18 C         -32.2292   -6.8380   29.7469 C.ar    1  UNL1       -0.0002
     19 C         -31.1564   -5.9427   29.5660 C.ar    1  UNL1       -0.0007
@<TRIPOS>BOND
     1     1     2    1
     2     7     8    1
     3     6     9    1
     4     4    10    1
     5    10    11   ar
     6    10    12   ar
     7     9    13    1
     8    13    14    1
     9    14    15   ar
    10    15    16   ar
    11    16    17   ar
    12    17    18   ar
    13    18    19   ar
    14    19    14   ar
    15     1     3   ar
    16     3     4   ar
    17     4     5   ar
    18     5     6   ar
    19     6     7   ar
    20     7     1   ar
