@<TRIPOS>MOLECULE
No_4600-gen_results/8p0m/2024-11-26-14-13-15/
 14 14 0 0 0
SMALL
GASTEIGER

@<TRIPOS>ATOM
      1 C         -28.0162   -0.8135   28.8779 C.ar    1  UNL1        0.0377
      2 C         -27.0636   -0.1189   28.6079 C.ar    1  UNL1        0.0097
      3 C         -26.8756    1.1325   28.9134 C.ar    1  UNL1        0.0800
      4 C         -27.9014    1.8066   29.6436 C.ar    1  UNL1        0.0097
      5 C         -29.0458   -0.2316   29.7181 C.ar    1  UNL1        0.1454
      6 C         -28.9402    1.0517   30.0597 C.ar    1  UNL1        0.0377
      7 O         -29.9284   -1.1727   30.1111 O.3     1  UNL1       -0.4504
      8 C         -25.6855    1.9507   28.4277 C.2     1  UNL1        0.3878
      9 O         -25.2463    2.9107   28.8726 O.co2   1  UNL1       -0.2406
     10 O         -25.2850    1.5946   27.1269 O.co2   1  UNL1       -0.2406
     11 C         -31.1541   -1.1003   29.7535 C.2     1  UNL1        0.1795
     12 C         -31.7477   -2.3288   29.6627 C.2     1  UNL1        0.0407
     13 C         -31.1706   -3.4523   30.2367 C.2     1  UNL1        0.0032
     14 C         -29.8882   -3.2505   30.6896 C.2     1  UNL1        0.0001
@<TRIPOS>BOND
     1     5     7    1
     2     3     8    1
     3     8     9   ar
     4     8    10   ar
     5     7    11    1
     6    11    12    2
     7    12    13    1
     8    13    14    2
     9     1     2   ar
    10     2     3   ar
    11     3     4   ar
    12     4     6   ar
    13     6     5   ar
    14     5     1   ar
