@<TRIPOS>MOLECULE
No_4601-gen_results/8p0m/2024-11-26-14-13-15/
 35 37 0 0 0
SMALL
GASTEIGER

@<TRIPOS>ATOM
      1 O         -28.1229   -1.3353   28.4874 O.2     1  UNL1       -0.2700
      2 C         -28.5208   -0.4363   29.0779 C.2     1  UNL1        0.2790
      3 C         -28.5894    0.5916   28.9464 C.3     1  UNL1        0.2604
      4 N         -29.1246   -0.9399   30.4266 N.am    1  UNL1       -0.1906
      5 F         -29.3373    1.3633   29.3669 F       1  UNL1       -0.2224
      6 C         -27.6430    1.2583   27.9210 C.ar    1  UNL1        0.0251
      7 C         -27.9537    1.3651   26.6000 C.ar    1  UNL1        0.0747
      8 C         -26.9787    1.3984   25.6239 C.ar    1  UNL1        0.0062
      9 C         -25.5888    1.5349   26.0403 C.ar    1  UNL1        0.0002
     10 C         -25.2690    1.4833   27.3737 C.ar    1  UNL1       -0.0002
     11 C         -26.2305    1.2350   28.2570 C.ar    1  UNL1       -0.0010
     12 C         -29.0635   -2.3610   30.8322 C.3     1  UNL1        0.2285
     13 C         -23.8388    1.5021   27.7120 C.ar    1  UNL1       -0.0000
     14 C         -23.2605    0.5928   28.5516 C.ar    1  UNL1       -0.0000
     15 C         -21.8674    0.5034   28.7587 C.ar    1  UNL1       -0.0000
     16 C         -21.0419    1.2654   27.9777 C.ar    1  UNL1        0.0000
     17 C         -22.9100    2.2249   26.8636 C.ar    1  UNL1       -0.0000
     18 C         -21.5368    2.1396   27.0730 C.ar    1  UNL1       -0.0000
     19 C         -30.0795   -3.0881   30.2132 C.2     1  UNL1        0.3865
     20 O         -30.8856   -3.4928   31.0968 O.co2   1  UNL1       -0.2437
     21 O         -30.1237   -3.5827   29.1230 O.co2   1  UNL1       -0.2437
     22 C         -29.2945    1.1405   26.1536 C.2     1  UNL1        0.3409
     23 O         -29.6617    0.4076   25.3191 O.2     1  UNL1       -0.2449
     24 O         -30.2368    1.9055   26.7547 O.3     1  UNL1       -0.4492
     25 C         -31.6056    1.6569   26.5684 C.3     1  UNL1        0.1704
     26 C         -32.1145    0.6415   27.2166 C.3     1  UNL1        0.0593
     27 C         -32.5863   -0.3890   26.5641 C.3     1  UNL1        0.1286
     28 C         -33.2012   -0.3113   25.5382 C.2     1  UNL1       -0.0197
     29 C         -32.8068    0.7858   24.6865 C.2     1  UNL1       -0.0304
     30 C         -32.3881    2.8423   26.3825 C.3     1  UNL1        0.0480
     31 C         -33.0982    2.1581   25.0298 C.3     1  UNL1        0.0253
     32 C         -32.6544   -1.7456   27.3854 C.2     1  UNL1        0.3684
     33 O         -33.4864   -2.2138   27.7206 O.co2   1  UNL1       -0.2453
     34 O         -31.3618   -2.1882   27.5958 O.co2   1  UNL1       -0.2453
     35 C         -34.0576    2.9310   24.2296 C.3     1  UNL1        0.0048
@<TRIPOS>BOND
     1     1     2    2
     2     2     3    1
     3     2     4   am
     4     3     5    1
     5     3     6    1
     6     4    12    1
     7    10    13    1
     8    12    19    1
     9    19    20   ar
    10    19    21   ar
    11     7    22    1
    12    22    23    2
    13    22    24    1
    14    24    25    1
    15    25    26    1
    16    26    27    1
    17    27    28    1
    18    28    29    2
    19    25    30    1
    20    29    31    1
    21    30    31    1
    22    27    32    1
    23    32    33   ar
    24    32    34   ar
    25    31    35    1
    26    13    14   ar
    27    14    15   ar
    28    15    16   ar
    29    16    18   ar
    30    18    17   ar
    31    17    13   ar
    32     6     7   ar
    33     7     8   ar
    34     8     9   ar
    35     9    10   ar
    36    10    11   ar
    37    11     6   ar
