@<TRIPOS>MOLECULE
No_4602-gen_results/8p0m/2024-11-26-14-13-15/
 24 26 0 0 0
SMALL
GASTEIGER

@<TRIPOS>ATOM
      1 C         -28.0162   -0.8135   28.8779 C.ar    1  UNL1        0.0489
      2 C         -28.4690   -0.7850   29.8287 C.ar    1  UNL1        0.1461
      3 C         -26.5042   -0.7777   28.8766 C.ar    1  UNL1        0.0607
      4 C         -25.8103   -0.8531   30.1028 C.ar    1  UNL1        0.0116
      5 C         -27.9906   -0.8916   31.2257 C.ar    1  UNL1        0.0375
      6 C         -26.6042   -0.8676   31.2652 C.ar    1  UNL1        0.0040
      7 O         -29.9385   -0.8194   29.8358 O.3     1  UNL1       -0.4535
      8 C         -30.6393    0.2340   30.2522 C.ar    1  UNL1        0.1454
      9 C         -31.5896    0.5939   29.5426 C.ar    1  UNL1        0.0390
     10 C         -32.3726    1.7688   29.9178 C.ar    1  UNL1        0.0223
     11 C         -32.0096    2.4414   31.1089 C.ar    1  UNL1        0.0838
     12 C         -30.9404    1.9620   31.8347 C.ar    1  UNL1        0.0223
     13 C         -30.2105    0.9050   31.4622 C.ar    1  UNL1        0.0390
     14 CL        -25.5579   -0.7100   27.4422 Cl      1  UNL1       -0.0821
     15 N         -32.7808    3.5062   31.4871 N.2     1  UNL1       -0.2189
     16 C         -33.7341    3.9650   31.1413 C.2     1  UNL1        0.2130
     17 CL        -34.6051    3.2959   29.9214 Cl      1  UNL1       -0.0437
     18 N         -34.3154    5.0864   31.7553 N.pl3   1  UNL1       -0.1844
     19 C         -33.6488    5.7312   32.6661 C.ar    1  UNL1        0.0729
     20 C         -33.4249    6.6733   33.0108 C.ar    1  UNL1        0.0166
     21 C         -32.5726    7.2013   34.1434 C.ar    1  UNL1        0.0013
     22 C         -31.8981    6.1625   34.7805 C.ar    1  UNL1        0.0001
     23 C         -32.0394    4.8836   34.4048 C.ar    1  UNL1        0.0013
     24 C         -32.8482    4.5905   33.3925 C.ar    1  UNL1        0.0166
@<TRIPOS>BOND
     1     2     7    1
     2     7     8    1
     3     3    14    1
     4    11    15    1
     5    15    16    2
     6    16    17    1
     7    16    18    1
     8    18    19    1
     9     8     9   ar
    10     9    10   ar
    11    10    11   ar
    12    11    12   ar
    13    12    13   ar
    14    13     8   ar
    15     1     2   ar
    16     2     5   ar
    17     5     6   ar
    18     6     4   ar
    19     4     3   ar
    20     3     1   ar
    21    19    20   ar
    22    20    21   ar
    23    21    22   ar
    24    22    23   ar
    25    23    24   ar
    26    24    19   ar
