@<TRIPOS>MOLECULE
No_4604-gen_results/8p0m/2024-11-26-14-13-15/
 16 17 0 0 0
SMALL
GASTEIGER

@<TRIPOS>ATOM
      1 C         -28.0162   -0.8135   28.8779 C.ar    1  UNL1        0.0045
      2 C         -28.4690   -0.7850   29.8287 C.ar    1  UNL1        0.0001
      3 C         -27.1356    0.2359   28.5352 C.ar    1  UNL1        0.0539
      4 C         -26.8745    1.2825   29.3982 C.ar    1  UNL1        0.0045
      5 C         -27.5070    1.2380   30.6295 C.ar    1  UNL1        0.0001
      6 C         -28.3293    0.1745   30.9350 C.ar    1  UNL1        0.0000
      7 C         -26.4077    0.3070   27.2259 C.2     1  UNL1        0.2528
      8 N         -26.8825    0.5866   26.2352 N.am    1  UNL1       -0.2534
      9 O         -25.0978   -0.0459   27.2404 O.2     1  UNL1       -0.2696
     10 C         -28.2466    1.0545   26.0405 C.ar    1  UNL1        0.0542
     11 C         -28.5043    2.1113   26.4610 C.ar    1  UNL1        0.0149
     12 C         -29.8494    2.7175   26.3076 C.ar    1  UNL1        0.0013
     13 C         -30.7272    2.0665   25.4844 C.ar    1  UNL1        0.0001
     14 C         -28.9628    0.3974   25.1737 C.ar    1  UNL1        0.0149
     15 C         -30.2493    0.8513   24.8502 C.ar    1  UNL1        0.0013
     16 C         -26.0832    0.7880   25.0486 C.3     1  UNL1        0.1203
@<TRIPOS>BOND
     1     3     7    1
     2     7     8   am
     3     7     9    2
     4     8    10    1
     5     8    16    1
     6     1     2   ar
     7     2     6   ar
     8     6     5   ar
     9     5     4   ar
    10     4     3   ar
    11     3     1   ar
    12    10    11   ar
    13    11    12   ar
    14    12    13   ar
    15    13    15   ar
    16    15    14   ar
    17    14    10   ar
