@<TRIPOS>MOLECULE
No_4605-gen_results/8p0m/2024-11-26-14-13-15/
 16 17 0 0 0
SMALL
GASTEIGER

@<TRIPOS>ATOM
      1 C         -28.0162   -0.8135   28.8779 C.ar    1  UNL1       -0.0035
      2 C         -28.4690   -0.7850   29.8287 C.ar    1  UNL1       -0.0003
      3 C         -27.0871    0.2903   28.6377 C.ar    1  UNL1       -0.0110
      4 C         -26.2516    0.4114   27.4222 C.3     1  UNL1        0.1090
      5 C         -28.3913    0.1041   30.9805 C.ar    1  UNL1       -0.0000
      6 C         -27.5332    1.1666   30.7866 C.ar    1  UNL1       -0.0003
      7 C         -26.8281    1.2557   29.6454 C.ar    1  UNL1       -0.0035
      8 C         -24.9668    0.4106   27.5252 C.ar    1  UNL1       -0.0150
      9 C         -24.0909    1.1617   27.7719 C.ar    1  UNL1       -0.0251
     10 C         -22.6600    1.0016   27.9820 C.ar    1  UNL1       -0.0045
     11 C         -22.2542   -0.1233   28.6665 C.ar    1  UNL1       -0.0003
     12 C         -23.2463   -1.1723   28.7564 C.ar    1  UNL1       -0.0003
     13 C         -24.5623   -0.9744   28.2870 C.ar    1  UNL1       -0.0038
     14 C         -24.3318    2.6239   27.0917 C.3     1  UNL1        0.0307
     15 C         -26.8250    0.6611   26.1453 C.2     1  UNL1        0.2157
     16 O         -27.5608    1.5928   25.9115 O.2     1  UNL1       -0.2876
@<TRIPOS>BOND
     1     3     4    1
     2     4     8    1
     3     9    14    1
     4     4    15    1
     5    15    16    2
     6     8     9   ar
     7     9    10   ar
     8    10    11   ar
     9    11    12   ar
    10    12    13   ar
    11    13     8   ar
    12     1     2   ar
    13     2     5   ar
    14     5     6   ar
    15     6     7   ar
    16     7     3   ar
    17     3     1   ar
