@<TRIPOS>MOLECULE
No_4606-gen_results/8p0m/2024-11-26-14-13-15/
 30 33 0 0 0
SMALL
GASTEIGER

@<TRIPOS>ATOM
      1 C         -28.0162   -0.8135   28.8779 C.ar    1  UNL1        0.0180
      2 C         -27.0636   -0.1190   28.6079 C.ar    1  UNL1        0.0549
      3 C         -26.9716    0.7139   27.5060 C.ar    1  UNL1       -0.0014
      4 C         -28.1053    0.7744   26.6421 C.ar    1  UNL1        0.0342
      5 C         -29.2041    0.1179   27.0477 C.ar    1  UNL1        0.1385
      6 C         -29.2127   -0.6088   28.1281 C.ar    1  UNL1        0.0382
      7 C         -25.7106    1.4518   27.1380 C.3     1  UNL1        0.0471
      8 C         -24.6052    0.9253   27.6902 C.ar    1  UNL1       -0.0044
      9 C         -23.3087    1.6018   27.4923 C.ar    1  UNL1       -0.0027
     10 C         -22.1769    1.1971   28.2745 C.ar    1  UNL1       -0.0002
     11 C         -22.2182    0.0930   29.0618 C.ar    1  UNL1        0.0013
     12 C         -23.4005   -0.6727   29.1615 C.ar    1  UNL1        0.0149
     13 C         -24.5560   -0.2221   28.5396 C.ar    1  UNL1        0.0547
     14 N         -25.7759   -0.5905   29.1170 N.am    1  UNL1       -0.2345
     15 C         -25.7685   -0.8772   30.4966 C.2     1  UNL1        0.2564
     16 C         -25.7326    2.4754   26.1526 C.3     1  UNL1        0.0095
     17 O         -30.3331    0.2922   26.3245 O.3     1  UNL1       -0.4714
     18 C         -30.5690   -0.4680   25.2372 C.3     1  UNL1        0.2525
     19 C         -25.6310    0.1600   31.4553 C.ar    1  UNL1        0.0539
     20 C         -26.0501   -0.1032   32.7371 C.ar    1  UNL1        0.0003
     21 C         -25.1840    1.4953   31.1372 C.ar    1  UNL1        0.0084
     22 C         -25.2635    2.5809   32.0566 C.ar    1  UNL1        0.0713
     23 C         -26.0490    0.9315   33.7574 C.ar    1  UNL1       -0.0218
     24 C         -25.6709    2.2757   33.3782 C.ar    1  UNL1       -0.0004
     25 O         -25.8782   -2.0949   30.7422 O.2     1  UNL1       -0.2692
     26 C         -24.8556    3.9014   31.6667 C.3     1  UNL1        0.4186
     27 F         -24.6553    3.9066   30.4270 F       1  UNL1       -0.1659
     28 F         -23.7445    4.3628   32.2896 F       1  UNL1       -0.1659
     29 F         -25.8345    4.7910   32.0208 F       1  UNL1       -0.1659
     30 C         -26.5220    0.6868   35.1178 C.3     1  UNL1        0.0310
@<TRIPOS>BOND
     1     3     7    1
     2     2    14    1
     3    13    14    1
     4    14    15   am
     5     7    16    1
     6     5    17    1
     7    17    18    1
     8    15    19    1
     9    15    25    2
    10    22    26    1
    11    26    27    1
    12    26    28    1
    13    26    29    1
    14    23    30    1
    15     7     8    1
    16     1     2   ar
    17     2     3   ar
    18     3     4   ar
    19     4     5   ar
    20     5     6   ar
    21     6     1   ar
    22     8     9   ar
    23     9    10   ar
    24    10    11   ar
    25    11    12   ar
    26    12    13   ar
    27    13     8   ar
    28    19    20   ar
    29    20    23   ar
    30    23    24   ar
    31    24    22   ar
    32    22    21   ar
    33    21    19   ar
