@<TRIPOS>MOLECULE
No_4608-gen_results/8p0m/2024-11-26-14-13-15/
 19 21 0 0 0
SMALL
GASTEIGER

@<TRIPOS>ATOM
      1 C         -28.0162   -0.8135   28.8779 C.ar    1  UNL1       -0.0000
      2 C         -28.4690   -0.7850   29.8287 C.ar    1  UNL1       -0.0000
      3 C         -27.1356    0.2359   28.5352 C.ar    1  UNL1       -0.0000
      4 C         -26.8745    1.2825   29.3982 C.ar    1  UNL1       -0.0000
      5 C         -28.3613    0.1987   30.9244 C.ar    1  UNL1        0.0000
      6 C         -27.5277    1.2234   30.6356 C.ar    1  UNL1       -0.0000
      7 C         -26.3987    0.2949   27.2279 C.ar    1  UNL1       -0.0003
      8 C         -26.9022    0.7280   26.2134 C.ar    1  UNL1       -0.0000
      9 C         -26.1747    0.6364   24.9259 C.ar    1  UNL1       -0.0000
     10 C         -25.0769   -0.2068   27.2393 C.ar    1  UNL1       -0.0037
     11 C         -24.4662   -0.6746   28.5690 C.2     1  UNL1       -0.0180
     12 C         -24.8102    0.2419   24.9847 C.ar    1  UNL1       -0.0000
     13 C         -24.2910   -0.1013   26.1508 C.ar    1  UNL1       -0.0003
     14 C         -24.0778   -1.5859   29.1453 C.2     1  UNL1       -0.0045
     15 C         -23.4398   -1.6084   30.4007 C.2     1  UNL1       -0.0060
     16 C         -23.5240   -0.3712   31.1366 C.2     1  UNL1       -0.0072
     17 C         -24.2946    0.6134   29.5789 C.3     1  UNL1        0.0508
     18 C         -23.5621    0.6987   30.6788 C.3     1  UNL1        0.2047
     19 O         -23.5727    1.8878   31.2850 O.3     1  UNL1       -0.2155
@<TRIPOS>BOND
     1     3     7    1
     2    10    11    1
     3    11    14    2
     4    14    15    1
     5    15    16    2
     6    11    17    1
     7    16    17    1
     8    16    18    1
     9    18    19    1
    10     7     8   ar
    11     8     9   ar
    12     9    12   ar
    13    12    13   ar
    14    13    10   ar
    15    10     7   ar
    16     1     2   ar
    17     2     5   ar
    18     5     6   ar
    19     6     4   ar
    20     4     3   ar
    21     3     1   ar
