@<TRIPOS>MOLECULE
No_4609-gen_results/8p0m/2024-11-26-14-13-15/
 27 29 0 0 0
SMALL
GASTEIGER

@<TRIPOS>ATOM
      1 C         -28.0162   -0.8135   28.8779 C.2     1  UNL1        0.2530
      2 C         -27.0636   -0.1189   28.6079 C.ar    1  UNL1        0.0542
      3 C         -27.0010    0.6913   27.4910 C.ar    1  UNL1        0.0068
      4 C         -25.8548    1.4825   27.0830 C.ar    1  UNL1        0.0299
      5 C         -24.6901    1.4526   27.8807 C.ar    1  UNL1        0.1446
      6 C         -24.7379    0.6010   29.0416 C.ar    1  UNL1        0.0842
      7 C         -25.8234   -0.1688   29.3887 C.ar    1  UNL1        0.0114
      8 N         -29.2150   -0.1726   29.0132 N.am    1  UNL1       -0.2509
      9 C         -30.2463   -0.7736   29.6388 C.ar    1  UNL1        0.0553
     10 F         -23.6618    2.1456   27.5906 F       1  UNL1       -0.2040
     11 O         -27.8919   -1.9293   29.4935 O.2     1  UNL1       -0.2696
     12 C         -31.0387    0.0369   30.5311 C.ar    1  UNL1        0.0150
     13 C         -32.0466   -0.4484   31.1266 C.ar    1  UNL1        0.0021
     14 C         -32.4335   -1.8153   30.8860 C.ar    1  UNL1        0.0115
     15 C         -31.7141   -2.6019   30.0359 C.ar    1  UNL1        0.0589
     16 C         -30.6380   -2.0691   29.4124 C.ar    1  UNL1        0.0263
     17 CL        -32.1297   -4.2364   29.7989 Cl      1  UNL1       -0.0822
     18 C         -23.4348    0.5368   29.8450 C.2     1  UNL1        0.2864
     19 N         -22.3163    0.4141   29.3348 N.am    1  UNL1       -0.0836
     20 O         -23.5735    1.0012   31.0747 O.2     1  UNL1       -0.2666
     21 C         -29.4850    1.1166   28.3879 C.3     1  UNL1        0.1250
     22 C         -30.2159    1.3164   27.2152 C.ar    1  UNL1       -0.0020
     23 C         -30.9184    0.2543   26.6907 C.ar    1  UNL1       -0.0026
     24 C         -31.6352    0.3578   25.5395 C.ar    1  UNL1       -0.0003
     25 C         -31.6482    1.6152   24.9406 C.ar    1  UNL1       -0.0000
     26 C         -30.9614    2.7204   25.3937 C.ar    1  UNL1       -0.0003
     27 C         -30.2301    2.6028   26.5900 C.ar    1  UNL1       -0.0026
@<TRIPOS>BOND
     1     1     2    1
     2     1     8   am
     3     8     9    1
     4     5    10    1
     5     1    11    2
     6    15    17    1
     7     6    18    1
     8    18    19   am
     9    18    20    2
    10     8    21    1
    11    21    22    1
    12     2     3   ar
    13     3     4   ar
    14     4     5   ar
    15     5     6   ar
    16     6     7   ar
    17     7     2   ar
    18    22    23   ar
    19    23    24   ar
    20    24    25   ar
    21    25    26   ar
    22    26    27   ar
    23    27    22   ar
    24     9    12   ar
    25    12    13   ar
    26    13    14   ar
    27    14    15   ar
    28    15    16   ar
    29    16     9   ar
