@<TRIPOS>MOLECULE
No_461-gen_results/8p0m/2024-11-26-14-13-15/
 12 12 0 0 0
SMALL
GASTEIGER

@<TRIPOS>ATOM
      1 C         -28.0162   -0.8135   28.8779 C.ar    1  UNL1        0.0113
      2 C         -27.0636   -0.1190   28.6079 C.ar    1  UNL1        0.0537
      3 C         -26.9716    0.7139   27.5060 C.ar    1  UNL1       -0.0114
      4 C         -28.1053    0.7744   26.6421 C.ar    1  UNL1        0.0031
      5 C         -29.2008    0.1044   27.0527 C.ar    1  UNL1        0.0795
      6 C         -29.2096   -0.6029   28.1853 C.ar    1  UNL1        0.0074
      7 C         -30.4845    0.1494   26.3508 C.2     1  UNL1        0.3877
      8 O         -31.1692    1.1888   26.4439 O.co2   1  UNL1       -0.2406
      9 O         -30.9190   -0.9326   25.8166 O.co2   1  UNL1       -0.2406
     10 CL        -25.4897   -0.2361   29.5345 Cl      1  UNL1       -0.0826
     11 C         -25.6394    1.3948   27.1133 C.3     1  UNL1        0.0272
     12 C         -24.7992    1.7859   28.1221 C.3     1  UNL1        0.0050
@<TRIPOS>BOND
     1     5     7    1
     2     7     8   ar
     3     7     9   ar
     4     2    10    1
     5     3    11    1
     6    11    12    1
     7     1     2   ar
     8     2     3   ar
     9     3     4   ar
    10     4     5   ar
    11     5     6   ar
    12     6     1   ar
