@<TRIPOS>MOLECULE
No_4610-gen_results/8p0m/2024-11-26-14-13-15/
 30 31 0 0 0
SMALL
GASTEIGER

@<TRIPOS>ATOM
      1 O         -28.1229   -1.3353   28.4874 O.2     1  UNL1       -0.2501
      2 C         -28.5208   -0.4363   29.0779 C.2     1  UNL1        0.3178
      3 C         -27.6655    0.1129   30.0346 C.3     1  UNL1        0.1142
      4 O         -29.5383    0.2888   28.6335 O.3     1  UNL1       -0.4383
      5 C         -26.8714   -0.5761   30.7172 C.3     1  UNL1        0.0380
      6 C         -25.5173   -0.6324   30.3626 C.ar    1  UNL1       -0.0216
      7 C         -25.1723   -0.3710   29.1044 C.ar    1  UNL1       -0.0034
      8 C         -24.4320    0.8368   28.8133 C.ar    1  UNL1        0.0111
      9 C         -23.0952    0.8429   29.3761 C.ar    1  UNL1        0.0577
     10 C         -23.0180    0.1141   30.6572 C.ar    1  UNL1        0.0111
     11 C         -24.3252   -0.5622   31.2399 C.ar    1  UNL1       -0.0034
     12 CL        -21.7460    1.5505   28.8035 Cl      1  UNL1       -0.0822
     13 C         -30.3795   -0.2102   27.6882 C.3     1  UNL1        0.2926
     14 C         -31.1493    0.7769   26.8957 C.2     1  UNL1        0.2706
     15 O         -31.7970    0.3476   26.0007 O.2     1  UNL1       -0.2708
     16 N         -31.0662    2.0794   27.1543 N.am    1  UNL1       -0.2706
     17 C         -30.3266    2.6912   28.2101 C.3     1  UNL1        0.1203
     18 C         -31.3816    2.9281   25.9990 C.3     1  UNL1        0.1153
     19 C         -31.2985    3.4243   29.1133 C.ar    1  UNL1       -0.0026
     20 C         -32.2852    3.6285   29.1169 C.ar    1  UNL1       -0.0026
     21 C         -33.0532    4.3797   30.1417 C.ar    1  UNL1       -0.0006
     22 C         -32.3485    4.9070   31.2055 C.ar    1  UNL1       -0.0042
     23 C         -30.9863    4.6907   31.2557 C.ar    1  UNL1       -0.0207
     24 C         -30.3425    3.9499   30.2893 C.ar    1  UNL1       -0.0068
     25 C         -30.1835    5.2205   32.3906 C.3     1  UNL1        0.0497
     26 C         -29.3108    5.2683   32.9109 C.3     1  UNL1        0.1169
     27 N         -28.1498    4.5048   32.5768 N.pl3   1  UNL1       -0.2363
     28 C         -27.7710    3.9203   31.8470 C.2     1  UNL1        0.0755
     29 C         -26.6859    3.6411   31.5167 C.2     1  UNL1       -0.0084
     30 C         -26.0708    3.1705   30.2874 C.3     1  UNL1        0.0321
@<TRIPOS>BOND
     1     1     2    2
     2     2     3    1
     3     2     4    1
     4     3     5    1
     5     5     6    1
     6     9    12    1
     7     4    13    1
     8    13    14    1
     9    14    15    2
    10    14    16   am
    11    16    17    1
    12    16    18    1
    13    17    19    1
    14    23    25    1
    15    25    26    1
    16    26    27    1
    17    27    28    1
    18    28    29    2
    19    29    30    1
    20     6     7   ar
    21     7     8   ar
    22     8     9   ar
    23     9    10   ar
    24    10    11   ar
    25    11     6   ar
    26    19    20   ar
    27    20    21   ar
    28    21    22   ar
    29    22    23   ar
    30    23    24   ar
    31    24    19   ar
