@<TRIPOS>MOLECULE
No_4611-gen_results/8p0m/2024-11-26-14-13-15/
 16 17 0 0 0
SMALL
GASTEIGER

@<TRIPOS>ATOM
      1 C         -28.0162   -0.8135   28.8779 C.ar    1  UNL1        0.0579
      2 C         -27.0636   -0.1190   28.6079 C.ar    1  UNL1        0.0047
      3 C         -27.0010    0.6913   27.4910 C.ar    1  UNL1        0.0014
      4 C         -28.1373    0.7363   26.6350 C.ar    1  UNL1        0.0149
      5 C         -29.2360    0.0765   27.0690 C.ar    1  UNL1        0.0540
      6 C         -29.2177   -0.6429   28.1747 C.ar    1  UNL1        0.0195
      7 C         -28.2275   -1.6261   30.1018 C.2     1  UNL1        0.2842
      8 O         -29.0376   -2.4759   30.2659 O.2     1  UNL1       -0.2667
      9 N         -26.9324   -1.8393   30.8275 N.am    1  UNL1       -0.0837
     10 N         -30.3516    0.1597   26.2292 N.am    1  UNL1       -0.2586
     11 C         -31.4657   -0.3658   26.5964 C.3     1  UNL1        0.0982
     12 C         -30.3009    0.7031   24.8970 C.2     1  UNL1        0.2293
     13 C         -32.4394   -0.7338   25.6840 C.3     1  UNL1        0.0224
     14 C         -32.5126    0.0089   24.5044 C.3     1  UNL1        0.0113
     15 C         -31.3516    0.5736   24.0254 C.3     1  UNL1        0.0857
     16 O         -29.2151    1.2991   24.4959 O.2     1  UNL1       -0.2745
@<TRIPOS>BOND
     1     1     7    1
     2     7     8    2
     3     7     9   am
     4     5    10    1
     5    10    11    1
     6    10    12   am
     7    13    14    1
     8    12    15    1
     9    12    16    2
    10    11    13    1
    11    14    15    1
    12     1     2   ar
    13     2     3   ar
    14     3     4   ar
    15     4     5   ar
    16     5     6   ar
    17     6     1   ar
