@<TRIPOS>MOLECULE
No_4612-gen_results/8p0m/2024-11-26-14-13-15/
 14 14 0 0 0
SMALL
GASTEIGER

@<TRIPOS>ATOM
      1 C         -28.0162   -0.8135   28.8779 C.ar    1  UNL1        0.0045
      2 C         -28.4690   -0.7850   29.8287 C.ar    1  UNL1        0.0796
      3 C         -27.0871    0.2903   28.6377 C.ar    1  UNL1        0.0055
      4 C         -26.7676    1.0274   29.4716 C.ar    1  UNL1        0.1361
      5 C         -28.2764    0.0268   31.0145 C.ar    1  UNL1        0.0089
      6 C         -27.3287    1.0538   30.7535 C.ar    1  UNL1        0.0295
      7 F         -25.8653    2.0415   29.2470 F       1  UNL1       -0.2045
      8 C         -29.5148   -1.9936   30.2525 C.2     1  UNL1        0.3877
      9 O         -29.3565   -3.1699   30.2284 O.co2   1  UNL1       -0.2406
     10 O         -30.7423   -1.6286   30.6306 O.co2   1  UNL1       -0.2406
     11 C         -26.3666    0.2840   27.2302 C.3     1  UNL1        0.0286
     12 C         -25.0664    0.4828   27.1339 C.3     1  UNL1        0.0048
     13 C         -24.4262    1.6180   27.7786 C.3     1  UNL1        0.0003
     14 C         -23.1183    1.8967   27.4832 C.3     1  UNL1        0.0000
@<TRIPOS>BOND
     1     4     7    1
     2     2     8    1
     3     8     9   ar
     4     8    10   ar
     5     3    11    1
     6    11    12    1
     7    12    13    1
     8    13    14    1
     9     1     2   ar
    10     2     5   ar
    11     5     6   ar
    12     6     4   ar
    13     4     3   ar
    14     3     1   ar
