@<TRIPOS>MOLECULE
No_4613-gen_results/8p0m/2024-11-26-14-13-15/
 14 15 0 0 0
SMALL
GASTEIGER

@<TRIPOS>ATOM
      1 C         -28.0162   -0.8135   28.8779 C.2     1  UNL1        0.0775
      2 C         -27.0636   -0.1190   28.6079 C.2     1  UNL1       -0.0230
      3 C         -26.9716    0.7139   27.5060 C.3     1  UNL1        0.0284
      4 C         -25.8205    1.4909   27.1160 C.3     1  UNL1        0.0304
      5 C         -24.8579    1.3421   27.6008 C.ar    1  UNL1       -0.0255
      6 C         -24.6224    0.5295   28.8144 C.ar    1  UNL1       -0.0220
      7 C         -23.3412    0.3976   29.5010 C.ar    1  UNL1       -0.0043
      8 C         -25.7444   -0.2202   29.2289 C.3     1  UNL1        0.0493
      9 C         -22.1653    0.5045   28.7887 C.ar    1  UNL1       -0.0003
     10 N         -29.2104   -0.1858   29.0240 N.pl3   1  UNL1       -0.2105
     11 C         -22.0607    1.4876   27.7760 C.ar    1  UNL1       -0.0003
     12 C         -23.2989    1.7204   26.9769 C.ar    1  UNL1       -0.0046
     13 C         -29.5719    0.7421   28.4141 C.2     1  UNL1        0.0857
     14 C         -30.8648    1.3463   28.4316 C.2     1  UNL1        0.0192
@<TRIPOS>BOND
     1     1     2    2
     2     2     3    1
     3     3     4    1
     4     4     5    1
     5     2     8    1
     6     6     8    1
     7     1    10    1
     8    10    13    1
     9    13    14    2
    10     5     6   ar
    11     6     7   ar
    12     7     9   ar
    13     9    11   ar
    14    11    12   ar
    15    12     5   ar
