@<TRIPOS>MOLECULE
No_4614-gen_results/8p0m/2024-11-26-14-13-15/
 23 25 0 0 0
SMALL
GASTEIGER

@<TRIPOS>ATOM
      1 O         -28.1229   -1.3353   28.4874 O.2     1  UNL1       -0.2699
      2 C         -27.0637   -0.8242   28.8687 C.2     1  UNL1        0.2488
      3 C         -26.4017   -0.0623   28.6224 C.ar    1  UNL1        0.0500
      4 N         -26.5721   -1.5844   30.1172 N.am    1  UNL1       -0.2729
      5 C         -25.0209    0.3562   29.0444 C.ar    1  UNL1       -0.0066
      6 C         -24.6645   -0.3860   30.2421 C.3     1  UNL1        0.0863
      7 C         -25.4289   -1.3598   30.6870 C.3     1  UNL1        0.1018
      8 C         -26.7073    0.8229   27.3445 C.ar    1  UNL1        0.0042
      9 C         -25.8032    1.5451   26.7087 C.ar    1  UNL1        0.0003
     10 C         -24.5506    1.9361   27.3262 C.ar    1  UNL1        0.0061
     11 C         -24.1579    1.3313   28.4975 C.ar    1  UNL1        0.0720
     12 C         -27.5998   -2.5508   30.5175 C.3     1  UNL1        0.1304
     13 C         -28.8876   -2.0580   30.8313 C.3     1  UNL1        0.2150
     14 C         -28.9117   -0.8136   31.1910 C.3     1  UNL1        0.2408
     15 O         -29.7723   -0.4933   31.9298 O.2     1  UNL1       -0.4606
     16 O         -29.4025   -2.8560   31.9446 O.3     1  UNL1       -0.2173
     17 C         -22.8023    1.5197   28.9760 C.2     1  UNL1        0.3409
     18 O         -22.1622    2.2233   28.5644 O.2     1  UNL1       -0.2449
     19 O         -22.4972    0.9207   30.1370 O.3     1  UNL1       -0.4450
     20 C         -23.3550   -0.1192   30.7309 C.3     1  UNL1        0.2147
     21 C         -30.9448    0.1018   31.5645 C.2     1  UNL1        0.2588
     22 C         -30.9336    0.3679   30.3953 C.1     1  UNL1        0.1748
     23 O         -31.8605    0.3561   29.5699 O.2     1  UNL1       -0.2278
@<TRIPOS>BOND
     1     1     2    2
     2     2     3    1
     3     2     4   am
     4     5     6    1
     5     4     7    1
     6     6     7    1
     7     4    12    1
     8    12    13    1
     9    13    14    1
    10    14    15    1
    11    13    16    1
    12    11    17    1
    13    17    18    2
    14    17    19    1
    15     6    20    1
    16    19    20    1
    17    15    21    1
    18    21    22    2
    19    22    23    2
    20     3     8   ar
    21     8     9   ar
    22     9    10   ar
    23    10    11   ar
    24    11     5   ar
    25     5     3   ar
