@<TRIPOS>MOLECULE
No_4615-gen_results/8p0m/2024-11-26-14-13-15/
 29 31 0 0 0
SMALL
GASTEIGER

@<TRIPOS>ATOM
      1 C         -28.0162   -0.8135   28.8779 C.ar    1  UNL1        0.0115
      2 C         -27.0636   -0.1190   28.6079 C.ar    1  UNL1        0.0577
      3 C         -26.8756    1.1325   28.9134 C.ar    1  UNL1        0.0109
      4 C         -27.9014    1.8066   29.6436 C.ar    1  UNL1        0.0054
      5 C         -29.0458   -0.2316   29.7181 C.ar    1  UNL1        0.0054
      6 C         -28.9402    1.0517   30.0597 C.ar    1  UNL1        0.0554
      7 CL        -25.8177   -1.0075   27.7677 Cl      1  UNL1       -0.0822
      8 C         -30.0298    1.7133   30.8598 C.2     1  UNL1        0.2690
      9 N         -29.6885    2.4974   31.7045 N.am    1  UNL1       -0.1754
     10 O         -31.2173    1.3561   30.6358 O.2     1  UNL1       -0.2680
     11 C         -30.6565    3.2138   32.5859 C.ar    1  UNL1        0.0737
     12 C         -31.6613    3.1829   32.7594 C.ar    1  UNL1        0.0168
     13 C         -32.4932    3.9369   33.6446 C.ar    1  UNL1        0.0079
     14 C         -31.8412    4.8818   34.4495 C.ar    1  UNL1        0.0799
     15 C         -30.4663    5.0005   34.3022 C.ar    1  UNL1        0.0079
     16 C         -29.7591    4.2144   33.4156 C.ar    1  UNL1        0.0168
     17 C         -32.5833    5.6986   35.3800 C.2     1  UNL1        0.3878
     18 O         -32.0206    6.3350   36.1829 O.co2   1  UNL1       -0.2406
     19 O         -33.8373    5.5022   35.3866 O.co2   1  UNL1       -0.2406
     20 C         -25.6591    1.9458   28.4508 C.ar    1  UNL1        0.0070
     21 C         -24.5539    1.9274   29.1011 C.ar    1  UNL1        0.0757
     22 C         -23.3052    2.3329   28.4618 C.ar    1  UNL1        0.0064
     23 C         -23.3498    2.6507   27.0887 C.ar    1  UNL1        0.0002
     24 C         -24.5898    2.6296   26.4436 C.ar    1  UNL1        0.0000
     25 C         -25.7471    2.3219   27.0481 C.ar    1  UNL1        0.0002
     26 C         -24.3457    1.5786   30.5617 C.2     1  UNL1        0.3413
     27 O         -23.8928    0.4577   30.8381 O.3     1  UNL1       -0.4413
     28 O         -24.7273    2.4519   31.4575 O.2     1  UNL1       -0.2449
     29 C         -24.4336   -0.3392   31.8127 C.3     1  UNL1        0.2560
@<TRIPOS>BOND
     1     2     7    1
     2     6     8    1
     3     8     9   am
     4     8    10    2
     5     9    11    1
     6    14    17    1
     7    17    18   ar
     8    17    19   ar
     9     3    20    1
    10    21    26    1
    11    26    27    1
    12    26    28    2
    13    27    29    1
    14    11    12   ar
    15    12    13   ar
    16    13    14   ar
    17    14    15   ar
    18    15    16   ar
    19    16    11   ar
    20     1     2   ar
    21     2     3   ar
    22     3     4   ar
    23     4     6   ar
    24     6     5   ar
    25     5     1   ar
    26    20    21   ar
    27    21    22   ar
    28    22    23   ar
    29    23    24   ar
    30    24    25   ar
    31    25    20   ar
