@<TRIPOS>MOLECULE
No_4617-gen_results/8p0m/2024-11-26-14-13-15/
 24 27 0 0 0
SMALL
GASTEIGER

@<TRIPOS>ATOM
      1 C         -28.0162   -0.8135   28.8779 C.ar    1  UNL1        0.1604
      2 C         -28.4690   -0.7850   29.8287 C.ar    1  UNL1        0.1610
      3 C         -26.5042   -0.7777   28.8766 C.ar    1  UNL1        0.0181
      4 C         -25.8103   -0.8531   30.1028 C.ar    1  UNL1       -0.0008
      5 C         -27.9906   -0.8916   31.2257 C.ar    1  UNL1        0.0234
      6 C         -26.6042   -0.8676   31.2652 C.ar    1  UNL1        0.0013
      7 S         -30.3284   -0.8332   29.8584 S.O2    1  UNL1        0.0958
      8 O         -30.8651    0.0372   30.8149 O.2     1  UNL1       -0.1482
      9 O         -30.6897   -2.2198   30.0620 O.2     1  UNL1       -0.1482
     10 N         -30.6977   -0.3868   28.4072 N.pl3   1  UNL1       -0.0934
     11 C         -25.6383   -0.7072   27.6884 C.3     1  UNL1        0.0557
     12 C         -25.2969    0.6616   27.3185 C.ar    1  UNL1       -0.0177
     13 C         -23.9763    0.9320   27.6604 C.ar    1  UNL1       -0.0039
     14 C         -23.2931    2.0254   27.0265 C.ar    1  UNL1       -0.0003
     15 C         -23.9708    2.8406   26.1730 C.ar    1  UNL1       -0.0000
     16 C         -25.9394    1.3271   26.2910 C.ar    1  UNL1       -0.0039
     17 C         -25.2895    2.4814   25.7922 C.ar    1  UNL1       -0.0003
     18 C         -30.3208    0.6391   27.8000 C.ar    1  UNL1        0.1254
     19 C         -31.3334    1.4249   27.1365 C.ar    1  UNL1        0.0212
     20 C         -30.9225    2.5531   26.4479 C.ar    1  UNL1        0.0016
     21 C         -29.5461    2.9299   26.2728 C.ar    1  UNL1        0.0032
     22 C         -28.6472    2.1356   26.9539 C.ar    1  UNL1        0.0389
     23 C         -28.9466    1.0909   27.6498 C.ar    1  UNL1        0.1619
     24 O         -28.1117    0.7175   28.5310 O.3     1  UNL1       -0.4511
@<TRIPOS>BOND
     1     2     7    1
     2     7     8    2
     3     7     9    2
     4     7    10    1
     5     3    11    1
     6    11    12    1
     7    10    18    1
     8     1    24    1
     9    23    24    1
    10    12    13   ar
    11    13    14   ar
    12    14    15   ar
    13    15    17   ar
    14    17    16   ar
    15    16    12   ar
    16    18    19   ar
    17    19    20   ar
    18    20    21   ar
    19    21    22   ar
    20    22    23   ar
    21    23    18   ar
    22     1     2   ar
    23     2     5   ar
    24     5     6   ar
    25     6     4   ar
    26     4     3   ar
    27     3     1   ar
