@<TRIPOS>MOLECULE
No_4618-gen_results/8p0m/2024-11-26-14-13-15/
 16 17 0 0 0
SMALL
GASTEIGER

@<TRIPOS>ATOM
      1 C         -28.0162   -0.8135   28.8779 C.ar    1  UNL1        0.0066
      2 C         -27.0636   -0.1190   28.6079 C.ar    1  UNL1        0.0002
      3 C         -25.7923   -0.4302   29.0761 C.ar    1  UNL1        0.0001
      4 C         -24.5456    0.3494   28.8225 C.ar    1  UNL1        0.0022
      5 C         -23.2409    0.0217   29.3323 C.ar    1  UNL1        0.0001
      6 C         -27.8820   -1.8995   29.8633 C.ar    1  UNL1        0.0798
      7 C         -26.6526   -2.3142   30.3138 C.ar    1  UNL1        0.0066
      8 C         -25.5153   -1.5607   29.9787 C.ar    1  UNL1        0.0002
      9 C         -22.1588    0.7866   28.9507 C.ar    1  UNL1        0.0023
     10 C         -22.1309    1.7439   27.9818 C.ar    1  UNL1        0.0296
     11 C         -24.5164    1.3706   27.7930 C.ar    1  UNL1        0.0296
     12 C         -23.3378    2.0353   27.4273 C.ar    1  UNL1        0.1401
     13 C         -29.1490   -2.5738   30.2526 C.2     1  UNL1        0.3878
     14 O         -29.4224   -2.5209   31.5533 O.co2   1  UNL1       -0.2406
     15 O         -29.9790   -3.0392   29.5672 O.co2   1  UNL1       -0.2406
     16 F         -23.4598    2.9715   26.4837 F       1  UNL1       -0.2042
@<TRIPOS>BOND
     1     3     4    1
     2     6    13    1
     3    13    14   ar
     4    13    15   ar
     5    12    16    1
     6     1     2   ar
     7     2     3   ar
     8     3     8   ar
     9     8     7   ar
    10     7     6   ar
    11     6     1   ar
    12     4     5   ar
    13     5     9   ar
    14     9    10   ar
    15    10    12   ar
    16    12    11   ar
    17    11     4   ar
