@<TRIPOS>MOLECULE
No_4619-gen_results/8p0m/2024-11-26-14-13-15/
 25 27 0 0 0
SMALL
GASTEIGER

@<TRIPOS>ATOM
      1 C         -28.0162   -0.8135   28.8779 C.ar    1  UNL1        0.0293
      2 C         -28.4690   -0.7850   29.8287 C.ar    1  UNL1        0.1401
      3 C         -26.5042   -0.7777   28.8766 C.ar    1  UNL1       -0.0016
      4 C         -25.8103   -0.8531   30.1028 C.ar    1  UNL1       -0.0176
      5 C         -27.9906   -0.8916   31.2257 C.ar    1  UNL1        0.0293
      6 C         -26.6042   -0.8676   31.2652 C.ar    1  UNL1       -0.0016
      7 F         -29.9203   -0.8331   29.8239 F       1  UNL1       -0.2042
      8 C         -24.3796   -0.8022   30.1424 C.3     1  UNL1        0.0526
      9 C         -23.6323   -0.3170   29.1196 C.ar    1  UNL1       -0.0181
     10 C         -22.1884   -0.2415   29.2461 C.ar    1  UNL1       -0.0040
     11 C         -21.4465    0.3223   28.1882 C.ar    1  UNL1       -0.0006
     12 C         -22.1232    1.2260   27.3046 C.ar    1  UNL1       -0.0042
     13 C         -23.5021    1.3684   27.3406 C.ar    1  UNL1       -0.0211
     14 C         -24.2580    0.6956   28.2849 C.ar    1  UNL1       -0.0082
     15 C         -24.0701    2.3356   26.4087 C.3     1  UNL1        0.0421
     16 C         -23.8764    3.5727   26.4122 C.3     1  UNL1        0.0065
     17 C         -25.0275    1.6743   25.5201 C.3     1  UNL1        0.0951
     18 N         -26.2748    2.1039   25.5607 N.pl3   1  UNL1       -0.3055
     19 C         -26.6539    3.1121   26.2370 C.3     1  UNL1        0.1122
     20 C         -27.2190    1.2905   24.8248 C.ar    1  UNL1        0.0479
     21 C         -27.5312    0.0976   25.2978 C.ar    1  UNL1        0.0145
     22 C         -28.5423   -0.6671   24.6144 C.ar    1  UNL1        0.0013
     23 C         -29.3931   -0.0021   23.6911 C.ar    1  UNL1        0.0001
     24 C         -29.1795    1.3124   23.4416 C.ar    1  UNL1        0.0013
     25 C         -28.0958    2.0501   24.1054 C.ar    1  UNL1        0.0145
@<TRIPOS>BOND
     1     2     7    1
     2     4     8    1
     3    13    15    1
     4    15    16    1
     5    15    17    1
     6    17    18    1
     7    18    19    1
     8    18    20    1
     9     8     9    1
    10     9    10   ar
    11    10    11   ar
    12    11    12   ar
    13    12    13   ar
    14    13    14   ar
    15    14     9   ar
    16     1     2   ar
    17     2     5   ar
    18     5     6   ar
    19     6     4   ar
    20     4     3   ar
    21     3     1   ar
    22    20    21   ar
    23    21    22   ar
    24    22    23   ar
    25    23    24   ar
    26    24    25   ar
    27    25    20   ar
