@<TRIPOS>MOLECULE
No_4620-gen_results/8p0m/2024-11-26-14-13-15/
 13 14 0 0 0
SMALL
GASTEIGER

@<TRIPOS>ATOM
      1 C         -28.0162   -0.8135   28.8779 C.ar    1  UNL1       -0.0003
      2 C         -28.4690   -0.7850   29.8287 C.ar    1  UNL1       -0.0000
      3 C         -26.5042   -0.7777   28.8766 C.ar    1  UNL1       -0.0039
      4 C         -25.9150   -0.6580   29.9230 C.ar    1  UNL1       -0.0178
      5 C         -27.9691   -0.7243   31.2047 C.ar    1  UNL1       -0.0003
      6 C         -24.4089   -0.5955   30.0365 C.3     1  UNL1        0.0526
      7 C         -26.5503   -0.6554   31.1921 C.ar    1  UNL1       -0.0039
      8 C         -23.6800   -0.0974   29.0041 C.ar    1  UNL1       -0.0178
      9 C         -22.2692   -0.0591   29.1110 C.ar    1  UNL1       -0.0039
     10 C         -21.5160    0.5181   28.0726 C.ar    1  UNL1       -0.0003
     11 C         -22.1511    1.4104   27.1928 C.ar    1  UNL1       -0.0000
     12 C         -23.4991    1.6329   27.2367 C.ar    1  UNL1       -0.0003
     13 C         -24.2998    0.9445   28.2155 C.ar    1  UNL1       -0.0039
@<TRIPOS>BOND
     1     4     6    1
     2     6     8    1
     3     8     9   ar
     4     9    10   ar
     5    10    11   ar
     6    11    12   ar
     7    12    13   ar
     8    13     8   ar
     9     1     2   ar
    10     2     5   ar
    11     5     7   ar
    12     7     4   ar
    13     4     3   ar
    14     3     1   ar
