@<TRIPOS>MOLECULE
No_4621-gen_results/8p0m/2024-11-26-14-13-15/
 35 38 0 0 0
SMALL
GASTEIGER

@<TRIPOS>ATOM
      1 C         -28.0162   -0.8135   28.8779 C.ar    1  UNL1        0.0704
      2 C         -27.0636   -0.1190   28.6079 C.ar    1  UNL1        0.0683
      3 C         -26.9716    0.7139   27.5060 C.ar    1  UNL1        0.0146
      4 C         -28.1053    0.7744   26.6421 C.ar    1  UNL1        0.0310
      5 C         -28.1273    1.5122   25.5122 C.2     1  UNL1        0.0338
      6 C         -29.2528   -0.5737   28.2149 C.ar    1  UNL1        0.0419
      7 C         -29.2398    0.1221   27.0395 C.ar    1  UNL1        0.1411
      8 C         -27.6226    0.9822   24.4573 C.2     1  UNL1       -0.0227
      9 C         -28.6017    2.8939   25.4558 C.ar    1  UNL1        0.1634
     10 C         -27.1206   -0.2946   24.4829 C.3     1  UNL1        0.0308
     11 N         -27.9471    3.8492   26.0975 N.ar    1  UNL1       -0.2101
     12 C         -28.5337    5.0038   26.5729 C.ar    1  UNL1        0.1549
     13 N         -29.7290    3.1944   24.8423 N.ar    1  UNL1       -0.2249
     14 C         -30.3713    4.3969   25.0729 C.ar    1  UNL1        0.1035
     15 C         -29.7203    5.3603   25.8839 C.ar    1  UNL1        0.0568
     16 CL        -28.0970   -1.7882   30.3679 Cl      1  UNL1       -0.0813
     17 F         -30.3651    0.3143   26.4330 F       1  UNL1       -0.2041
     18 CL        -25.5076   -0.2765   29.5590 Cl      1  UNL1       -0.0814
     19 N         -27.8208    5.8877   27.2389 N.pl3   1  UNL1       -0.1939
     20 C         -27.7952    6.0486   28.4831 C.ar    1  UNL1        0.0767
     21 C         -27.0684    6.0216   29.3914 C.ar    1  UNL1        0.0718
     22 C         -27.2182    6.0377   30.8246 C.ar    1  UNL1        0.0061
     23 C         -28.5328    6.1447   31.2141 C.ar    1  UNL1        0.0002
     24 C         -29.2213    5.9900   29.1394 C.ar    1  UNL1        0.0167
     25 C         -29.5032    6.1011   30.4044 C.ar    1  UNL1        0.0013
     26 C         -25.5345    5.9929   29.0046 C.2     1  UNL1        0.2681
     27 N         -24.8504    7.0408   28.7812 N.ar    1  UNL1       -0.2415
     28 O         -24.9502    4.8390   28.8714 O.2     1  UNL1       -0.2665
     29 C         -25.3076    8.4152   29.0845 C.ar    1  UNL1        0.1598
     30 C         -24.3708    9.3174   28.5939 C.ar    1  UNL1        0.1353
     31 N         -23.3867    8.3754   28.0124 N.ar    1  UNL1       -0.2205
     32 C         -23.8119    7.2761   28.0620 C.ar    1  UNL1        0.1862
     33 N         -26.3791    8.8091   29.7720 N.pl3   1  UNL1       -0.1925
     34 C         -27.0841    9.8694   29.4715 C.2     1  UNL1        0.0874
     35 C         -26.7164   10.7265   28.9712 C.2     1  UNL1        0.0193
@<TRIPOS>BOND
     1     4     5    1
     2     5     8    2
     3     5     9    1
     4     8    10    1
     5     1    16    1
     6     7    17    1
     7     2    18    1
     8    12    19    1
     9    19    20    1
    10    21    26    1
    11    26    27   am
    12    26    28    2
    13    27    29   ar
    14    29    30   ar
    15    30    31   ar
    16    27    32   ar
    17    31    32   ar
    18    29    33    1
    19    33    34    1
    20    34    35    2
    21     9    11   ar
    22    11    12   ar
    23    12    15   ar
    24    15    14   ar
    25    14    13   ar
    26    13     9   ar
    27    20    21   ar
    28    21    22   ar
    29    22    23   ar
    30    23    25   ar
    31    25    24   ar
    32    24    20   ar
    33     1     2   ar
    34     2     3   ar
    35     3     4   ar
    36     4     7   ar
    37     7     6   ar
    38     6     1   ar
