@<TRIPOS>MOLECULE
No_4622-gen_results/8p0m/2024-11-26-14-13-15/
 20 23 0 0 0
SMALL
GASTEIGER

@<TRIPOS>ATOM
      1 C         -28.0162   -0.8135   28.8779 C.3     1  UNL1        0.0344
      2 C         -28.4690   -0.7850   29.8287 C.2     1  UNL1       -0.0255
      3 C         -26.5042   -0.7777   28.8766 C.3     1  UNL1        0.0310
      4 C         -25.7622   -0.0022   27.9705 C.2     1  UNL1       -0.0253
      5 C         -24.3914    0.1198   28.1381 C.2     1  UNL1       -0.0120
      6 C         -23.7115   -0.7200   29.0863 C.2     1  UNL1       -0.0083
      7 C         -24.4207   -1.5358   29.9161 C.2     1  UNL1       -0.0261
      8 C         -25.8017   -1.5837   29.8123 C.3     1  UNL1        0.0307
      9 C         -29.9399   -0.6147   29.9523 C.2     1  UNL1       -0.0049
     10 C         -30.5535   -0.3493   28.7375 C.2     1  UNL1       -0.0046
     11 C         -29.8307   -0.1348   27.6333 C.2     1  UNL1       -0.0218
     12 C         -28.5010   -0.1617   27.6990 C.3     1  UNL1        0.0483
     13 C         -27.6082    0.1395   26.5692 C.2     1  UNL1       -0.0221
     14 C         -26.3408    0.5023   26.8309 C.2     1  UNL1       -0.0085
     15 C         -23.5333    0.9969   27.2938 C.3     1  UNL1        0.1472
     16 C         -22.3140    1.5103   27.8010 C.2     1  UNL1        0.3724
     17 C         -23.9924    1.4681   26.0440 C.2     1  UNL1       -0.0109
     18 C         -25.5328    1.2769   25.8127 C.2     1  UNL1       -0.0043
     19 O         -22.1323    1.8523   29.0213 O.co2   1  UNL1       -0.2449
     20 O         -21.3432    1.7122   26.9408 O.co2   1  UNL1       -0.2449
@<TRIPOS>BOND
     1     1     2    1
     2     1     3    1
     3     3     4    1
     4     4     5    2
     5     5     6    1
     6     6     7    2
     7     3     8    1
     8     7     8    1
     9     2     9    2
    10     9    10    1
    11    10    11    2
    12     1    12    1
    13    11    12    1
    14    12    13    1
    15     4    14    1
    16    13    14    2
    17     5    15    1
    18    15    16    1
    19    15    17    1
    20    14    18    1
    21    17    18    2
    22    16    19   ar
    23    16    20   ar
