@<TRIPOS>MOLECULE
No_4623-gen_results/8p0m/2024-11-26-14-13-15/
 35 40 0 0 0
SMALL
GASTEIGER

@<TRIPOS>ATOM
      1 C         -28.0162   -0.8135   28.8779 C.ar    1  UNL1        0.0417
      2 C         -28.4690   -0.7850   29.8287 C.ar    1  UNL1        0.0527
      3 C         -26.5455   -0.8762   28.8500 C.ar    1  UNL1        0.1453
      4 C         -25.8041   -1.0324   30.0571 C.ar    1  UNL1        0.0339
      5 C         -27.9437   -0.9869   31.2075 C.ar    1  UNL1       -0.0160
      6 C         -26.5825   -1.0386   31.2231 C.ar    1  UNL1       -0.0010
      7 C         -30.0606   -0.7371   29.9024 C.2     1  UNL1        0.2488
      8 O         -30.5524   -0.2769   29.0111 O.2     1  UNL1       -0.2699
      9 N         -30.7429   -1.2890   30.9939 N.am    1  UNL1       -0.2774
     10 C         -32.1712   -1.2600   30.9749 C.3     1  UNL1        0.0937
     11 C         -24.3688   -1.0881   30.0880 C.ar    1  UNL1       -0.0010
     12 C         -23.7191    0.1798   30.0181 C.ar    1  UNL1       -0.0217
     13 C         -22.4705    0.3023   29.3244 C.ar    1  UNL1       -0.0043
     14 C         -21.7772   -0.9297   29.1374 C.ar    1  UNL1       -0.0003
     15 C         -22.5229   -2.0904   29.0334 C.ar    1  UNL1       -0.0000
     16 C         -23.7970   -2.2172   29.5525 C.ar    1  UNL1       -0.0002
     17 C         -32.7009   -2.0901   31.6988 C.3     1  UNL1        0.0216
     18 C         -32.0037   -2.8799   32.7160 C.3     1  UNL1        0.0035
     19 C         -30.5946   -2.8857   32.6770 C.3     1  UNL1        0.0202
     20 C         -29.9794   -2.1991   31.7748 C.3     1  UNL1        0.0800
     21 C         -28.5459   -2.0138   31.9146 C.3     1  UNL1        0.0463
     22 O         -25.8187   -0.6932   27.7194 O.3     1  UNL1       -0.4535
     23 C         -26.2365    0.1412   26.7700 C.ar    1  UNL1        0.1453
     24 C         -25.5145    0.1229   25.5967 C.ar    1  UNL1        0.0375
     25 C         -27.2120    1.1297   26.8410 C.ar    1  UNL1        0.0375
     26 C         -27.3352    1.8913   26.0615 C.ar    1  UNL1        0.0030
     27 C         -28.4330    2.8885   26.2149 C.ar    1  UNL1        0.0001
     28 C         -29.2719    2.8643   27.2460 C.ar    1  UNL1        0.0000
     29 C         -30.2987    3.7947   27.4133 C.ar    1  UNL1        0.0000
     30 C         -30.4488    4.7324   26.3718 C.ar    1  UNL1        0.0000
     31 C         -29.6871    4.7873   25.2367 C.ar    1  UNL1        0.0000
     32 C         -28.6735    3.9096   25.1647 C.ar    1  UNL1        0.0000
     33 C         -25.6955    0.9607   24.5443 C.ar    1  UNL1        0.0031
     34 C         -26.6975    1.9311   24.7832 C.ar    1  UNL1        0.0002
     35 C         -24.3873    1.4716   30.4339 C.3     1  UNL1        0.0310
@<TRIPOS>BOND
     1     2     7    1
     2     7     8    2
     3     7     9   am
     4     9    10    1
     5     4    11    1
     6    17    18    1
     7     9    20    1
     8    19    20    1
     9     5    21    1
    10    20    21    1
    11     3    22    1
    12    22    23    1
    13    26    27    1
    14    12    35    1
    15    10    17    1
    16    18    19    1
    17    23    24   ar
    18    24    33   ar
    19    33    34   ar
    20    34    26   ar
    21    26    25   ar
    22    25    23   ar
    23    11    12   ar
    24    12    13   ar
    25    13    14   ar
    26    14    15   ar
    27    15    16   ar
    28    16    11   ar
    29    27    28   ar
    30    28    29   ar
    31    29    30   ar
    32    30    31   ar
    33    31    32   ar
    34    32    27   ar
    35     1     2   ar
    36     2     5   ar
    37     5     6   ar
    38     6     4   ar
    39     4     3   ar
    40     3     1   ar
