@<TRIPOS>MOLECULE
No_4624-gen_results/8p0m/2024-11-26-14-13-15/
 15 17 0 0 0
SMALL
GASTEIGER

@<TRIPOS>ATOM
      1 C         -28.0162   -0.8135   28.8779 C.ar    1  UNL1        0.0000
      2 C         -27.0636   -0.1189   28.6079 C.ar    1  UNL1        0.0000
      3 C         -25.7923   -0.4302   29.0761 C.ar    1  UNL1        0.0015
      4 C         -25.5756   -1.5654   29.9363 C.ar    1  UNL1        0.0000
      5 C         -26.7354   -2.3004   30.2173 C.ar    1  UNL1        0.0000
      6 C         -27.9184   -1.9537   29.7629 C.ar    1  UNL1        0.0000
      7 C         -27.1057    1.1023   27.7593 C.ar    1  UNL1       -0.0000
      8 C         -26.1220    1.4820   27.0232 C.ar    1  UNL1       -0.0002
      9 C         -24.7142    1.1299   27.4889 C.ar    1  UNL1       -0.0010
     10 C         -24.5718    0.0966   28.4066 C.ar    1  UNL1        0.0189
     11 C         -23.5495    1.7790   26.9027 C.ar    1  UNL1       -0.0027
     12 C         -23.4774    2.3945   25.6957 C.3     1  UNL1        0.0327
     13 C         -22.3219    1.6591   27.7076 C.ar    1  UNL1        0.0946
     14 N         -22.2713    1.2496   28.9085 N.ar    1  UNL1       -0.2426
     15 C         -23.3696    0.2986   29.2424 C.ar    1  UNL1        0.0988
@<TRIPOS>BOND
     1    12    11    1
     2     1     2   ar
     3     3     4   ar
     4     4     5   ar
     5     5     6   ar
     6     6     1   ar
     7    10    15   ar
     8    15    14   ar
     9    14    13   ar
    10    13    11   ar
    11    11     9   ar
    12     2     3   ar
    13     3    10   ar
    14    10     9   ar
    15     9     8   ar
    16     8     7   ar
    17     7     2   ar
