@<TRIPOS>MOLECULE
No_4625-gen_results/8p0m/2024-11-26-14-13-15/
 16 18 0 0 0
SMALL
GASTEIGER

@<TRIPOS>ATOM
      1 C         -28.0162   -0.8135   28.8779 C.ar    1  UNL1        0.0015
      2 C         -27.0636   -0.1189   28.6079 C.ar    1  UNL1        0.0000
      3 C         -25.7923   -0.4302   29.0761 C.ar    1  UNL1        0.0000
      4 C         -25.5756   -1.5654   29.9363 C.ar    1  UNL1        0.0001
      5 C         -26.7354   -2.3004   30.2173 C.ar    1  UNL1        0.0030
      6 C         -27.9184   -1.9537   29.7629 C.ar    1  UNL1        0.0192
      7 C         -27.1057    1.1023   27.7593 C.ar    1  UNL1        0.0000
      8 C         -26.7157    2.2350   27.9945 C.ar    1  UNL1        0.0000
      9 C         -27.6806    0.8547   26.4259 C.ar    1  UNL1        0.0000
     10 C         -26.6450    3.3558   27.2180 C.ar    1  UNL1        0.0000
     11 C         -27.7440    1.9438   25.5228 C.ar    1  UNL1        0.0000
     12 C         -27.2247    3.2210   25.9315 C.ar    1  UNL1        0.0000
     13 C         -29.0600   -2.7834   30.2120 C.ar    1  UNL1        0.0988
     14 N         -28.9532   -4.0630   30.5310 N.ar    1  UNL1       -0.2423
     15 C         -27.9196   -4.6361   30.4509 C.ar    1  UNL1        0.0989
     16 C         -26.6234   -3.8888   30.3927 C.ar    1  UNL1        0.0207
@<TRIPOS>BOND
     1     2     7    1
     2     1     2   ar
     3     2     3   ar
     4     3     4   ar
     5     4     5   ar
     6     6     1   ar
     7     5     6   ar
     8     6    13   ar
     9    13    14   ar
    10    14    15   ar
    11    15    16   ar
    12    16     5   ar
    13     7     8   ar
    14     8    10   ar
    15    10    12   ar
    16    12    11   ar
    17    11     9   ar
    18     9     7   ar
