@<TRIPOS>MOLECULE
No_4626-gen_results/8p0m/2024-11-26-14-13-15/
 18 19 0 0 0
SMALL
GASTEIGER

@<TRIPOS>ATOM
      1 C         -28.0162   -0.8135   28.8779 C.ar    1  UNL1        0.0085
      2 C         -28.4690   -0.7850   29.8287 C.ar    1  UNL1        0.0003
      3 C         -28.1960    0.3478   28.0550 C.ar    1  UNL1        0.0923
      4 C         -29.0191    1.3501   28.3782 C.ar    1  UNL1        0.0085
      5 C         -29.6249    1.2683   29.6012 C.ar    1  UNL1        0.0003
      6 C         -29.3791    0.1469   30.3923 C.ar    1  UNL1        0.0000
      7 P         -27.2964    0.4000   26.4654 P.3     1  UNL1        0.4152
      8 O         -27.9835    0.2563   25.5005 O.2     1  UNL1       -0.2391
      9 O         -26.7131    1.9065   26.5583 O.3     1  UNL1       -0.2797
     10 O         -26.0060   -0.3719   26.6560 O.3     1  UNL1       -0.4161
     11 C         -24.8418    0.2304   27.2178 C.ar    1  UNL1        0.1856
     12 C         -24.2447   -0.5385   28.3130 C.ar    1  UNL1        0.0407
     13 C         -23.9696    0.1501   29.4366 C.ar    1  UNL1        0.0033
     14 C         -23.6107    1.5687   29.2884 C.ar    1  UNL1        0.0035
     15 C         -24.1113    2.2661   28.1275 C.ar    1  UNL1        0.0452
     16 C         -24.7582    1.5244   27.1561 C.ar    1  UNL1        0.2297
     17 O         -24.7029    2.0054   25.9412 O.3     1  UNL1       -0.2833
     18 C         -27.5686    2.9683   26.8169 C.3     1  UNL1        0.1852
@<TRIPOS>BOND
     1     3     7    1
     2     7     8    2
     3     7     9    1
     4     7    10    1
     5    10    11    1
     6    16    17    1
     7     9    18    1
     8    11    12   ar
     9    12    13   ar
    10    13    14   ar
    11    14    15   ar
    12    15    16   ar
    13    16    11   ar
    14     1     2   ar
    15     2     6   ar
    16     6     5   ar
    17     5     4   ar
    18     4     3   ar
    19     3     1   ar
