@<TRIPOS>MOLECULE
No_4628-gen_results/8p0m/2024-11-26-14-13-15/
 22 24 0 0 0
SMALL
GASTEIGER

@<TRIPOS>ATOM
      1 C         -28.0162   -0.8135   28.8779 C.ar    1  UNL1        0.0497
      2 C         -28.4690   -0.7850   29.8287 C.2     1  UNL1        0.2488
      3 C         -28.1816    0.4277   28.1134 C.ar    1  UNL1        0.0042
      4 C         -27.4498    0.6435   26.8500 C.ar    1  UNL1        0.0001
      5 C         -26.1815    0.0357   26.7145 C.ar    1  UNL1       -0.0003
      6 C         -25.7800   -0.9326   27.6938 C.ar    1  UNL1       -0.0041
      7 C         -26.5568   -1.2134   28.7413 C.ar    1  UNL1       -0.0160
      8 N         -28.3021   -1.9782   30.6613 N.am    1  UNL1       -0.2740
      9 O         -29.1868    0.0184   30.4724 O.2     1  UNL1       -0.2699
     10 C         -27.5726   -3.0608   30.2213 C.3     1  UNL1        0.0985
     11 C         -26.3426   -2.6639   29.5050 C.3     1  UNL1        0.0497
     12 C         -29.2541   -2.4106   31.7945 C.3     1  UNL1        0.1152
     13 C         -25.0915   -3.2811   29.4049 C.3     1  UNL1        0.0706
     14 C         -23.9303   -2.7107   29.9157 C.3     1  UNL1        0.0086
     15 C         -25.1300   -4.6120   28.9204 C.2     1  UNL1        0.2073
     16 C         -27.7555    1.6766   25.9165 C.ar    1  UNL1        0.0000
     17 C         -27.1839    2.8744   26.2380 C.ar    1  UNL1        0.0000
     18 C         -28.6255    1.4541   24.8621 C.ar    1  UNL1        0.0000
     19 C         -29.5818    2.3097   24.5715 C.ar    1  UNL1        0.0000
     20 C         -29.2633    3.7741   24.7659 C.ar    1  UNL1        0.0000
     21 C         -28.1274    3.9791   25.7522 C.ar    1  UNL1        0.0000
     22 O         -26.1336   -5.2485   28.7999 O.2     1  UNL1       -0.2883
@<TRIPOS>BOND
     1     1     2    1
     2     2     8   am
     3     2     9    2
     4     8    10    1
     5     7    11    1
     6    10    11    1
     7     8    12    1
     8    11    13    1
     9    13    14    1
    10    13    15    1
    11     4    16    1
    12    15    22    2
    13    16    17   ar
    14    17    21   ar
    15    21    20   ar
    16    20    19   ar
    17    19    18   ar
    18    18    16   ar
    19     1     3   ar
    20     3     4   ar
    21     4     5   ar
    22     5     6   ar
    23     6     7   ar
    24     7     1   ar
