@<TRIPOS>MOLECULE
No_4629-gen_results/8p0m/2024-11-26-14-13-15/
 16 17 0 0 0
SMALL
GASTEIGER

@<TRIPOS>ATOM
      1 C         -28.0162   -0.8135   28.8779 C.ar    1  UNL1        0.0144
      2 C         -28.4690   -0.7850   29.8287 C.ar    1  UNL1        0.0429
      3 C         -27.1356    0.2359   28.5352 C.ar    1  UNL1        0.0542
      4 C         -26.8745    1.2825   29.3982 C.ar    1  UNL1       -0.0043
      5 C         -28.3613    0.1987   30.9244 C.ar    1  UNL1        0.1955
      6 C         -27.5277    1.2234   30.6356 C.ar    1  UNL1        0.0389
      7 CL        -26.2846    0.2758   27.0339 Cl      1  UNL1       -0.0826
      8 O         -29.0188    0.0871   32.1303 O.3     1  UNL1       -0.2866
      9 C         -25.9786    2.4021   29.0706 C.3     1  UNL1        0.0506
     10 C         -26.0326    3.0780   27.8750 C.2     1  UNL1       -0.0221
     11 C         -27.0091    3.7109   27.4862 C.2     1  UNL1       -0.0071
     12 C         -26.9826    4.3260   26.1387 C.2     1  UNL1       -0.0038
     13 C         -25.9154    3.9226   25.3511 C.2     1  UNL1       -0.0073
     14 C         -24.9918    2.9708   26.7972 C.3     1  UNL1        0.1319
     15 C         -23.7902    2.4601   26.5473 C.1     1  UNL1        0.0807
     16 N         -22.6656    1.9378   26.3942 N.1     1  UNL1       -0.1952
@<TRIPOS>BOND
     1     3     7    1
     2     5     8    1
     3     4     9    1
     4     9    10    1
     5    10    11    2
     6    11    12    1
     7    12    13    2
     8    10    14    1
     9    13    14    1
    10    14    15    1
    11    15    16    3
    12     1     2   ar
    13     2     5   ar
    14     5     6   ar
    15     6     4   ar
    16     4     3   ar
    17     3     1   ar
