@<TRIPOS>MOLECULE
No_4630-gen_results/8p0m/2024-11-26-14-13-15/
 22 23 0 0 0
SMALL
GASTEIGER

@<TRIPOS>ATOM
      1 C         -28.0162   -0.8135   28.8779 C.ar    1  UNL1        0.0047
      2 C         -28.4690   -0.7850   29.8287 C.ar    1  UNL1        0.0554
      3 C         -26.5042   -0.7777   28.8766 C.ar    1  UNL1        0.0047
      4 C         -25.8103   -0.8531   30.1028 C.ar    1  UNL1        0.0550
      5 C         -27.9906   -0.8916   31.2257 C.ar    1  UNL1        0.0047
      6 C         -26.6042   -0.8676   31.2652 C.ar    1  UNL1        0.0047
      7 C         -24.3894   -0.8050   30.1638 C.2     1  UNL1        0.2648
      8 N         -23.6730   -1.0587   29.2511 N.am    1  UNL1       -0.1998
      9 C         -22.2987   -0.7318   29.2069 C.3     1  UNL1        0.1388
     10 O         -23.8589   -0.6153   31.3627 O.2     1  UNL1       -0.2684
     11 C         -30.0907   -0.7962   29.8287 C.2     1  UNL1        0.2690
     12 O         -30.5084   -0.3365   28.8716 O.2     1  UNL1       -0.2680
     13 N         -30.8049   -1.2869   30.8581 N.am    1  UNL1       -0.1754
     14 C         -32.2476   -1.2706   30.7794 C.ar    1  UNL1        0.0737
     15 C         -32.9391   -0.6205   30.3258 C.ar    1  UNL1        0.0166
     16 C         -33.8445   -0.2070   30.2132 C.ar    1  UNL1        0.0013
     17 C         -34.7696   -0.4610   31.3428 C.ar    1  UNL1        0.0001
     18 C         -34.2225   -1.3905   32.2616 C.ar    1  UNL1        0.0010
     19 C         -32.8367   -1.6875   32.1501 C.ar    1  UNL1        0.0166
     20 C         -34.9547   -1.7994   33.4845 C.2     1  UNL1       -0.0045
     21 C         -34.7214   -1.1435   34.5852 C.2     1  UNL1       -0.0258
     22 C         -35.4116   -1.5763   35.7993 C.3     1  UNL1        0.0307
@<TRIPOS>BOND
     1     4     7    1
     2     7     8   am
     3     8     9    1
     4     7    10    2
     5     2    11    1
     6    11    12    2
     7    11    13   am
     8    13    14    1
     9    18    20    1
    10    20    21    2
    11    21    22    1
    12    14    15   ar
    13    15    16   ar
    14    16    17   ar
    15    17    18   ar
    16    18    19   ar
    17    19    14   ar
    18     1     2   ar
    19     2     5   ar
    20     5     6   ar
    21     6     4   ar
    22     4     3   ar
    23     3     1   ar
