@<TRIPOS>MOLECULE
No_4631-gen_results/8p0m/2024-11-26-14-13-15/
 35 38 0 0 0
SMALL
GASTEIGER

@<TRIPOS>ATOM
      1 O         -28.1229   -1.3353   28.4874 O.2     1  UNL1       -0.2684
      2 C         -27.4806   -0.4044   28.7094 C.2     1  UNL1        0.2651
      3 N         -26.4599   -0.1104   28.0051 N.am    1  UNL1       -0.1971
      4 C         -26.1476   -0.4948   26.8760 C.3     1  UNL1        0.1379
      5 C         -27.6421    0.4982   29.9779 C.ar    1  UNL1        0.0553
      6 C         -28.6119    0.4386   30.6246 C.ar    1  UNL1        0.0046
      7 C         -28.7830    1.2025   31.7777 C.ar    1  UNL1        0.0004
      8 C         -27.7572    2.1448   32.1191 C.ar    1  UNL1        0.0066
      9 C         -26.5881    2.1998   31.3265 C.ar    1  UNL1        0.0799
     10 C         -26.4555    1.3126   30.2047 C.ar    1  UNL1        0.0111
     11 C         -26.0492    0.6678   25.8288 C.2     1  UNL1       -0.0183
     12 C         -26.6878    0.5042   24.7488 C.2     1  UNL1       -0.0065
     13 C         -24.9903    1.6338   25.9770 C.3     1  UNL1        0.0500
     14 C         -23.8411    1.5434   26.6885 C.ar    1  UNL1       -0.0184
     15 C         -22.7279    2.3241   26.6710 C.ar    1  UNL1       -0.0040
     16 C         -21.6896    2.1722   27.5617 C.ar    1  UNL1       -0.0006
     17 C         -21.6694    0.9790   28.4228 C.ar    1  UNL1       -0.0043
     18 C         -22.7613    0.1878   28.4646 C.ar    1  UNL1       -0.0228
     19 C         -23.8026    0.4362   27.6768 C.ar    1  UNL1       -0.0082
     20 C         -22.8284   -0.9113   29.4538 C.3     1  UNL1        0.0223
     21 C         -22.2779   -0.7285   30.7438 C.3     1  UNL1        0.0047
     22 C         -23.6051   -2.0580   29.0923 C.3     1  UNL1        0.0047
     23 C         -25.4815    3.0880   31.6647 C.2     1  UNL1        0.3878
     24 O         -25.4509    3.7348   32.5747 O.co2   1  UNL1       -0.2406
     25 O         -24.3944    2.8397   30.9891 O.co2   1  UNL1       -0.2406
     26 C         -27.8127    1.3963   24.4720 C.ar    1  UNL1       -0.0006
     27 C         -29.0043    1.0771   23.8298 C.ar    1  UNL1       -0.0000
     28 C         -30.0066    1.9932   23.7366 C.ar    1  UNL1       -0.0000
     29 C         -31.2263    1.8390   23.0915 C.ar    1  UNL1       -0.0000
     30 C         -32.1100    2.8755   22.7944 C.ar    1  UNL1        0.0000
     31 C         -31.9903    4.0671   23.5357 C.ar    1  UNL1        0.0000
     32 C         -30.9327    4.1974   24.4431 C.ar    1  UNL1        0.0000
     33 C         -29.8957    3.2654   24.5173 C.ar    1  UNL1       -0.0000
     34 C         -27.7114    2.7649   25.0966 C.ar    1  UNL1       -0.0000
     35 C         -28.6833    3.5290   25.1831 C.ar    1  UNL1       -0.0000
@<TRIPOS>BOND
     1     1     2    2
     2     2     3   am
     3     3     4    1
     4     2     5    1
     5     4    11    1
     6    11    12    2
     7    11    13    1
     8    13    14    1
     9    18    20    1
    10    20    21    1
    11    20    22    1
    12     9    23    1
    13    23    24   ar
    14    23    25   ar
    15    12    26    1
    16    26    27   ar
    17    27    28   ar
    18    33    35   ar
    19    35    34   ar
    20    34    26   ar
    21    14    15   ar
    22    15    16   ar
    23    16    17   ar
    24    17    18   ar
    25    18    19   ar
    26    19    14   ar
    27     5     6   ar
    28     6     7   ar
    29     7     8   ar
    30     8     9   ar
    31     9    10   ar
    32    10     5   ar
    33    28    29   ar
    34    29    30   ar
    35    30    31   ar
    36    31    32   ar
    37    32    33   ar
    38    33    28   ar
