@<TRIPOS>MOLECULE
No_4632-gen_results/8p0m/2024-11-26-14-13-15/
 8 7 0 0 0
SMALL
GASTEIGER

@<TRIPOS>ATOM
      1 C         -28.0162   -0.8135   28.8779 C.2     1  UNL1       -0.0261
      2 C         -28.4690   -0.7850   29.8287 C.3     1  UNL1        0.0260
      3 C         -27.0871    0.2903   28.6377 C.2     1  UNL1       -0.0046
      4 C         -26.8317    1.2487   29.5869 C.2     1  UNL1       -0.0003
      5 C         -29.4442   -1.9481   30.1840 C.3     1  UNL1        0.0050
      6 C         -25.8993    2.3664   29.3888 C.2     1  UNL1       -0.0000
      7 C         -25.2686    2.4469   28.6039 C.2     1  UNL1       -0.0000
      8 C         -25.2678    1.5395   27.4195 C.2     1  UNL1       -0.0000
@<TRIPOS>BOND
     1     1     2    1
     2     1     3    2
     3     3     4    1
     4     2     5    1
     5     4     6    2
     6     6     7    1
     7     7     8    2
