@<TRIPOS>MOLECULE
No_4633-gen_results/8p0m/2024-11-26-14-13-15/
 17 18 0 0 0
SMALL
GASTEIGER

@<TRIPOS>ATOM
      1 C         -28.0162   -0.8135   28.8779 C.ar    1  UNL1       -0.0000
      2 C         -27.0636   -0.1189   28.6079 C.ar    1  UNL1       -0.0000
      3 C         -26.9716    0.7139   27.5060 C.ar    1  UNL1       -0.0003
      4 C         -28.1053    0.7744   26.6421 C.ar    1  UNL1       -0.0000
      5 C         -29.2041    0.1179   27.0477 C.ar    1  UNL1       -0.0000
      6 C         -29.2127   -0.6088   28.1281 C.ar    1  UNL1       -0.0000
      7 C         -25.7106    1.4518   27.1380 C.2     1  UNL1       -0.0039
      8 C         -25.2074    2.4128   27.9320 C.2     1  UNL1       -0.0177
      9 C         -25.7865    2.9013   29.1063 C.3     1  UNL1        0.0661
     10 C         -25.3934    2.2363   30.1592 C.ar    1  UNL1       -0.0143
     11 C         -25.9217    2.6613   31.4739 C.ar    1  UNL1       -0.0036
     12 C         -25.6743    1.9916   32.6976 C.ar    1  UNL1       -0.0003
     13 C         -25.0075    0.7586   32.5546 C.ar    1  UNL1       -0.0000
     14 C         -24.4973    0.3346   31.3733 C.ar    1  UNL1       -0.0003
     15 C         -24.6673    1.0788   30.1736 C.ar    1  UNL1       -0.0036
     16 C         -26.7418    3.9378   28.9713 C.2     1  UNL1       -0.0177
     17 C         -26.3881    5.1930   28.9046 C.2     1  UNL1       -0.0042
@<TRIPOS>BOND
     1     3     7    1
     2     7     8    2
     3     8     9    1
     4     9    10    1
     5     9    16    1
     6    16    17    2
     7     1     2   ar
     8     2     3   ar
     9     3     4   ar
    10     4     5   ar
    11     5     6   ar
    12     6     1   ar
    13    10    11   ar
    14    11    12   ar
    15    12    13   ar
    16    13    14   ar
    17    14    15   ar
    18    15    10   ar
