@<TRIPOS>MOLECULE
No_4634-gen_results/8p0m/2024-11-26-14-13-15/
 21 23 0 0 0
SMALL
GASTEIGER

@<TRIPOS>ATOM
      1 C         -28.0162   -0.8135   28.8779 C.ar    1  UNL1        0.0006
      2 C         -28.4690   -0.7850   29.8287 C.ar    1  UNL1        0.0533
      3 C         -26.5042   -0.7777   28.8766 C.ar    1  UNL1       -0.0176
      4 C         -25.6540   -0.6597   27.7191 C.3     1  UNL1        0.0526
      5 C         -27.9180   -0.9374   31.1824 C.ar    1  UNL1        0.0045
      6 C         -26.5423   -0.9399   31.2606 C.ar    1  UNL1       -0.0002
      7 C         -25.7832   -0.8935   30.1201 C.ar    1  UNL1       -0.0039
      8 C         -25.2204    0.6866   27.3939 C.ar    1  UNL1       -0.0178
      9 C         -23.9014    0.8981   27.7598 C.ar    1  UNL1       -0.0039
     10 C         -23.2620    2.1173   27.2513 C.ar    1  UNL1       -0.0003
     11 C         -23.9515    2.9749   26.4625 C.ar    1  UNL1       -0.0000
     12 C         -25.8717    1.4893   26.4729 C.ar    1  UNL1       -0.0039
     13 C         -25.2452    2.6238   26.0239 C.ar    1  UNL1       -0.0003
     14 C         -30.0119   -0.7119   29.6503 C.2     1  UNL1        0.2490
     15 O         -30.7746   -1.3898   30.2151 O.2     1  UNL1       -0.2699
     16 N         -30.4181    0.4876   29.1274 N.am    1  UNL1       -0.2761
     17 C         -31.8111    0.7460   28.8818 C.3     1  UNL1        0.0937
     18 C         -32.1138    1.6004   28.2884 C.3     1  UNL1        0.0216
     19 C         -31.5948    2.2620   27.7280 C.3     1  UNL1        0.0035
     20 C         -30.0790    2.2551   27.7237 C.3     1  UNL1        0.0216
     21 C         -29.5213    1.3015   28.3934 C.3     1  UNL1        0.0937
@<TRIPOS>BOND
     1     3     4    1
     2     4     8    1
     3     2    14    1
     4    14    15    2
     5    14    16   am
     6    16    17    1
     7    18    19    1
     8    16    21    1
     9    20    21    1
    10    17    18    1
    11    19    20    1
    12     1     2   ar
    13     2     5   ar
    14     5     6   ar
    15     6     7   ar
    16     7     3   ar
    17     3     1   ar
    18     8     9   ar
    19     9    10   ar
    20    10    11   ar
    21    11    13   ar
    22    13    12   ar
    23    12     8   ar
