@<TRIPOS>MOLECULE
No_4635-gen_results/8p0m/2024-11-26-14-13-15/
 35 37 0 0 0
SMALL
GASTEIGER

@<TRIPOS>ATOM
      1 O         -28.1229   -1.3353   28.4874 O.2     1  UNL1       -0.2745
      2 C         -27.4806   -0.4044   28.7094 C.2     1  UNL1        0.2301
      3 C         -26.3804   -0.0867   27.9395 C.3     1  UNL1        0.0924
      4 N         -27.6664    0.4468   29.8988 N.am    1  UNL1       -0.2583
      5 C         -25.1773   -0.4388   28.3946 C.3     1  UNL1        0.0168
      6 C         -24.8702   -0.1050   29.8315 C.3     1  UNL1        0.0494
      7 C         -26.1926    0.2176   30.5619 C.3     1  UNL1        0.1029
      8 C         -26.5124    1.2141   27.1793 C.3     1  UNL1        0.0888
      9 CL        -26.1616    2.2372   27.1795 Cl      1  UNL1       -0.1145
     10 C         -27.3517    0.7086   25.8392 C.3     1  UNL1        0.0214
     11 C         -27.9931    1.5030   25.1733 C.3     1  UNL1        0.0276
     12 C         -29.2743    1.7444   25.4436 C.ar    1  UNL1       -0.0219
     13 C         -30.0324    2.6866   24.6218 C.ar    1  UNL1       -0.0043
     14 C         -31.3252    3.0723   24.8539 C.ar    1  UNL1       -0.0001
     15 C         -31.9759    2.4462   25.8926 C.ar    1  UNL1        0.0066
     16 C         -31.3727    1.5374   26.6839 C.ar    1  UNL1        0.0795
     17 C         -30.0572    1.2263   26.5050 C.ar    1  UNL1        0.0023
     18 C         -28.7413    0.1179   30.7476 C.ar    1  UNL1        0.0538
     19 C         -32.1510    0.9547   27.8525 C.2     1  UNL1        0.3877
     20 O         -32.1491    1.2856   28.9305 O.co2   1  UNL1       -0.2406
     21 O         -33.0139    0.0597   27.3894 O.co2   1  UNL1       -0.2406
     22 C         -23.6738   -0.2343   30.5369 C.2     1  UNL1        0.0313
     23 C         -23.5119   -0.3205   31.6636 C.1     1  UNL1       -0.0150
     24 C         -22.5037    0.0157   29.6477 C.3     1  UNL1        0.1480
     25 N         -22.4702    0.5571   28.5326 N.am    1  UNL1       -0.1806
     26 C         -21.3194    1.0618   27.9533 C.2     1  UNL1        0.3593
     27 N         -21.5069    1.9444   26.9296 N.am    1  UNL1       -0.0679
     28 O         -20.2628    0.6209   28.2696 O.2     1  UNL1       -0.2474
     29 C         -28.9293   -0.8545   31.5172 C.ar    1  UNL1        0.0149
     30 C         -30.0729   -1.0699   32.3133 C.ar    1  UNL1        0.0013
     31 C         -31.1456   -0.1317   32.1271 C.ar    1  UNL1        0.0001
     32 C         -30.8906    1.0113   31.3754 C.ar    1  UNL1        0.0013
     33 C         -29.7612    1.2059   30.6538 C.ar    1  UNL1        0.0149
     34 N         -23.9164   -0.8360   32.7718 N.2     1  UNL1       -0.2271
     35 C         -23.5041   -1.5773   33.5919 C.3     1  UNL1        0.1625
@<TRIPOS>BOND
     1     1     2    2
     2     2     3    1
     3     2     4   am
     4     5     6    1
     5     4     7    1
     6     3     8    1
     7     8     9    1
     8     8    10    1
     9    10    11    1
    10    11    12    1
    11     4    18    1
    12    16    19    1
    13    19    20   ar
    14    19    21   ar
    15     6    22    1
    16    22    23    2
    17    22    24    1
    18    24    25    1
    19    25    26   am
    20    26    27   am
    21    26    28    2
    22    23    34    2
    23    34    35    1
    24     3     5    1
    25     6     7    1
    26    12    13   ar
    27    13    14   ar
    28    14    15   ar
    29    15    16   ar
    30    16    17   ar
    31    17    12   ar
    32    18    29   ar
    33    29    30   ar
    34    30    31   ar
    35    31    32   ar
    36    32    33   ar
    37    33    18   ar
