@<TRIPOS>MOLECULE
No_4636-gen_results/8p0m/2024-11-26-14-13-15/
 18 19 0 0 0
SMALL
GASTEIGER

@<TRIPOS>ATOM
      1 O         -28.1229   -1.3353   28.4874 O.2     1  UNL1       -0.2540
      2 C         -27.4806   -0.4044   28.7094 C.2     1  UNL1        0.3361
      3 C         -26.3804   -0.0867   27.9394 C.ar    1  UNL1        0.0989
      4 F         -27.7306    0.3455   29.8481 F       1  UNL1       -0.1585
      5 C         -26.5062    0.7764   26.8083 C.ar    1  UNL1        0.1438
      6 C         -25.0418   -0.5004   28.2767 C.ar    1  UNL1        0.0006
      7 C         -25.3567    1.0257   25.9728 C.ar    1  UNL1        0.0371
      8 C         -23.8743   -0.1058   27.5371 C.ar    1  UNL1       -0.0026
      9 C         -24.0847    0.7224   26.3910 C.ar    1  UNL1        0.0028
     10 O         -27.5631    1.0959   26.1939 O.3     1  UNL1       -0.4713
     11 C         -28.1016    2.2571   26.5420 C.3     1  UNL1        0.2525
     12 C         -24.7821   -1.3682   29.4449 C.3     1  UNL1        0.0804
     13 C         -23.6112   -1.5560   29.9988 C.3     1  UNL1        0.0205
     14 C         -23.6349   -2.1740   31.2638 C.3     1  UNL1        0.0032
     15 C         -24.8273   -2.0129   31.9680 C.3     1  UNL1        0.0174
     16 C         -25.7566   -1.1902   31.3702 C.3     1  UNL1        0.0724
     17 N         -25.9453   -1.5386   30.0752 N.3     1  UNL1       -0.2691
     18 C         -25.8714   -3.0441   30.5519 C.3     1  UNL1        0.0899
@<TRIPOS>BOND
     1     1     2    2
     2     2     3    1
     3     2     4    1
     4     5    10    1
     5    10    11    1
     6     6    12    1
     7    13    14    1
     8    15    16    1
     9    12    17    1
    10    16    17    1
    11    17    18    1
    12    12    13    1
    13    14    15    1
    14     3     5   ar
    15     5     7   ar
    16     7     9   ar
    17     9     8   ar
    18     8     6   ar
    19     6     3   ar
