@<TRIPOS>MOLECULE
No_4637-gen_results/8p0m/2024-11-26-14-13-15/
 11 12 0 0 0
SMALL
GASTEIGER

@<TRIPOS>ATOM
      1 C         -28.0162   -0.8135   28.8779 C.ar    1  UNL1       -0.0000
      2 C         -27.0636   -0.1190   28.6079 C.ar    1  UNL1       -0.0000
      3 C         -26.9287    1.1713   29.0083 C.ar    1  UNL1       -0.0003
      4 C         -27.9560    1.7411   29.7840 C.ar    1  UNL1       -0.0000
      5 C         -29.0569   -0.3271   29.7466 C.ar    1  UNL1       -0.0000
      6 C         -28.9828    0.9722   30.1516 C.ar    1  UNL1       -0.0000
      7 C         -25.8815   -0.6260   27.7945 C.ar    1  UNL1       -0.0003
      8 C         -24.5472   -0.2311   28.2390 C.ar    1  UNL1       -0.0043
      9 C         -24.3284    1.1339   28.3333 C.ar    1  UNL1       -0.0218
     10 C         -25.5360    1.7883   29.0936 C.ar    1  UNL1       -0.0043
     11 C         -23.0927    1.4234   29.1649 C.3     1  UNL1        0.0310
@<TRIPOS>BOND
     1     9    11    1
     2     1     2   ar
     3     3     4   ar
     4     4     6   ar
     5     6     5   ar
     6     5     1   ar
     7     2     3   ar
     8     3    10   ar
     9    10     9   ar
    10     9     8   ar
    11     8     7   ar
    12     7     2   ar
