@<TRIPOS>MOLECULE
No_4638-gen_results/8p0m/2024-11-26-14-13-15/
 21 23 0 0 0
SMALL
GASTEIGER

@<TRIPOS>ATOM
      1 C         -28.0162   -0.8135   28.8779 C.ar    1  UNL1        0.0006
      2 C         -28.4690   -0.7850   29.8287 C.ar    1  UNL1        0.0533
      3 C         -26.5042   -0.7777   28.8766 C.ar    1  UNL1       -0.0180
      4 C         -25.8103   -0.8531   30.1028 C.ar    1  UNL1       -0.0039
      5 C         -27.9906   -0.8916   31.2257 C.ar    1  UNL1        0.0045
      6 C         -26.6042   -0.8676   31.2652 C.ar    1  UNL1       -0.0002
      7 C         -30.0739   -0.8360   29.8615 C.2     1  UNL1        0.2490
      8 O         -30.6891   -1.6554   30.2229 O.2     1  UNL1       -0.2699
      9 N         -30.6022    0.4333   29.5984 N.am    1  UNL1       -0.2761
     10 C         -32.0098    0.5508   29.4757 C.3     1  UNL1        0.0937
     11 C         -32.3458    1.5388   28.7508 C.3     1  UNL1        0.0216
     12 C         -31.4426    2.5780   28.2707 C.3     1  UNL1        0.0035
     13 C         -30.0496    2.3198   28.4141 C.3     1  UNL1        0.0199
     14 C         -29.6438    1.2549   28.9641 C.3     1  UNL1        0.0937
     15 C         -25.6593   -0.6799   27.6651 C.3     1  UNL1        0.0486
     16 C         -25.8785    0.3579   26.7255 C.2     1  UNL1       -0.0355
     17 C         -25.5380    1.3730   26.6713 C.2     1  UNL1       -0.0082
     18 C         -25.7283    2.3149   25.5272 C.2     1  UNL1       -0.0049
     19 C         -26.7213    1.8650   24.6681 C.2     1  UNL1       -0.0218
     20 C         -26.9003    0.1550   25.5828 C.3     1  UNL1        0.0483
     21 C         -29.1661    3.3801   27.7893 C.3     1  UNL1        0.0018
@<TRIPOS>BOND
     1     2     7    1
     2     7     8    2
     3     7     9   am
     4     9    10    1
     5    11    12    1
     6     9    14    1
     7    13    14    1
     8     3    15    1
     9    15    16    1
    10    16    17    2
    11    17    18    1
    12    18    19    2
    13    16    20    1
    14    19    20    1
    15    13    21    1
    16    10    11    1
    17    12    13    1
    18     1     2   ar
    19     2     5   ar
    20     5     6   ar
    21     6     4   ar
    22     4     3   ar
    23     3     1   ar
