@<TRIPOS>MOLECULE
No_4639-gen_results/8p0m/2024-11-26-14-13-15/
 8 7 0 0 0
SMALL
GASTEIGER

@<TRIPOS>ATOM
      1 F         -28.0727   -1.2542   28.5316 F       1  UNL1       -0.2018
      2 C         -28.2662   -0.4214   29.1931 C.2     1  UNL1        0.1674
      3 C         -29.4445    0.0759   29.3394 C.2     1  UNL1        0.0320
      4 C         -30.4824   -0.5033   28.5961 C.2     1  UNL1        0.0024
      5 C         -31.4705    0.1795   28.1376 C.2     1  UNL1       -0.0003
      6 C         -31.7886    1.4060   28.8380 C.2     1  UNL1       -0.0046
      7 C         -30.9077    1.9587   29.7024 C.2     1  UNL1       -0.0258
      8 C         -31.1458    3.1846   30.3585 C.3     1  UNL1        0.0307
@<TRIPOS>BOND
     1     1     2    1
     2     2     3    2
     3     3     4    1
     4     4     5    2
     5     5     6    1
     6     6     7    2
     7     7     8    1
