@<TRIPOS>MOLECULE
No_4640-gen_results/8p0m/2024-11-26-14-13-15/
 14 15 0 0 0
SMALL
GASTEIGER

@<TRIPOS>ATOM
      1 C         -28.0162   -0.8135   28.8779 C.ar    1  UNL1       -0.0039
      2 C         -28.4690   -0.7850   29.8287 C.ar    1  UNL1       -0.0003
      3 C         -28.1816    0.4277   28.1134 C.ar    1  UNL1       -0.0178
      4 C         -28.9841    1.4155   28.5154 C.ar    1  UNL1       -0.0039
      5 C         -29.3802    0.1384   30.4612 C.ar    1  UNL1       -0.0000
      6 C         -29.5415    1.2736   29.7242 C.ar    1  UNL1       -0.0003
      7 C         -27.4586    0.4934   26.7701 C.3     1  UNL1        0.0526
      8 C         -26.4813    1.5210   26.6301 C.ar    1  UNL1       -0.0178
      9 C         -25.2822    1.2076   26.0515 C.ar    1  UNL1       -0.0043
     10 C         -24.2953    0.9566   26.3530 C.ar    1  UNL1       -0.0046
     11 C         -23.7780    1.6964   27.6169 C.ar    1  UNL1       -0.0219
     12 C         -24.8455    2.3658   28.2732 C.ar    1  UNL1       -0.0046
     13 C         -26.1668    2.1818   27.9242 C.ar    1  UNL1       -0.0043
     14 C         -22.4224    1.7540   28.0064 C.3     1  UNL1        0.0310
@<TRIPOS>BOND
     1     3     7    1
     2     7     8    1
     3    11    14    1
     4     8     9   ar
     5     9    10   ar
     6    10    11   ar
     7    11    12   ar
     8    12    13   ar
     9    13     8   ar
    10     1     2   ar
    11     2     5   ar
    12     5     6   ar
    13     6     4   ar
    14     4     3   ar
    15     3     1   ar
