@<TRIPOS>MOLECULE
No_4641-gen_results/8p0m/2024-11-26-14-13-15/
 21 24 0 0 0
SMALL
GASTEIGER

@<TRIPOS>ATOM
      1 C         -28.0162   -0.8135   28.8779 C.ar    1  UNL1        0.0028
      2 C         -27.0636   -0.1189   28.6079 C.ar    1  UNL1        0.0149
      3 C         -27.0010    0.6913   27.4910 C.ar    1  UNL1        0.0531
      4 C         -28.1373    0.7363   26.6350 C.ar    1  UNL1        0.0339
      5 C         -29.2360    0.0765   27.0690 C.ar    1  UNL1        0.0825
      6 C         -29.2177   -0.6429   28.1747 C.ar    1  UNL1        0.0178
      7 N         -30.3516    0.1564   26.2430 N.ar    1  UNL1       -0.2438
      8 C         -31.4313   -0.4312   26.5996 C.ar    1  UNL1        0.0988
      9 C         -31.4825   -1.1210   27.8409 C.ar    1  UNL1        0.0207
     10 C         -30.4093   -1.2929   28.5803 C.ar    1  UNL1        0.0031
     11 N         -25.7813    1.3494   27.1056 N.pl3   1  UNL1       -0.2871
     12 C         -25.2152    2.2472   27.9417 C.ar    1  UNL1        0.0475
     13 C         -23.9903    2.5836   28.1423 C.ar    1  UNL1       -0.0088
     14 C         -26.1769    3.3193   28.4942 C.ar    1  UNL1        0.0145
     15 C         -25.7169    4.3502   29.2627 C.ar    1  UNL1        0.0013
     16 C         -23.4094    3.6494   28.9528 C.ar    1  UNL1       -0.0030
     17 C         -24.3855    4.4767   29.5325 C.ar    1  UNL1       -0.0002
     18 C         -23.1831    1.5031   27.5413 C.3     1  UNL1        0.0253
     19 C         -25.2051    1.0301   25.9171 C.3     1  UNL1        0.0959
     20 C         -23.7207    0.8679   26.3646 C.3     1  UNL1        0.0262
     21 C         -21.8143    1.2837   27.8650 C.3     1  UNL1        0.0048
@<TRIPOS>BOND
     1     3    11    1
     2    11    12    1
     3    13    18    1
     4    11    19    1
     5    18    20    1
     6    19    20    1
     7    18    21    1
     8     1     2   ar
     9     2     3   ar
    10     3     4   ar
    11     4     5   ar
    12     6     1   ar
    13     5     6   ar
    14     6    10   ar
    15    10     9   ar
    16     9     8   ar
    17     8     7   ar
    18     7     5   ar
    19    12    14   ar
    20    14    15   ar
    21    15    17   ar
    22    17    16   ar
    23    16    13   ar
    24    13    12   ar
