@<TRIPOS>MOLECULE
No_4642-gen_results/8p0m/2024-11-26-14-13-15/
 12 12 0 0 0
SMALL
GASTEIGER

@<TRIPOS>ATOM
      1 C         -28.0162   -0.8135   28.8779 C.3     1  UNL1        0.2197
      2 C         -27.0636   -0.1189   28.6079 C.ar    1  UNL1        0.0129
      3 C         -26.9287    1.1713   29.0083 C.ar    1  UNL1       -0.0016
      4 C         -25.7702    2.0341   28.6884 C.ar    1  UNL1        0.0036
      5 C         -24.7141    1.4431   27.9188 C.ar    1  UNL1        0.0714
      6 C         -24.8590    0.0783   27.5836 C.ar    1  UNL1        0.0036
      7 C         -25.9647   -0.6606   27.9164 C.ar    1  UNL1       -0.0016
      8 F         -28.4941   -0.3233   30.1835 F       1  UNL1       -0.2291
      9 C         -23.5289    2.1577   27.5490 C.3     1  UNL1        0.4186
     10 F         -23.1976    2.7891   28.2631 F       1  UNL1       -0.1659
     11 F         -22.6058    1.2089   27.0919 F       1  UNL1       -0.1659
     12 F         -23.8365    2.9176   26.4739 F       1  UNL1       -0.1659
@<TRIPOS>BOND
     1     1     2    1
     2     1     8    1
     3     5     9    1
     4     9    10    1
     5     9    11    1
     6     9    12    1
     7     2     3   ar
     8     3     4   ar
     9     4     5   ar
    10     5     6   ar
    11     6     7   ar
    12     7     2   ar
