@<TRIPOS>MOLECULE
No_4646-gen_results/8p0m/2024-11-26-14-13-15/
 19 21 0 0 0
SMALL
GASTEIGER

@<TRIPOS>ATOM
      1 C         -28.0162   -0.8135   28.8779 C.ar    1  UNL1        0.0114
      2 C         -27.0636   -0.1189   28.6079 C.ar    1  UNL1        0.0577
      3 C         -26.9287    1.1713   29.0083 C.ar    1  UNL1        0.0114
      4 C         -27.9560    1.7411   29.7840 C.ar    1  UNL1        0.0009
      5 C         -29.0569   -0.3271   29.7466 C.ar    1  UNL1        0.0009
      6 C         -28.9828    0.9722   30.1516 C.ar    1  UNL1        0.0001
      7 CL        -25.7352   -0.7297   27.6631 Cl      1  UNL1       -0.0822
      8 C         -30.0810    1.5109   31.0108 C.ar    1  UNL1        0.0000
      9 C         -31.0974    1.1272   31.1365 C.ar    1  UNL1        0.0000
     10 C         -32.1663    1.6750   32.0138 C.ar    1  UNL1        0.0000
     11 C         -31.8208    2.8627   32.6999 C.ar    1  UNL1        0.0000
     12 C         -30.5746    3.3716   32.5479 C.ar    1  UNL1        0.0000
     13 C         -29.6237    2.7680   31.7489 C.ar    1  UNL1        0.0000
     14 C         -32.8194    3.4915   33.5537 C.ar    1  UNL1        0.0000
     15 C         -33.8685    3.8353   33.4796 C.ar    1  UNL1        0.0000
     16 C         -34.7134    4.4691   34.4575 C.ar    1  UNL1        0.0000
     17 C         -32.1873    3.7740   34.9449 C.ar    1  UNL1        0.0000
     18 C         -32.9198    4.3716   35.9159 C.ar    1  UNL1        0.0000
     19 C         -34.1871    4.7294   35.6784 C.ar    1  UNL1        0.0000
@<TRIPOS>BOND
     1     2     7    1
     2     6     8    1
     3    11    14    1
     4     1     2   ar
     5     2     3   ar
     6     3     4   ar
     7     4     6   ar
     8     6     5   ar
     9     5     1   ar
    10     8     9   ar
    11     9    10   ar
    12    10    11   ar
    13    11    12   ar
    14    12    13   ar
    15    13     8   ar
    16    14    15   ar
    17    15    16   ar
    18    16    19   ar
    19    19    18   ar
    20    18    17   ar
    21    17    14   ar
