@<TRIPOS>MOLECULE
No_4648-gen_results/8p0m/2024-11-26-14-13-15/
 16 16 0 0 0
SMALL
GASTEIGER

@<TRIPOS>ATOM
      1 C         -28.0162   -0.8135   28.8779 C.ar    1  UNL1        0.0063
      2 C         -28.4690   -0.7850   29.8287 C.ar    1  UNL1        0.0798
      3 C         -26.5455   -0.8762   28.8500 C.ar    1  UNL1       -0.0037
      4 C         -25.8041   -1.0324   30.0571 C.ar    1  UNL1       -0.0171
      5 C         -30.0055   -0.7457   29.8978 C.2     1  UNL1        0.3878
      6 C         -26.5747   -1.0565   31.2005 C.ar    1  UNL1       -0.0037
      7 C         -27.9251   -0.9738   31.1683 C.ar    1  UNL1        0.0063
      8 O         -30.5868   -0.1155   30.8351 O.co2   1  UNL1       -0.2406
      9 O         -30.6381   -1.3171   28.9448 O.co2   1  UNL1       -0.2406
     10 C         -24.3546   -1.1084   30.0492 C.3     1  UNL1        0.0627
     11 C         -23.6948    0.1422   30.0091 C.2     1  UNL1        0.0463
     12 C         -22.4702    0.2949   29.2714 C.2     1  UNL1       -0.0199
     13 C         -21.9219    1.4996   28.9566 C.3     1  UNL1        0.0264
     14 C         -21.0887    1.4814   27.7899 C.3     1  UNL1        0.0050
     15 C         -24.1770    1.2671   30.7734 C.1     1  UNL1        0.0961
     16 N         -24.7943    2.0797   31.0089 N.1     1  UNL1       -0.1912
@<TRIPOS>BOND
     1     2     5    1
     2     5     8   ar
     3     5     9   ar
     4     4    10    1
     5    10    11    1
     6    11    12    2
     7    12    13    1
     8    13    14    1
     9    11    15    1
    10    15    16    3
    11     1     2   ar
    12     2     7   ar
    13     7     6   ar
    14     6     4   ar
    15     4     3   ar
    16     3     1   ar
