@<TRIPOS>MOLECULE
No_4650-gen_results/8p0m/2024-11-26-14-13-15/
 18 19 0 0 0
SMALL
GASTEIGER

@<TRIPOS>ATOM
      1 C         -28.0162   -0.8135   28.8779 C.ar    1  UNL1        0.0336
      2 C         -28.4690   -0.7850   29.8287 C.ar    1  UNL1        0.1462
      3 C         -26.5042   -0.7777   28.8766 C.ar    1  UNL1       -0.0148
      4 C         -25.6540   -0.6597   27.7191 C.3     1  UNL1        0.0524
      5 C         -27.9180   -0.9374   31.1824 C.ar    1  UNL1        0.0375
      6 C         -26.5423   -0.9399   31.2606 C.ar    1  UNL1        0.0028
      7 C         -25.7832   -0.8935   30.1201 C.ar    1  UNL1       -0.0037
      8 C         -25.2134    0.6923   27.3830 C.ar    1  UNL1       -0.0217
      9 C         -25.3646    1.1004   26.0936 C.ar    1  UNL1       -0.0255
     10 C         -25.9645    0.2887   25.1279 C.3     1  UNL1        0.0307
     11 C         -24.6208    1.5594   28.3326 C.ar    1  UNL1       -0.0042
     12 C         -23.9106    2.2908   28.3602 C.ar    1  UNL1       -0.0003
     13 C         -23.8688    2.9740   26.9310 C.ar    1  UNL1       -0.0003
     14 C         -24.5527    2.2787   25.7957 C.ar    1  UNL1       -0.0046
     15 O         -29.9147   -0.7591   29.8405 O.3     1  UNL1       -0.4394
     16 C         -30.5222   -0.1665   28.8981 C.2     1  UNL1        0.2640
     17 C         -31.6330   -0.6419   28.5167 C.1     1  UNL1        0.1753
     18 O         -32.2424   -0.2456   27.4576 O.2     1  UNL1       -0.2278
@<TRIPOS>BOND
     1     3     4    1
     2     4     8    1
     3     9    10    1
     4     2    15    1
     5    15    16    1
     6    16    17    2
     7    17    18    2
     8     8     9   ar
     9     9    14   ar
    10    14    13   ar
    11    13    12   ar
    12    12    11   ar
    13    11     8   ar
    14     1     2   ar
    15     2     5   ar
    16     5     6   ar
    17     6     7   ar
    18     7     3   ar
    19     3     1   ar
