@<TRIPOS>MOLECULE
No_4651-gen_results/8p0m/2024-11-26-14-13-15/
 7 6 0 0 0
SMALL
GASTEIGER

@<TRIPOS>ATOM
      1 C         -28.0162   -0.8135   28.8779 C.3     1  UNL1        0.0307
      2 C         -27.0636   -0.1190   28.6079 C.2     1  UNL1       -0.0258
      3 C         -26.9287    1.1713   29.0083 C.2     1  UNL1       -0.0049
      4 C         -25.7702    2.0341   28.6884 C.2     1  UNL1       -0.0049
      5 C         -24.7141    1.4431   27.9188 C.2     1  UNL1       -0.0261
      6 C         -24.8590    0.0783   27.5836 C.3     1  UNL1        0.0260
      7 C         -25.9647   -0.6606   27.9164 C.3     1  UNL1        0.0050
@<TRIPOS>BOND
     1     1     2    1
     2     2     3    2
     3     3     4    1
     4     4     5    2
     5     5     6    1
     6     6     7    1
