@<TRIPOS>MOLECULE
No_4652-gen_results/8p0m/2024-11-26-14-13-15/
 15 17 0 0 0
SMALL
GASTEIGER

@<TRIPOS>ATOM
      1 O         -28.1229   -1.3353   28.4874 O.2     1  UNL1       -0.2960
      2 C         -27.0637   -0.8242   28.8687 C.2     1  UNL1        0.1510
      3 C         -25.9464   -1.0396   28.8492 C.3     1  UNL1        0.0645
      4 C         -24.7602   -0.1562   29.1644 C.3     1  UNL1        0.0086
      5 C         -25.0917    1.0791   29.6490 C.3     1  UNL1        0.0129
      6 C         -26.4090    1.4383   29.7067 C.3     1  UNL1        0.0297
      7 C         -27.3694    0.6586   29.4148 C.3     1  UNL1        0.0688
      8 C         -23.3561   -0.5638   29.1206 C.3     1  UNL1        0.0048
      9 C         -22.7539   -1.5222   29.9050 C.3     1  UNL1        0.0004
     10 C         -22.5067    0.3051   28.2984 C.3     1  UNL1        0.0257
     11 C         -22.9220    1.3839   27.5398 C.2     1  UNL1       -0.0304
     12 C         -23.9404    2.2578   27.9389 C.2     1  UNL1       -0.0267
     13 C         -24.6028    2.1259   28.7409 C.3     1  UNL1        0.0436
     14 C         -26.7674    2.8497   30.0966 C.2     1  UNL1       -0.0303
     15 C         -25.4387    3.5299   29.2384 C.2     1  UNL1       -0.0267
@<TRIPOS>BOND
     1     1     2    2
     2     2     3    1
     3     3     4    1
     4     4     5    1
     5     5     6    1
     6     2     7    1
     7     6     7    1
     8     4     8    1
     9     8     9    1
    10     8    10    1
    11    10    11    1
    12    11    12    2
    13     5    13    1
    14    12    13    1
    15     6    14    1
    16    13    15    1
    17    14    15    2
