@<TRIPOS>MOLECULE
No_4653-gen_results/8p0m/2024-11-26-14-13-15/
 13 13 0 0 0
SMALL
GASTEIGER

@<TRIPOS>ATOM
      1 C         -28.0162   -0.8135   28.8779 C.ar    1  UNL1        0.0104
      2 C         -28.4690   -0.7850   29.8287 C.ar    1  UNL1        0.0797
      3 C         -27.0871    0.2903   28.6377 C.ar    1  UNL1        0.0716
      4 C         -26.7676    1.0274   29.4716 C.ar    1  UNL1        0.0039
      5 C         -28.2764    0.0268   31.0145 C.ar    1  UNL1        0.0066
      6 C         -27.3287    1.0538   30.7535 C.ar    1  UNL1        0.0002
      7 C         -26.3859    0.3011   27.2661 C.3     1  UNL1        0.4186
      8 F         -26.9341   -0.2209   26.4357 F       1  UNL1       -0.1659
      9 F         -26.1259    1.6506   26.9223 F       1  UNL1       -0.1659
     10 F         -25.0247   -0.1734   27.4058 F       1  UNL1       -0.1659
     11 C         -29.4942   -1.9866   30.2631 C.2     1  UNL1        0.3877
     12 O         -29.9546   -1.9350   31.4442 O.co2   1  UNL1       -0.2406
     13 O         -29.4713   -3.0334   29.7094 O.co2   1  UNL1       -0.2406
@<TRIPOS>BOND
     1     3     7    1
     2     7     8    1
     3     7     9    1
     4     7    10    1
     5     2    11    1
     6    11    12   ar
     7    11    13   ar
     8     1     2   ar
     9     2     5   ar
    10     5     6   ar
    11     6     4   ar
    12     4     3   ar
    13     3     1   ar
