@<TRIPOS>MOLECULE
No_4654-gen_results/8p0m/2024-11-26-14-13-15/
 16 17 0 0 0
SMALL
GASTEIGER

@<TRIPOS>ATOM
      1 C         -28.0162   -0.8135   28.8779 C.ar    1  UNL1        0.0046
      2 C         -28.4690   -0.7850   29.8287 C.ar    1  UNL1        0.0554
      3 C         -27.1356    0.2359   28.5352 C.ar    1  UNL1        0.0001
      4 C         -26.3351    0.2900   27.2835 C.ar    1  UNL1        0.0000
      5 C         -29.3807   -1.9134   30.3549 C.2     1  UNL1        0.2690
      6 C         -28.2295    0.3010   30.9036 C.ar    1  UNL1        0.0046
      7 C         -25.3800    1.2740   27.0672 C.ar    1  UNL1        0.0000
      8 C         -27.4150    1.3108   30.6139 C.ar    1  UNL1        0.0001
      9 C         -26.7451    1.3177   29.4039 C.ar    1  UNL1        0.0000
     10 C         -25.1639    2.3202   27.9821 C.ar    1  UNL1        0.0000
     11 C         -25.8103    2.3449   29.1044 C.ar    1  UNL1        0.0000
     12 N         -30.5023   -2.0792   29.9204 N.am    1  UNL1       -0.1745
     13 O         -28.9140   -2.8177   31.2407 O.2     1  UNL1       -0.2680
     14 C         -31.1885   -1.1126   29.1899 C.2     1  UNL1        0.0844
     15 C         -31.4355   -0.0992   29.3718 C.2     1  UNL1       -0.0079
     16 C         -32.1695    0.8655   28.5094 C.3     1  UNL1        0.0321
@<TRIPOS>BOND
     1     2     5    1
     2     5    12   am
     3     5    13    2
     4    12    14    1
     5    14    15    2
     6    15    16    1
     7     3     4   ar
     8     4     7   ar
     9     7    10   ar
    10    10    11   ar
    11    11     9   ar
    12     1     2   ar
    13     2     6   ar
    14     6     8   ar
    15     8     9   ar
    16     9     3   ar
    17     3     1   ar
