@<TRIPOS>MOLECULE
No_4656-gen_results/8p0m/2024-11-26-14-13-15/
 35 37 0 0 0
SMALL
GASTEIGER

@<TRIPOS>ATOM
      1 C         -28.0162   -0.8135   28.8779 C.ar    1  UNL1        0.0807
      2 C         -27.0636   -0.1190   28.6079 C.ar    1  UNL1        0.0024
      3 C         -27.0010    0.6913   27.4910 C.ar    1  UNL1       -0.0208
      4 C         -28.1373    0.7363   26.6350 C.ar    1  UNL1        0.0103
      5 C         -29.2360    0.0765   27.0690 C.ar    1  UNL1        0.0477
      6 C         -29.2177   -0.6429   28.1747 C.ar    1  UNL1        0.0211
      7 N         -30.3516    0.1564   26.2430 N.pl3   1  UNL1       -0.3075
      8 C         -30.2688    0.1234   24.9366 C.3     1  UNL1        0.0908
      9 C         -31.2887   -0.1530   24.2272 C.3     1  UNL1        0.0215
     10 C         -31.5996    0.0064   26.7764 C.3     1  UNL1        0.0908
     11 C         -32.7380   -0.2195   26.0165 C.3     1  UNL1        0.0215
     12 C         -32.6129   -0.1533   24.7004 C.3     1  UNL1        0.0035
     13 C         -25.7217    1.4039   27.0700 C.3     1  UNL1        0.0290
     14 C         -25.1686    2.2617   28.0701 C.3     1  UNL1        0.1037
     15 C         -23.9580    2.3013   28.4775 C.3     1  UNL1        0.0227
     16 C         -22.9519    1.5779   27.6342 C.3     1  UNL1        0.1040
     17 C         -21.6050    1.5465   28.1739 C.2     1  UNL1        0.3643
     18 C         -24.5915    0.4715   26.7451 C.3     1  UNL1        0.0051
     19 C         -23.3317    1.1128   26.4803 C.3     1  UNL1        0.0116
     20 C         -26.0374    2.2362   25.7890 C.3     1  UNL1        0.0049
     21 C         -28.0577   -1.6250   30.1533 C.2     1  UNL1        0.3878
     22 O         -27.1956   -2.1419   30.4275 O.co2   1  UNL1       -0.2406
     23 O         -29.1928   -1.7406   30.7543 O.co2   1  UNL1       -0.2406
     24 O         -20.6895    2.1267   27.5209 O.co2   1  UNL1       -0.2457
     25 O         -21.3237    0.4008   28.8947 O.co2   1  UNL1       -0.2457
     26 C         -26.2048    3.0454   28.9502 C.2     1  UNL1        0.3224
     27 O         -27.2441    3.3441   28.7480 O.2     1  UNL1       -0.2497
     28 O         -25.5590    3.6436   30.0239 O.3     1  UNL1       -0.4023
     29 C         -26.3351    4.4780   30.7622 C.2     1  UNL1        0.3007
     30 C         -26.8143    3.9493   31.8546 C.3     1  UNL1        0.4693
     31 F         -26.3356    2.8559   32.1716 F       1  UNL1       -0.1619
     32 F         -26.4068    4.7269   32.9709 F       1  UNL1       -0.1619
     33 F         -28.1841    3.9797   31.9482 F       1  UNL1       -0.1619
     34 N         -26.3337    5.7865   30.4102 N.2     1  UNL1       -0.2321
     35 C         -26.7461    6.7526   31.1813 C.3     1  UNL1        0.1549
@<TRIPOS>BOND
     1     5     7    1
     2     7     8    1
     3     7    10    1
     4    10    11    1
     5     9    12    1
     6     3    13    1
     7    13    14    1
     8    15    16    1
     9    16    17    1
    10    13    18    1
    11    16    19    1
    12    18    19    1
    13    13    20    1
    14     1    21    1
    15    21    22   ar
    16    21    23   ar
    17    17    24   ar
    18    17    25   ar
    19    14    26    1
    20    26    27    2
    21    26    28    1
    22    28    29    1
    23    29    30    1
    24    30    31    1
    25    30    32    1
    26    30    33    1
    27    29    34    2
    28    34    35    1
    29     8     9    1
    30    12    11    1
    31    14    15    1
    32     1     2   ar
    33     2     3   ar
    34     3     4   ar
    35     4     5   ar
    36     5     6   ar
    37     6     1   ar
