@<TRIPOS>MOLECULE
No_4657-gen_results/8p0m/2024-11-26-14-13-15/
 19 21 0 0 0
SMALL
GASTEIGER

@<TRIPOS>ATOM
      1 C         -28.0162   -0.8135   28.8779 C.ar    1  UNL1        0.0375
      2 C         -28.4690   -0.7850   29.8287 C.ar    1  UNL1        0.1453
      3 C         -26.5042   -0.7777   28.8766 C.ar    1  UNL1        0.0031
      4 C         -25.8103   -0.8531   30.1028 C.ar    1  UNL1        0.0002
      5 C         -27.9906   -0.8916   31.2257 C.ar    1  UNL1        0.0375
      6 C         -24.3976   -0.8364   30.1775 C.ar    1  UNL1        0.0000
      7 C         -26.5754   -0.8899   31.2661 C.ar    1  UNL1        0.0031
      8 C         -23.7708   -0.9176   31.0960 C.ar    1  UNL1        0.0000
      9 C         -22.3018   -0.8444   31.2151 C.ar    1  UNL1        0.0000
     10 C         -21.6829   -0.5879   30.0577 C.ar    1  UNL1        0.0000
     11 C         -23.4571   -0.5861   29.0038 C.ar    1  UNL1        0.0000
     12 C         -22.2391   -0.4694   28.9183 C.ar    1  UNL1        0.0000
     13 O         -29.9461   -0.7618   29.8350 O.3     1  UNL1       -0.4535
     14 C         -30.5718    0.4071   30.1354 C.ar    1  UNL1        0.1453
     15 C         -31.5090    0.7620   29.5776 C.ar    1  UNL1        0.0375
     16 C         -32.1745    2.0413   29.8459 C.ar    1  UNL1        0.0031
     17 C         -31.6265    2.8453   30.8623 C.ar    1  UNL1        0.0002
     18 C         -30.5009    2.3953   31.5029 C.ar    1  UNL1        0.0031
     19 C         -29.9254    1.2376   31.1838 C.ar    1  UNL1        0.0375
@<TRIPOS>BOND
     1     4     6    1
     2     2    13    1
     3    13    14    1
     4    14    15   ar
     5    15    16   ar
     6    16    17   ar
     7    17    18   ar
     8    18    19   ar
     9    19    14   ar
    10     6     8   ar
    11     8     9   ar
    12     9    10   ar
    13    10    12   ar
    14    12    11   ar
    15    11     6   ar
    16     1     2   ar
    17     2     5   ar
    18     5     7   ar
    19     7     4   ar
    20     4     3   ar
    21     3     1   ar
