@<TRIPOS>MOLECULE
No_4658-gen_results/8p0m/2024-11-26-14-13-15/
 19 21 0 0 0
SMALL
GASTEIGER

@<TRIPOS>ATOM
      1 C         -28.0162   -0.8135   28.8779 C.2     1  UNL1        0.1189
      2 C         -27.0636   -0.1189   28.6079 C.2     1  UNL1        0.0077
      3 C         -25.7647   -0.3897   29.0360 C.3     1  UNL1        0.0300
      4 C         -24.5517    0.4058   28.7646 C.3     1  UNL1        0.0204
      5 C         -24.6957    1.4480   27.7988 C.3     1  UNL1        0.1256
      6 C         -25.9755    1.7250   27.3077 C.2     1  UNL1       -0.0155
      7 C         -27.0718    1.0134   27.6535 C.2     1  UNL1       -0.0056
      8 C         -28.6178   -0.4695   30.2207 C.3     1  UNL1        0.0892
      9 C         -29.7296   -1.2768   30.7206 C.2     1  UNL1       -0.0212
     10 C         -23.4863    2.1902   27.4840 C.2     1  UNL1        0.3683
     11 O         -22.3451    1.7942   27.7716 O.co2   1  UNL1       -0.2453
     12 O         -23.6036    3.1517   26.5627 O.co2   1  UNL1       -0.2453
     13 C         -30.1123   -2.1957   29.9272 C.2     1  UNL1        0.0158
     14 C         -31.2656   -2.9443   30.4808 C.3     1  UNL1        0.0336
     15 C         -31.7374   -4.0073   29.6717 C.3     1  UNL1        0.0512
     16 C         -31.7199   -3.7859   28.4272 C.2     1  UNL1        0.0711
     17 N         -31.3357   -2.7265   27.9022 N.2     1  UNL1       -0.2314
     18 C         -30.4800   -1.8962   28.6220 C.3     1  UNL1        0.2899
     19 O         -29.2305   -1.5289   27.9565 O.2     1  UNL1       -0.4576
@<TRIPOS>BOND
     1     1     2    2
     2     2     3    1
     3     3     4    1
     4     4     5    1
     5     5     6    1
     6     2     7    1
     7     6     7    2
     8     1     8    1
     9     8     9    1
    10     5    10    1
    11    10    11   ar
    12    10    12   ar
    13     9    13    2
    14    13    14    1
    15    14    15    1
    16    15    16    1
    17    16    17    2
    18    13    18    1
    19    17    18    1
    20     1    19    1
    21    18    19    1
