@<TRIPOS>MOLECULE
No_4659-gen_results/8p0m/2024-11-26-14-13-15/
 18 20 0 0 0
SMALL
GASTEIGER

@<TRIPOS>ATOM
      1 C         -28.0162   -0.8135   28.8779 C.ar    1  UNL1        0.0027
      2 C         -27.0636   -0.1190   28.6079 C.ar    1  UNL1       -0.0145
      3 C         -26.8756    1.1325   28.9134 C.ar    1  UNL1        0.0353
      4 C         -27.9014    1.8066   29.6436 C.ar    1  UNL1        0.0031
      5 C         -29.0458   -0.2316   29.7181 C.ar    1  UNL1        0.0795
      6 C         -28.9402    1.0517   30.0597 C.ar    1  UNL1        0.0067
      7 C         -25.8732   -0.7125   27.8045 C.3     1  UNL1        0.0528
      8 C         -25.2858    0.0505   26.8000 C.ar    1  UNL1       -0.0147
      9 C         -24.4764   -0.2629   26.0153 C.ar    1  UNL1       -0.0038
     10 C         -24.1615    0.7330   24.8889 C.ar    1  UNL1       -0.0003
     11 C         -23.9398    1.9234   25.3121 C.ar    1  UNL1        0.0001
     12 C         -25.1168    1.5913   26.9841 C.ar    1  UNL1        0.0353
     13 C         -24.5432    2.4030   26.2801 C.ar    1  UNL1        0.0029
     14 C         -26.1455    2.0332   28.2435 C.2     1  UNL1        0.1950
     15 O         -25.6373    3.1012   28.8073 O.2     1  UNL1       -0.2866
     16 C         -30.1390   -1.1643   30.2105 C.2     1  UNL1        0.3877
     17 O         -29.9530   -2.1464   30.8249 O.co2   1  UNL1       -0.2406
     18 O         -31.3150   -0.5989   30.2514 O.co2   1  UNL1       -0.2406
@<TRIPOS>BOND
     1     2     7    1
     2     7     8    1
     3     3    14    1
     4    12    14    1
     5    14    15    2
     6     5    16    1
     7    16    17   ar
     8    16    18   ar
     9     1     2   ar
    10     2     3   ar
    11     3     4   ar
    12     4     6   ar
    13     6     5   ar
    14     5     1   ar
    15     8     9   ar
    16     9    10   ar
    17    10    11   ar
    18    11    13   ar
    19    13    12   ar
    20    12     8   ar
