@<TRIPOS>MOLECULE
No_466-gen_results/8p0m/2024-11-26-14-13-15/
 19 19 0 0 0
SMALL
GASTEIGER

@<TRIPOS>ATOM
      1 C         -28.0162   -0.8135   28.8779 C.ar    1  UNL1        0.0329
      2 C         -28.4690   -0.7850   29.8287 C.ar    1  UNL1        0.1403
      3 C         -26.5042   -0.7777   28.8766 C.ar    1  UNL1        0.0377
      4 C         -25.9150   -0.6580   29.9230 C.ar    1  UNL1       -0.0185
      5 C         -27.9691   -0.7243   31.2047 C.ar    1  UNL1        0.0293
      6 C         -26.5847   -0.6393   31.2062 C.ar    1  UNL1       -0.0018
      7 F         -29.9234   -0.8692   29.8565 F       1  UNL1       -0.2042
      8 C         -24.3899   -0.5855   30.0029 C.3     1  UNL1        0.0283
      9 C         -23.8328    0.8142   30.1811 C.3     1  UNL1        0.0282
     10 C         -24.4413    1.8410   30.4578 C.3     1  UNL1        0.1172
     11 N         -25.4625    2.0839   30.5054 N.am    1  UNL1       -0.1872
     12 C         -26.0725    3.2256   30.5825 C.2     1  UNL1        0.3393
     13 O         -25.3850    4.1666   30.8464 O.2     1  UNL1       -0.2492
     14 N         -27.4333    3.2814   30.6765 N.am    1  UNL1       -0.1853
     15 C         -28.1094    4.5897   30.7803 C.3     1  UNL1        0.1402
     16 P         -25.6019   -0.7242   27.2885 P.3     1  UNL1        0.1940
     17 O         -26.2686   -0.0612   26.1934 O.2     1  UNL1       -0.4428
     18 O         -24.3552    0.0494   27.6906 O.3     1  UNL1       -0.3456
     19 O         -25.2200   -2.1616   27.1170 O.2     1  UNL1       -0.4428
@<TRIPOS>BOND
     1     2     7    1
     2     4     8    1
     3     8     9    1
     4     9    10    1
     5    10    11    1
     6    11    12   am
     7    12    13    2
     8    12    14   am
     9    14    15    1
    10     3    16    1
    11    16    17    2
    12    16    18    1
    13    16    19    2
    14     1     2   ar
    15     2     5   ar
    16     5     6   ar
    17     6     4   ar
    18     4     3   ar
    19     3     1   ar
