@<TRIPOS>MOLECULE
No_4660-gen_results/8p0m/2024-11-26-14-13-15/
 18 20 0 0 0
SMALL
GASTEIGER

@<TRIPOS>ATOM
      1 C         -28.0162   -0.8135   28.8779 C.ar    1  UNL1       -0.0026
      2 C         -28.4690   -0.7850   29.8287 C.ar    1  UNL1       -0.0003
      3 C         -26.5455   -0.8762   28.8500 C.ar    1  UNL1       -0.0024
      4 C         -25.6825   -0.7773   27.6829 C.3     1  UNL1        0.1179
      5 C         -27.9181   -1.0034   31.1877 C.ar    1  UNL1       -0.0000
      6 C         -26.5308   -1.0794   31.2463 C.ar    1  UNL1       -0.0003
      7 C         -25.7798   -1.0462   30.0905 C.ar    1  UNL1       -0.0026
      8 N         -25.9631   -0.0419   26.6947 N.pl3   1  UNL1       -0.3004
      9 C         -26.8451    0.2220   26.2093 C.2     1  UNL1        0.0572
     10 C         -26.9035    1.1143   25.0345 C.2     1  UNL1       -0.0083
     11 C         -24.8757    0.8422   26.1543 C.3     1  UNL1        0.1000
     12 C         -23.6402    1.0703   26.6957 C.ar    1  UNL1       -0.0040
     13 C         -25.5014    1.5650   25.0873 C.3     1  UNL1        0.0516
     14 C         -23.2212    0.6070   27.9438 C.ar    1  UNL1       -0.0027
     15 C         -22.0097    0.9067   28.5936 C.ar    1  UNL1       -0.0003
     16 C         -21.1435    1.7790   27.8322 C.ar    1  UNL1       -0.0000
     17 C         -22.7583    2.0725   26.1061 C.ar    1  UNL1       -0.0027
     18 C         -21.5443    2.3196   26.6468 C.ar    1  UNL1       -0.0003
@<TRIPOS>BOND
     1     3     4    1
     2     4     8    1
     3     8     9    1
     4     9    10    2
     5     8    11    1
     6    11    12    1
     7    10    13    1
     8    11    13    1
     9    12    14   ar
    10    14    15   ar
    11    15    16   ar
    12    16    18   ar
    13    18    17   ar
    14    17    12   ar
    15     1     2   ar
    16     2     5   ar
    17     5     6   ar
    18     6     7   ar
    19     7     3   ar
    20     3     1   ar
