@<TRIPOS>MOLECULE
No_4661-gen_results/8p0m/2024-11-26-14-13-15/
 13 13 0 0 0
SMALL
GASTEIGER

@<TRIPOS>ATOM
      1 C         -28.0162   -0.8135   28.8779 C.3     1  UNL1        0.4186
      2 C         -27.0636   -0.1190   28.6079 C.ar    1  UNL1        0.0714
      3 C         -27.0010    0.6913   27.4910 C.ar    1  UNL1        0.0040
      4 C         -25.8548    1.4825   27.0830 C.ar    1  UNL1        0.0038
      5 C         -24.9008    1.3893   27.5922 C.ar    1  UNL1        0.0476
      6 C         -24.6783    0.5764   28.8299 C.ar    1  UNL1        0.0038
      7 C         -25.7704   -0.2051   29.2800 C.ar    1  UNL1        0.0040
      8 F         -27.6929   -1.9406   29.3476 F       1  UNL1       -0.1659
      9 F         -28.8567   -1.0140   27.8944 F       1  UNL1       -0.1659
     10 F         -28.7299   -0.1614   29.9092 F       1  UNL1       -0.1659
     11 C         -23.6108    2.1928   27.3001 C.2     1  UNL1        0.2416
     12 N         -22.6252    2.2954   28.1362 N.2     1  UNL1       -0.1156
     13 F         -23.5194    2.7385   26.1625 F       1  UNL1       -0.1815
@<TRIPOS>BOND
     1     1     2    1
     2     1     8    1
     3     1     9    1
     4     1    10    1
     5     5    11    1
     6    11    12    2
     7    11    13    1
     8     2     3   ar
     9     3     4   ar
    10     4     5   ar
    11     5     6   ar
    12     6     7   ar
    13     7     2   ar
