@<TRIPOS>MOLECULE
No_4662-gen_results/8p0m/2024-11-26-14-13-15/
 33 35 0 0 0
SMALL
GASTEIGER

@<TRIPOS>ATOM
      1 C         -28.0162   -0.8135   28.8779 C.ar    1  UNL1        0.0140
      2 C         -28.4690   -0.7850   29.8287 C.ar    1  UNL1        0.0764
      3 C         -27.0871    0.2903   28.6377 C.ar    1  UNL1        0.0887
      4 C         -26.2516    0.4114   27.4223 C.2     1  UNL1        0.2557
      5 C         -28.3913    0.1041   30.9805 C.ar    1  UNL1        0.0096
      6 C         -27.5332    1.1666   30.7866 C.ar    1  UNL1        0.0380
      7 C         -26.8281    1.2557   29.6454 C.ar    1  UNL1        0.1533
      8 N         -25.0638    0.2673   27.5264 N.am    1  UNL1       -0.2532
      9 C         -24.3568   -0.5633   28.3016 C.ar    1  UNL1        0.0573
     10 C         -24.7113   -1.6596   28.8790 C.ar    1  UNL1        0.0356
     11 C         -23.9871   -2.5129   29.6697 C.ar    1  UNL1        0.1002
     12 N         -22.7840   -1.9686   29.9281 N.ar    1  UNL1       -0.2422
     13 C         -22.9105   -0.3386   28.7008 C.ar    1  UNL1        0.0356
     14 C         -22.2061   -0.9617   29.4403 C.ar    1  UNL1        0.1002
     15 C         -24.2070    1.1362   26.5939 C.3     1  UNL1        0.1203
     16 O         -26.9190    0.2433   26.3637 O.2     1  UNL1       -0.2695
     17 O         -25.9593    2.2169   29.4917 O.3     1  UNL1       -0.4163
     18 C         -26.2839    3.4253   29.0039 C.2     1  UNL1        0.4267
     19 C         -25.3045    4.0872   28.2528 C.2     1  UNL1        0.4625
     20 O         -24.3960    3.4908   27.8096 O.co2   1  UNL1       -0.2332
     21 O         -25.5058    5.3617   27.9486 O.co2   1  UNL1       -0.2332
     22 O         -26.8333    4.1838   30.0127 O.2     1  UNL1       -0.2370
     23 C         -29.5414   -1.9723   30.1921 C.2     1  UNL1        0.3458
     24 O         -29.1098   -2.9648   30.6006 O.3     1  UNL1       -0.4179
     25 O         -30.7119   -1.7789   29.9577 O.2     1  UNL1       -0.2445
     26 C         -29.6392   -4.2623   30.3820 C.2     1  UNL1        0.1831
     27 C         -29.9086   -4.7617   29.3521 C.2     1  UNL1        0.0408
     28 C         -30.6775   -5.9637   29.1655 C.ar    1  UNL1        0.0031
     29 C         -31.1993   -6.3264   27.8863 C.ar    1  UNL1        0.0001
     30 C         -31.9481   -7.4449   27.7364 C.ar    1  UNL1        0.0000
     31 C         -32.1888   -8.2871   28.8078 C.ar    1  UNL1        0.0000
     32 C         -31.0654   -6.9384   30.1528 C.ar    1  UNL1        0.0001
     33 C         -31.7154   -8.0124   30.0297 C.ar    1  UNL1        0.0000
@<TRIPOS>BOND
     1     3     4    1
     2     4     8   am
     3     8     9    1
     4     8    15    1
     5     4    16    2
     6     7    17    1
     7    17    18    1
     8    18    19    1
     9    19    20   ar
    10    19    21   ar
    11    18    22    2
    12     2    23    1
    13    23    24    1
    14    23    25    2
    15    24    26    1
    16    26    27    2
    17    27    28    1
    18    28    29   ar
    19    29    30   ar
    20    30    31   ar
    21    31    33   ar
    22    33    32   ar
    23    32    28   ar
    24     1     2   ar
    25     2     5   ar
    26     5     6   ar
    27     6     7   ar
    28     7     3   ar
    29     3     1   ar
    30     9    10   ar
    31    10    11   ar
    32    11    12   ar
    33    12    14   ar
    34    14    13   ar
    35    13     9   ar
