@<TRIPOS>MOLECULE
No_4663-gen_results/8p0m/2024-11-26-14-13-15/
 22 24 0 0 0
SMALL
GASTEIGER

@<TRIPOS>ATOM
      1 C         -28.0162   -0.8135   28.8779 C.ar    1  UNL1        0.0146
      2 C         -27.0636   -0.1189   28.6079 C.ar    1  UNL1        0.0515
      3 N         -26.9849    0.5972   27.5218 N.am    1  UNL1       -0.2434
      4 C         -27.9606   -1.5421   30.1660 C.ar    1  UNL1        0.0013
      5 C         -26.7814   -1.6198   30.8836 C.ar    1  UNL1       -0.0002
      6 C         -25.6460   -0.9697   30.4630 C.ar    1  UNL1       -0.0028
      7 C         -25.7563   -0.1767   29.2863 C.ar    1  UNL1       -0.0005
      8 C         -25.9019    0.8964   26.8088 C.3     1  UNL1        0.1004
      9 C         -24.6584    0.9713   27.4796 C.3     1  UNL1        0.0349
     10 C         -24.5490    0.3775   28.7086 C.3     1  UNL1        0.1203
     11 C         -28.2415    0.8034   26.7331 C.2     1  UNL1        0.3109
     12 O         -28.3587    0.7250   25.5615 O.2     1  UNL1       -0.2520
     13 N         -29.2966    1.1214   27.5183 N.am    1  UNL1       -0.2638
     14 C         -29.3512    1.5532   28.7882 C.3     1  UNL1        0.0950
     15 C         -30.6085    0.6539   26.9396 C.3     1  UNL1        0.0950
     16 C         -30.4896    1.6655   29.4651 C.3     1  UNL1        0.0216
     17 C         -31.7335    0.7677   27.7885 C.3     1  UNL1        0.0216
     18 C         -31.7012    1.3201   28.9833 C.3     1  UNL1        0.0035
     19 C         -23.2977    0.3564   29.4709 C.3     1  UNL1        0.4012
     20 F         -23.1078    1.2513   30.2596 F       1  UNL1       -0.1697
     21 F         -22.1530    0.4742   28.6281 F       1  UNL1       -0.1697
     22 F         -23.0464   -0.8566   30.0534 F       1  UNL1       -0.1697
@<TRIPOS>BOND
     1     2     3    1
     2     3     8    1
     3     7    10    1
     4     9    10    1
     5     3    11   am
     6    11    12    2
     7    11    13   am
     8    13    14    1
     9    13    15    1
    10    16    18    1
    11    17    18    1
    12    10    19    1
    13    19    20    1
    14    19    21    1
    15    19    22    1
    16     9     8    1
    17    14    16    1
    18    17    15    1
    19     1     2   ar
    20     2     7   ar
    21     7     6   ar
    22     6     5   ar
    23     5     4   ar
    24     4     1   ar
