@<TRIPOS>MOLECULE
No_4664-gen_results/8p0m/2024-11-26-14-13-15/
 7 7 0 0 0
SMALL
GASTEIGER

@<TRIPOS>ATOM
      1 N         -28.0544   -1.0498   28.7246 N.ar    1  UNL1       -0.2165
      2 C         -28.6544   -0.5669   29.5076 C.ar    1  UNL1        0.2223
      3 C         -28.1376    0.1595   30.5233 C.ar    1  UNL1        0.0497
      4 C         -26.7189    0.4201   30.5561 C.ar    1  UNL1        0.0055
      5 C         -26.6229   -0.8743   28.6706 C.ar    1  UNL1        0.1013
      6 C         -25.9531   -0.1349   29.6090 C.ar    1  UNL1        0.0208
      7 F         -29.9497   -0.8214   29.5273 F       1  UNL1       -0.1832
@<TRIPOS>BOND
     1     2     7    1
     2     1     2   ar
     3     2     3   ar
     4     3     4   ar
     5     4     6   ar
     6     6     5   ar
     7     5     1   ar
