@<TRIPOS>MOLECULE
No_4667-gen_results/8p0m/2024-11-26-14-13-15/
 27 27 0 0 0
SMALL
GASTEIGER

@<TRIPOS>ATOM
      1 C         -28.0162   -0.8135   28.8779 C.ar    1  UNL1        0.0415
      2 C         -27.0636   -0.1189   28.6079 C.ar    1  UNL1        0.0746
      3 C         -26.9287    1.1713   29.0083 C.ar    1  UNL1        0.0086
      4 C         -27.9560    1.7411   29.7840 C.ar    1  UNL1        0.0584
      5 C         -29.0569   -0.3271   29.7466 C.ar    1  UNL1        0.1491
      6 C         -28.9828    0.9722   30.1516 C.ar    1  UNL1        0.0422
      7 C         -25.8251   -0.4331   27.7536 C.3     1  UNL1        0.4187
      8 F         -25.8913   -0.1487   26.6960 F       1  UNL1       -0.1659
      9 F         -24.5822   -0.0580   28.2827 F       1  UNL1       -0.1659
     10 F         -25.5842   -1.8812   27.9402 F       1  UNL1       -0.1659
     11 O         -30.0307   -1.1823   30.1140 O.3     1  UNL1       -0.4165
     12 C         -29.8030   -2.3073   30.6718 C.2     1  UNL1        0.4267
     13 C         -30.5267   -3.4397   30.1181 C.2     1  UNL1        0.4625
     14 O         -29.8677   -4.5462   30.1026 O.co2   1  UNL1       -0.2332
     15 O         -31.6345   -3.3742   29.6525 O.co2   1  UNL1       -0.2332
     16 O         -28.9706   -2.4255   31.6544 O.2     1  UNL1       -0.2370
     17 C         -27.7932    3.1749   30.1845 C.2     1  UNL1        0.2691
     18 N         -27.1263    3.9125   29.7433 N.am    1  UNL1       -0.1745
     19 C         -26.2075    3.7771   28.8569 C.2     1  UNL1        0.0844
     20 C         -25.2233    4.9149   28.4835 C.2     1  UNL1       -0.0082
     21 O         -28.8281    3.5520   30.9411 O.2     1  UNL1       -0.2680
     22 C         -26.0028    5.8793   27.6513 C.3     1  UNL1        0.0278
     23 C         -26.2929    7.0197   28.2123 C.3     1  UNL1        0.0094
     24 C         -25.6485    7.4191   29.3297 C.3     1  UNL1        0.0260
     25 C         -25.5475    8.7821   29.7189 C.2     1  UNL1       -0.0307
     26 C         -26.3370    9.6367   29.1632 C.2     1  UNL1       -0.0304
     27 C         -26.3638   10.9828   29.6470 C.3     1  UNL1        0.0303
@<TRIPOS>BOND
     1     2     7    1
     2     7     8    1
     3     7     9    1
     4     7    10    1
     5     5    11    1
     6    11    12    1
     7    12    13    1
     8    13    14   ar
     9    13    15   ar
    10    12    16    2
    11     4    17    1
    12    17    18   am
    13    18    19    1
    14    19    20    2
    15    17    21    2
    16    20    22    1
    17    22    23    1
    18    23    24    1
    19    24    25    1
    20    25    26    2
    21    26    27    1
    22     1     2   ar
    23     2     3   ar
    24     3     4   ar
    25     4     6   ar
    26     6     5   ar
    27     5     1   ar
