@<TRIPOS>MOLECULE
No_4668-gen_results/8p0m/2024-11-26-14-13-15/
 35 38 0 0 0
SMALL
GASTEIGER

@<TRIPOS>ATOM
      1 C         -28.0162   -0.8135   28.8779 C.ar    1  UNL1       -0.0042
      2 C         -28.4690   -0.7850   29.8287 C.ar    1  UNL1       -0.0003
      3 C         -27.0871    0.2903   28.6377 C.ar    1  UNL1       -0.0212
      4 C         -26.8317    1.2487   29.5869 C.ar    1  UNL1       -0.0114
      5 C         -28.3914    0.0801   31.0065 C.ar    1  UNL1       -0.0003
      6 C         -27.4940    1.1521   30.7841 C.ar    1  UNL1       -0.0037
      7 C         -26.3172    0.3994   27.3653 C.3     1  UNL1        0.0486
      8 C         -26.8815    0.9711   26.3721 C.ar    1  UNL1       -0.0181
      9 C         -28.2026    1.4637   26.4214 C.ar    1  UNL1       -0.0043
     10 C         -28.7510    1.9527   25.1515 C.ar    1  UNL1       -0.0043
     11 C         -27.9992    1.7656   23.9940 C.ar    1  UNL1       -0.0003
     12 C         -26.8200    1.1311   23.9824 C.ar    1  UNL1       -0.0003
     13 C         -26.1901    0.7119   25.1051 C.ar    1  UNL1       -0.0039
     14 C         -25.4338   -0.8168   27.2308 C.3     1  UNL1        0.0351
     15 C         -24.2733   -0.7138   28.3053 C.ar    1  UNL1       -0.0215
     16 C         -23.4620    0.3578   28.3670 C.ar    1  UNL1       -0.0042
     17 C         -22.3965    0.3316   29.2448 C.ar    1  UNL1       -0.0003
     18 C         -24.2525   -1.6583   29.3749 C.ar    1  UNL1       -0.0042
     19 C         -23.2241   -1.6249   30.3041 C.ar    1  UNL1       -0.0003
     20 C         -22.3120   -0.5456   30.2837 C.ar    1  UNL1       -0.0000
     21 C         -25.9577    2.4051   29.3811 C.3     1  UNL1        0.1475
     22 C         -26.0671    3.3152   28.5739 C.ar    1  UNL1       -0.0077
     23 C         -27.1190    4.2718   28.6388 C.ar    1  UNL1       -0.0034
     24 C         -25.1455    3.4740   27.4512 C.ar    1  UNL1       -0.0034
     25 C         -25.3505    4.4046   26.3764 C.ar    1  UNL1       -0.0003
     26 C         -27.2839    5.2600   27.5484 C.ar    1  UNL1       -0.0003
     27 C         -26.4103    5.2847   26.5232 C.ar    1  UNL1       -0.0000
     28 C         -24.8403    2.4888   30.4132 C.2     1  UNL1        0.3724
     29 O         -23.8566    2.9803   30.3357 O.co2   1  UNL1       -0.2449
     30 O         -25.0724    1.7388   31.5994 O.co2   1  UNL1       -0.2449
     31 C         -30.0081    2.7158   25.1239 C.2     1  UNL1       -0.0218
     32 C         -30.3176    3.5918   26.0410 C.2     1  UNL1       -0.0043
     33 C         -31.5464    4.3384   26.0127 C.2     1  UNL1       -0.0003
     34 C         -32.3945    4.1308   24.9053 C.2     1  UNL1       -0.0000
     35 C         -30.8371    2.5660   24.0356 C.3     1  UNL1        0.0310
@<TRIPOS>BOND
     1     3     7    1
     2     7    14    1
     3    14    15    1
     4     4    21    1
     5    21    22    1
     6    21    28    1
     7    28    29   ar
     8    28    30   ar
     9    10    31    1
    10    31    32    2
    11    32    33    1
    12    33    34    2
    13    31    35    1
    14     7     8    1
    15    15    16   ar
    16    16    17   ar
    17    17    20   ar
    18    20    19   ar
    19    19    18   ar
    20    18    15   ar
    21     8     9   ar
    22     9    10   ar
    23    10    11   ar
    24    11    12   ar
    25    12    13   ar
    26    13     8   ar
    27     1     2   ar
    28     2     5   ar
    29     5     6   ar
    30     6     4   ar
    31     4     3   ar
    32     3     1   ar
    33    22    23   ar
    34    23    26   ar
    35    26    27   ar
    36    27    25   ar
    37    25    24   ar
    38    24    22   ar
