@<TRIPOS>MOLECULE
No_4670-gen_results/8p0m/2024-11-26-14-13-15/
 11 11 0 0 0
SMALL
GASTEIGER

@<TRIPOS>ATOM
      1 CL        -28.1493   -0.8198   28.9079 Cl      1  UNL1       -0.0749
      2 C         -28.5324   -0.0471   29.7727 C.3     1  UNL1        0.2582
      3 F         -27.6515    0.7172   30.3086 F       1  UNL1       -0.2176
      4 C         -29.8669    0.1151   30.2289 C.3     1  UNL1        0.1503
      5 CL        -30.9892   -0.7148   30.0131 Cl      1  UNL1       -0.1059
      6 C         -30.0847    1.1274   31.3530 C.ar    1  UNL1       -0.0035
      7 C         -30.2315    0.7415   32.5564 C.ar    1  UNL1       -0.0030
      8 C         -30.4398    1.7257   33.6028 C.ar    1  UNL1       -0.0003
      9 C         -30.4035    3.0859   33.2248 C.ar    1  UNL1       -0.0000
     10 C         -30.1780    3.4134   31.9031 C.ar    1  UNL1       -0.0003
     11 C         -29.9442    2.4539   30.9075 C.ar    1  UNL1       -0.0030
@<TRIPOS>BOND
     1     1     2    1
     2     2     3    1
     3     2     4    1
     4     4     5    1
     5     4     6    1
     6     6     7   ar
     7     7     8   ar
     8     8     9   ar
     9     9    10   ar
    10    10    11   ar
    11    11     6   ar
