@<TRIPOS>MOLECULE
No_4671-gen_results/8p0m/2024-11-26-14-13-15/
 19 21 0 0 0
SMALL
GASTEIGER

@<TRIPOS>ATOM
      1 C         -28.0162   -0.8135   28.8779 C.3     1  UNL1        0.0156
      2 C         -27.0636   -0.1190   28.6079 C.3     1  UNL1        0.0229
      3 C         -25.7923   -0.4302   29.0761 C.2     1  UNL1       -0.0485
      4 C         -25.2700   -0.0487   30.0123 C.2     1  UNL1       -0.0346
      5 C         -27.8851   -1.6684   30.1122 C.3     1  UNL1        0.1041
      6 C         -26.9250   -1.6039   31.1803 C.3     1  UNL1        0.0159
      7 C         -25.6201   -1.1588   31.0391 C.3     1  UNL1        0.0259
      8 C         -27.0087    0.3663   27.1241 C.3     1  UNL1        0.0294
      9 C         -28.0171    1.0246   26.6258 C.2     1  UNL1       -0.0301
     10 C         -25.8358    0.1797   26.2889 C.3     1  UNL1        0.0263
     11 C         -25.0920    1.1182   25.9599 C.2     1  UNL1       -0.0303
     12 C         -27.6667    2.0611   25.6798 C.2     1  UNL1       -0.0260
     13 C         -25.5657    2.3638   25.7172 C.2     1  UNL1       -0.0260
     14 C         -26.7044    2.7875   25.3594 C.3     1  UNL1        0.0513
     15 C         -28.8287   -2.8363   30.2099 C.2     1  UNL1        0.3643
     16 O         -28.3742   -4.0469   30.2105 O.co2   1  UNL1       -0.2457
     17 O         -30.0483   -2.6914   30.2951 O.co2   1  UNL1       -0.2457
     18 C         -24.8803   -1.2939   28.2461 C.3     1  UNL1        0.0220
     19 C         -25.3811   -1.2358   26.4072 C.3     1  UNL1        0.0090
@<TRIPOS>BOND
     1     1     2    1
     2     2     3    1
     3     3     4    2
     4     1     5    1
     5     5     6    1
     6     4     7    1
     7     6     7    1
     8     2     8    1
     9     8     9    1
    10     8    10    1
    11    10    11    1
    12     9    12    2
    13    11    13    2
    14    12    14    1
    15    13    14    1
    16     5    15    1
    17    15    16   ar
    18    15    17   ar
    19     3    18    1
    20    10    19    1
    21    18    19    1
