@<TRIPOS>MOLECULE
No_4672-gen_results/8p0m/2024-11-26-14-13-15/
 21 24 0 0 0
SMALL
GASTEIGER

@<TRIPOS>ATOM
      1 C         -28.0162   -0.8135   28.8779 C.3     1  UNL1        0.0189
      2 C         -27.0636   -0.1190   28.6079 C.3     1  UNL1        0.0625
      3 C         -25.7923   -0.4302   29.0761 C.3     1  UNL1        0.0291
      4 C         -24.5456    0.3494   28.8225 C.ar    1  UNL1       -0.0228
      5 C         -23.2409    0.0217   29.3323 C.ar    1  UNL1       -0.0044
      6 C         -27.8820   -1.8995   29.8633 C.3     1  UNL1        0.1038
      7 C         -26.6706   -2.3272   30.3212 C.3     1  UNL1        0.0116
      8 C         -25.5433   -1.5852   29.9316 C.3     1  UNL1        0.0053
      9 C         -22.1918    0.8302   29.0004 C.ar    1  UNL1        0.0028
     10 C         -22.1472    1.7783   28.0287 C.ar    1  UNL1        0.0366
     11 C         -24.5322    1.3987   27.8163 C.ar    1  UNL1        0.0146
     12 C         -23.3620    2.0694   27.4607 C.ar    1  UNL1        0.1346
     13 C         -29.0683   -2.7198   30.2979 C.2     1  UNL1        0.3643
     14 O         -30.1235   -2.3445   30.1498 O.co2   1  UNL1       -0.2457
     15 O         -28.7682   -3.9904   30.6527 O.co2   1  UNL1       -0.2457
     16 O         -23.4872    3.0210   26.4989 O.3     1  UNL1       -0.4758
     17 C         -24.7948    3.3746   26.1362 C.3     1  UNL1        0.2062
     18 C         -27.1934    1.0404   27.6575 C.2     1  UNL1        0.1544
     19 C         -25.9015    1.7455   27.2948 C.3     1  UNL1        0.0861
     20 C         -26.0076    3.0494   26.9967 C.3     1  UNL1        0.0591
     21 O         -28.2043    1.2856   27.1019 O.2     1  UNL1       -0.2957
@<TRIPOS>BOND
     1     1     2    1
     2     3     4    1
     3     1     6    1
     4     6     7    1
     5     3     8    1
     6     7     8    1
     7     6    13    1
     8    13    14   ar
     9    13    15   ar
    10    12    16    1
    11    16    17    1
    12     2    18    1
    13    11    19    1
    14    18    19    1
    15    17    20    1
    16    19    20    1
    17    18    21    2
    18     2     3    1
    19     4     5   ar
    20     5     9   ar
    21     9    10   ar
    22    10    12   ar
    23    12    11   ar
    24    11     4   ar
