@<TRIPOS>MOLECULE
No_4673-gen_results/8p0m/2024-11-26-14-13-15/
 27 30 0 0 0
SMALL
GASTEIGER

@<TRIPOS>ATOM
      1 C         -28.0162   -0.8135   28.8779 C.ar    1  UNL1        0.0175
      2 C         -27.0636   -0.1189   28.6079 C.ar    1  UNL1        0.0630
      3 C         -26.9716    0.7139   27.5060 C.ar    1  UNL1        0.0550
      4 C         -28.1053    0.7744   26.6421 C.ar    1  UNL1        0.0112
      5 C         -29.2041    0.1179   27.0477 C.ar    1  UNL1        0.0800
      6 C         -29.2127   -0.6088   28.1281 C.ar    1  UNL1        0.0081
      7 C         -25.7106    1.4519   27.1380 C.ar    1  UNL1        0.1983
      8 C         -24.6052    0.9253   27.6902 C.ar    1  UNL1        0.0548
      9 C         -23.3376    1.6509   27.5494 C.ar    1  UNL1        0.0046
     10 C         -22.1760    1.2278   28.2868 C.ar    1  UNL1        0.0002
     11 C         -22.1814    0.0854   29.0261 C.ar    1  UNL1        0.0015
     12 C         -23.3607   -0.6934   29.1008 C.ar    1  UNL1        0.0173
     13 C         -24.5306   -0.2411   28.4874 C.ar    1  UNL1        0.0629
     14 N         -25.7679   -0.5942   29.1071 N.ar    1  UNL1       -0.3266
     15 C         -25.7420   -1.5598   30.1612 C.3     1  UNL1        0.1121
     16 O         -25.7469    2.3613   26.2873 O.2     1  UNL1       -0.2865
     17 C         -30.4298    0.3201   26.2592 C.2     1  UNL1        0.3878
     18 O         -31.1359   -0.6216   25.9627 O.co2   1  UNL1       -0.2406
     19 O         -30.9362    1.5055   26.0986 O.co2   1  UNL1       -0.2406
     20 C         -25.2350   -2.7438   29.7500 C.3     1  UNL1        0.0670
     21 C         -25.8481   -3.5209   28.7292 C.2     1  UNL1        0.0442
     22 C         -25.2064   -4.8057   28.6536 C.2     1  UNL1        0.0326
     23 C         -25.7428   -5.6599   29.0188 C.3     1  UNL1        0.0540
     24 C         -26.9470   -5.3659   29.7726 C.3     1  UNL1        0.1166
     25 N         -27.0439   -3.7127   29.0414 N.pl3   1  UNL1       -0.2417
     26 C         -23.6980   -4.7228   28.3208 C.2     1  UNL1        0.2309
     27 O         -22.9999   -3.7240   28.7237 O.2     1  UNL1       -0.2835
@<TRIPOS>BOND
     1     3     7   ar
     2     7     8   ar
     3     2    14   ar
     4    13    14   ar
     5    14    15    1
     6     7    16    2
     7     5    17    1
     8    17    18   ar
     9    17    19   ar
    10    15    20    1
    11    20    21    1
    12    21    22    2
    13    22    23    1
    14    23    24    1
    15    21    25    1
    16    24    25    1
    17    22    26    1
    18    26    27    2
    19     1     2   ar
    20     2     3   ar
    21     3     4   ar
    22     4     5   ar
    23     5     6   ar
    24     6     1   ar
    25     8     9   ar
    26     9    10   ar
    27    10    11   ar
    28    11    12   ar
    29    12    13   ar
    30    13     8   ar
