@<TRIPOS>MOLECULE
No_4674-gen_results/8p0m/2024-11-26-14-13-15/
 21 23 0 0 0
SMALL
GASTEIGER

@<TRIPOS>ATOM
      1 C         -28.0162   -0.8135   28.8779 C.ar    1  UNL1       -0.0039
      2 C         -28.4690   -0.7850   29.8287 C.ar    1  UNL1       -0.0003
      3 C         -27.0871    0.2903   28.6377 C.ar    1  UNL1       -0.0181
      4 C         -26.8317    1.2487   29.5869 C.ar    1  UNL1       -0.0039
      5 C         -28.3914    0.0801   31.0065 C.ar    1  UNL1       -0.0000
      6 C         -27.4940    1.1521   30.7841 C.ar    1  UNL1       -0.0003
      7 C         -26.3109    0.3917   27.3640 C.3     1  UNL1        0.0489
      8 C         -24.9686    0.2477   27.4806 C.ar    1  UNL1       -0.0179
      9 C         -24.2490   -0.0471   28.6523 C.ar    1  UNL1       -0.0007
     10 C         -22.8336    0.1271   28.6599 C.ar    1  UNL1        0.0417
     11 C         -22.2217    1.0291   27.7525 C.ar    1  UNL1        0.1957
     12 C         -22.9750    1.5276   26.6701 C.ar    1  UNL1        0.0417
     13 C         -24.3609    1.2906   26.6528 C.ar    1  UNL1       -0.0007
     14 C         -26.9616    0.1976   26.1708 C.3     1  UNL1        0.0351
     15 C         -27.7633    1.0120   25.6155 C.ar    1  UNL1       -0.0215
     16 C         -28.3905    0.8064   24.3617 C.ar    1  UNL1       -0.0042
     17 C         -29.5552    1.5483   24.0112 C.ar    1  UNL1       -0.0003
     18 C         -29.9621    2.6410   24.8282 C.ar    1  UNL1       -0.0000
     19 C         -29.2986    2.9978   25.9800 C.ar    1  UNL1       -0.0003
     20 C         -28.3264    2.1530   26.4633 C.ar    1  UNL1       -0.0042
     21 O         -20.9351    1.3464   27.8831 O.3     1  UNL1       -0.2866
@<TRIPOS>BOND
     1     3     7    1
     2     7    14    1
     3    11    21    1
     4     7     8    1
     5    14    15    1
     6    15    16   ar
     7    16    17   ar
     8    17    18   ar
     9    18    19   ar
    10    19    20   ar
    11    20    15   ar
    12     8     9   ar
    13     9    10   ar
    14    10    11   ar
    15    11    12   ar
    16    12    13   ar
    17    13     8   ar
    18     1     2   ar
    19     2     5   ar
    20     5     6   ar
    21     6     4   ar
    22     4     3   ar
    23     3     1   ar
