@<TRIPOS>MOLECULE
No_4676-gen_results/8p0m/2024-11-26-14-13-15/
 24 25 0 0 0
SMALL
GASTEIGER

@<TRIPOS>ATOM
      1 C         -28.0162   -0.8135   28.8779 C.ar    1  UNL1        0.0058
      2 C         -27.0636   -0.1189   28.6079 C.ar    1  UNL1        0.0551
      3 C         -27.0010    0.6913   27.4910 C.ar    1  UNL1        0.0058
      4 C         -28.1373    0.7363   26.6350 C.ar    1  UNL1        0.0147
      5 C         -29.2360    0.0765   27.0690 C.ar    1  UNL1        0.0482
      6 C         -29.2177   -0.6429   28.1747 C.ar    1  UNL1        0.0147
      7 N         -30.3516    0.1564   26.2430 N.pl3   1  UNL1       -0.2998
      8 C         -30.2688    0.1234   24.9367 C.3     1  UNL1        0.1770
      9 C         -29.6118   -0.5250   24.3822 C.2     1  UNL1        0.3824
     10 C         -31.3893    0.8558   24.2543 C.3     1  UNL1        0.0315
     11 O         -28.6627   -1.2495   24.8805 O.co2   1  UNL1       -0.2438
     12 C         -31.6165    0.0829   26.9428 C.3     1  UNL1        0.0912
     13 C         -32.5249    0.9307   26.3248 C.3     1  UNL1        0.0215
     14 C         -32.5788    1.0398   24.9197 C.3     1  UNL1        0.0040
     15 O         -29.4844   -0.5868   23.0372 O.co2   1  UNL1       -0.2438
     16 C         -25.7008   -0.2471   29.3904 C.2     1  UNL1        0.2651
     17 N         -24.8672    0.5874   29.7092 N.am    1  UNL1       -0.1968
     18 C         -23.6037    0.3455   30.0579 C.3     1  UNL1        0.1414
     19 C         -22.7407   -0.2166   29.1649 C.2     1  UNL1       -0.0019
     20 O         -25.6392   -1.4117   30.0090 O.2     1  UNL1       -0.2684
     21 C         -22.0826    0.6798   28.2961 C.2     1  UNL1        0.0420
     22 C         -22.6239    1.8826   27.8720 C.3     1  UNL1        0.3406
     23 F         -23.0063    2.6365   28.7230 F       1  UNL1       -0.1933
     24 F         -22.6216    2.2133   26.6512 F       1  UNL1       -0.1933
@<TRIPOS>BOND
     1     5     7    1
     2     7     8    1
     3     8     9    1
     4     8    10    1
     5     9    11   ar
     6     7    12    1
     7    13    14    1
     8     9    15   ar
     9     2    16    1
    10    16    17   am
    11    17    18    1
    12    18    19    1
    13    16    20    2
    14    19    21    2
    15    21    22    1
    16    22    23    1
    17    22    24    1
    18    10    14    1
    19    13    12    1
    20     1     2   ar
    21     2     3   ar
    22     3     4   ar
    23     4     5   ar
    24     5     6   ar
    25     6     1   ar
