@<TRIPOS>MOLECULE
No_4677-gen_results/8p0m/2024-11-26-14-13-15/
 22 23 0 0 0
SMALL
GASTEIGER

@<TRIPOS>ATOM
      1 C         -28.0162   -0.8135   28.8779 C.ar    1  UNL1       -0.0038
      2 C         -27.0636   -0.1190   28.6079 C.ar    1  UNL1       -0.0143
      3 C         -25.7923   -0.4302   29.0761 C.ar    1  UNL1       -0.0038
      4 C         -25.5756   -1.5654   29.9363 C.ar    1  UNL1       -0.0003
      5 C         -26.7354   -2.3004   30.2173 C.ar    1  UNL1       -0.0000
      6 C         -27.9184   -1.9537   29.7629 C.ar    1  UNL1       -0.0003
      7 C         -27.1057    1.1023   27.7593 C.3     1  UNL1        0.0942
      8 C         -26.7157    2.2350   27.9945 C.ar    1  UNL1       -0.0143
      9 C         -27.6806    0.8547   26.4259 C.3     1  UNL1        0.2428
     10 C         -26.0318    2.5935   29.1910 C.ar    1  UNL1       -0.0038
     11 C         -25.6600    3.4097   29.7908 C.ar    1  UNL1       -0.0003
     12 C         -26.2417    4.7326   29.5226 C.ar    1  UNL1       -0.0000
     13 C         -26.9553    4.7006   28.2749 C.ar    1  UNL1       -0.0003
     14 C         -27.6133    3.4735   27.9905 C.ar    1  UNL1       -0.0038
     15 N         -28.8689    0.7597   26.1707 N.3     1  UNL1       -0.1864
     16 F         -26.9552    1.2943   25.5370 F       1  UNL1       -0.2170
     17 C         -29.3882    0.3096   24.9964 C.3     1  UNL1        0.1003
     18 C         -30.6761   -0.2822   24.9540 C.3     1  UNL1        0.1221
     19 C         -31.2576   -0.5655   26.0653 C.3     1  UNL1        0.3992
     20 F         -30.7974    0.0214   26.9987 F       1  UNL1       -0.1700
     21 F         -32.6224   -0.3348   26.0370 F       1  UNL1       -0.1700
     22 F         -31.2619   -1.9532   26.2693 F       1  UNL1       -0.1700
@<TRIPOS>BOND
     1     2     7    1
     2     7     8    1
     3     7     9    1
     4     9    15    1
     5     9    16    1
     6    15    17    1
     7    17    18    1
     8    18    19    1
     9    19    20    1
    10    19    21    1
    11    19    22    1
    12     8    10   ar
    13    10    11   ar
    14    11    12   ar
    15    12    13   ar
    16    13    14   ar
    17    14     8   ar
    18     1     2   ar
    19     2     3   ar
    20     3     4   ar
    21     4     5   ar
    22     5     6   ar
    23     6     1   ar
