@<TRIPOS>MOLECULE
No_4678-gen_results/8p0m/2024-11-26-14-13-15/
 12 12 0 0 0
SMALL
GASTEIGER

@<TRIPOS>ATOM
      1 C         -28.0162   -0.8135   28.8779 C.ar    1  UNL1       -0.0028
      2 C         -28.4690   -0.7850   29.8287 C.ar    1  UNL1       -0.0033
      3 C         -26.5042   -0.7777   28.8766 C.ar    1  UNL1       -0.0003
      4 C         -25.8103   -0.8531   30.1028 C.ar    1  UNL1       -0.0000
      5 C         -27.9906   -0.8916   31.2257 C.ar    1  UNL1       -0.0028
      6 C         -26.6042   -0.8676   31.2652 C.ar    1  UNL1       -0.0003
      7 C         -30.0739   -0.8360   29.8615 C.3     1  UNL1        0.1365
      8 N         -30.6529   -1.7943   30.2676 N.3     1  UNL1       -0.1263
      9 C         -30.5853   -0.3977   28.4870 C.3     1  UNL1        0.1658
     10 CL        -29.8469    0.7062   27.6201 Cl      1  UNL1       -0.1047
     11 C         -31.8136   -0.9554   28.0486 C.2     1  UNL1        0.2251
     12 O         -32.2497   -0.5877   26.9669 O.2     1  UNL1       -0.2869
@<TRIPOS>BOND
     1     2     7    1
     2     7     8    1
     3     7     9    1
     4     9    10    1
     5     9    11    1
     6    11    12    2
     7     1     2   ar
     8     2     5   ar
     9     5     6   ar
    10     6     4   ar
    11     4     3   ar
    12     3     1   ar
