@<TRIPOS>MOLECULE
No_4679-gen_results/8p0m/2024-11-26-14-13-15/
 20 20 0 0 0
SMALL
GASTEIGER

@<TRIPOS>ATOM
      1 C         -28.0162   -0.8135   28.8779 C.3     1  UNL1        0.1148
      2 C         -27.0636   -0.1189   28.6079 C.3     1  UNL1        0.0266
      3 C         -26.9716    0.7139   27.5060 C.3     1  UNL1        0.1544
      4 C         -25.8205    1.4910   27.1160 C.2     1  UNL1        0.1798
      5 C         -24.6562    1.4242   27.9180 C.3     1  UNL1        0.2047
      6 C         -24.6847    0.5901   29.0659 C.3     1  UNL1        0.0307
      7 C         -25.8099   -0.1265   29.3338 C.3     1  UNL1        0.0032
      8 C         -28.6943   -0.4734   30.1587 C.2     1  UNL1        0.3649
      9 O         -28.7309    0.5070   30.6385 O.co2   1  UNL1       -0.2457
     10 O         -28.9307   -1.6314   30.8976 O.co2   1  UNL1       -0.2457
     11 C         -23.4664    2.2000   27.5987 C.3     1  UNL1        0.4158
     12 F         -22.6443    1.6762   27.0849 F       1  UNL1       -0.1682
     13 F         -23.0054    2.8041   28.7625 F       1  UNL1       -0.1682
     14 F         -23.8752    3.3224   26.8930 F       1  UNL1       -0.1682
     15 C         -28.1072    0.8025   26.5672 C.3     1  UNL1        0.4040
     16 F         -29.1674    0.8691   27.0105 F       1  UNL1       -0.1696
     17 F         -27.8858    1.8674   25.7617 F       1  UNL1       -0.1696
     18 F         -27.9934   -0.2266   25.6526 F       1  UNL1       -0.1696
     19 CL        -23.9279    0.8609   27.4497 Cl      1  UNL1       -0.0999
     20 O         -25.9094    2.3974   26.2714 O.2     1  UNL1       -0.2943
@<TRIPOS>BOND
     1     2     3    1
     2     3     4    1
     3     4     5    1
     4     5     6    1
     5     2     7    1
     6     1     8    1
     7     8     9   ar
     8     8    10   ar
     9     5    11    1
    10    11    12    1
    11    11    13    1
    12    11    14    1
    13     3    15    1
    14    15    16    1
    15    15    17    1
    16    15    18    1
    17     5    19    1
    18     4    20    2
    19     1     2    1
    20     7     6    1
