@<TRIPOS>MOLECULE
No_468-gen_results/8p0m/2024-11-26-14-13-15/
 10 11 0 0 0
SMALL
GASTEIGER

@<TRIPOS>ATOM
      1 C         -28.0162   -0.8135   28.8779 C.ar    1  UNL1        0.0000
      2 C         -28.4690   -0.7850   29.8287 C.ar    1  UNL1        0.0000
      3 C         -26.5455   -0.8762   28.8500 C.ar    1  UNL1        0.0000
      4 C         -25.6825   -0.7773   27.6829 C.ar    1  UNL1        0.0000
      5 C         -27.9181   -1.0034   31.1877 C.ar    1  UNL1        0.0000
      6 C         -26.5308   -1.0794   31.2463 C.ar    1  UNL1        0.0000
      7 C         -25.7798   -1.0462   30.0905 C.ar    1  UNL1        0.0000
      8 C         -24.3676   -0.2500   27.7917 C.ar    1  UNL1        0.0000
      9 C         -23.6098   -0.5654   28.9538 C.ar    1  UNL1        0.0000
     10 C         -24.3454   -0.8293   30.1020 C.ar    1  UNL1        0.0000
@<TRIPOS>BOND
     1     1     2   ar
     2     2     5   ar
     3     5     6   ar
     4     6     7   ar
     5     3     1   ar
     6     3     4   ar
     7     4     8   ar
     8     8     9   ar
     9     9    10   ar
    10    10     7   ar
    11     7     3   ar
