@<TRIPOS>MOLECULE
No_4680-gen_results/8p0m/2024-11-26-14-13-15/
 7 7 0 0 0
SMALL
GASTEIGER

@<TRIPOS>ATOM
      1 C         -28.0162   -0.8135   28.8779 C.ar    1  UNL1       -0.0003
      2 C         -28.4690   -0.7850   29.8287 C.ar    1  UNL1       -0.0043
      3 C         -27.0871    0.2903   28.6377 C.ar    1  UNL1       -0.0000
      4 C         -26.8317    1.2487   29.5869 C.ar    1  UNL1       -0.0003
      5 C         -28.3914    0.0801   31.0065 C.ar    1  UNL1       -0.0218
      6 C         -29.0884   -0.0323   32.2295 C.3     1  UNL1        0.0310
      7 C         -27.4751    1.1274   30.7658 C.ar    1  UNL1       -0.0043
@<TRIPOS>BOND
     1     5     6    1
     2     1     2   ar
     3     2     5   ar
     4     5     7   ar
     5     7     4   ar
     6     4     3   ar
     7     3     1   ar
