@<TRIPOS>MOLECULE
No_4681-gen_results/8p0m/2024-11-26-14-13-15/
 17 18 0 0 0
SMALL
GASTEIGER

@<TRIPOS>ATOM
      1 C         -28.0162   -0.8135   28.8779 C.ar    1  UNL1       -0.0000
      2 C         -28.4690   -0.7850   29.8287 C.ar    1  UNL1       -0.0000
      3 C         -27.1356    0.2359   28.5352 C.ar    1  UNL1       -0.0002
      4 C         -26.3351    0.2900   27.2835 C.ar    1  UNL1       -0.0003
      5 C         -28.3692    0.1957   30.9236 C.ar    1  UNL1       -0.0000
      6 C         -27.5158    1.2655   30.6540 C.ar    1  UNL1       -0.0002
      7 C         -26.8411    1.2942   29.4761 C.ar    1  UNL1       -0.0003
      8 C         -25.3614    0.7752   26.9672 C.ar    1  UNL1       -0.0031
      9 C         -24.8304    1.7670   28.0167 C.ar    1  UNL1       -0.0048
     10 C         -25.5667    2.0016   29.2020 C.ar    1  UNL1        0.0256
     11 C         -23.6079    2.5927   27.6640 C.3     1  UNL1        0.1148
     12 N         -22.5027    2.0936   27.6165 N.3     1  UNL1       -0.2133
     13 C         -21.9648    1.4432   28.7434 C.3     1  UNL1        0.0891
     14 C         -21.7313   -0.0225   28.4699 C.3     1  UNL1        0.0203
     15 C         -25.1301    3.0748   30.1874 C.3     1  UNL1        0.2734
     16 N         -24.3816    2.7016   31.2225 N.3     1  UNL1       -0.0898
     17 F         -25.4734    4.1846   29.9657 F       1  UNL1       -0.2112
@<TRIPOS>BOND
     1     9    11    1
     2    11    12    1
     3    12    13    1
     4    13    14    1
     5    10    15    1
     6    15    16    1
     7    15    17    1
     8     1     2   ar
     9     2     5   ar
    10     5     6   ar
    11     6     7   ar
    12     3     1   ar
    13     3     4   ar
    14     4     8   ar
    15     8     9   ar
    16     9    10   ar
    17    10     7   ar
    18     7     3   ar
