@<TRIPOS>MOLECULE
No_4683-gen_results/8p0m/2024-11-26-14-13-15/
 29 32 0 0 0
SMALL
GASTEIGER

@<TRIPOS>ATOM
      1 C         -28.0162   -0.8135   28.8779 C.ar    1  UNL1        0.0120
      2 C         -28.4690   -0.7850   29.8287 C.ar    1  UNL1        0.0538
      3 C         -27.1356    0.2359   28.5352 C.ar    1  UNL1        0.0865
      4 C         -26.8745    1.2825   29.3982 C.ar    1  UNL1        0.0075
      5 C         -28.3613    0.1987   30.9244 C.ar    1  UNL1        0.0045
      6 C         -27.5277    1.2234   30.6356 C.ar    1  UNL1        0.0004
      7 C         -26.3987    0.2949   27.2279 C.2     1  UNL1        0.3659
      8 N         -26.8913    0.5126   26.1471 N.2     1  UNL1       -0.0362
      9 N         -25.0914   -0.3153   27.2121 N.pl3   1  UNL1       -0.0057
     10 C         -28.1257    1.0140   25.9278 C.ar    1  UNL1        0.1934
     11 C         -28.6241    1.8356   26.7354 C.ar    1  UNL1        0.0466
     12 C         -29.0194    0.0839   25.2436 C.ar    1  UNL1        0.0466
     13 C         -29.9944    2.3645   26.4690 C.ar    1  UNL1        0.0038
     14 C         -30.3185    0.5156   24.9157 C.ar    1  UNL1        0.0038
     15 C         -30.7842    1.6484   25.6186 C.ar    1  UNL1        0.0002
     16 C         -24.5003   -0.7509   28.4369 C.ar    1  UNL1        0.1834
     17 C         -24.4436   -1.9603   28.7478 C.ar    1  UNL1        0.0444
     18 C         -23.8882   -2.4051   29.9676 C.ar    1  UNL1        0.0036
     19 C         -23.3914   -1.4364   30.8516 C.ar    1  UNL1        0.0002
     20 C         -23.9811    0.2889   29.2997 C.ar    1  UNL1        0.0444
     21 C         -23.3955   -0.1047   30.5134 C.ar    1  UNL1        0.0036
     22 C         -29.4905   -1.9239   30.3165 C.2     1  UNL1        0.2490
     23 O         -29.1143   -2.9958   30.4524 O.2     1  UNL1       -0.2699
     24 N         -30.8104   -1.6698   30.4484 N.am    1  UNL1       -0.2761
     25 C         -31.7605   -2.2353   30.3424 C.3     1  UNL1        0.0937
     26 C         -32.9536   -1.6645   30.3362 C.3     1  UNL1        0.0216
     27 C         -32.9194   -0.2766   30.4855 C.3     1  UNL1        0.0035
     28 C         -31.9334    0.3095   30.4968 C.3     1  UNL1        0.0216
     29 C         -30.7605   -0.1455   30.4444 C.3     1  UNL1        0.0937
@<TRIPOS>BOND
     1     3     7    1
     2     7     8    2
     3     7     9    1
     4     8    10    1
     5     9    16    1
     6     2    22    1
     7    22    23    2
     8    22    24   am
     9    24    25    1
    10    26    27    1
    11    24    29    1
    12    28    29    1
    13    25    26    1
    14    27    28    1
    15    10    11   ar
    16    11    13   ar
    17    13    15   ar
    18    15    14   ar
    19    14    12   ar
    20    12    10   ar
    21     1     2   ar
    22     2     5   ar
    23     5     6   ar
    24     6     4   ar
    25     4     3   ar
    26     3     1   ar
    27    16    17   ar
    28    17    18   ar
    29    18    19   ar
    30    19    21   ar
    31    21    20   ar
    32    20    16   ar
