@<TRIPOS>MOLECULE
No_4684-gen_results/8p0m/2024-11-26-14-13-15/
 21 24 0 0 0
SMALL
GASTEIGER

@<TRIPOS>ATOM
      1 C         -28.0162   -0.8135   28.8779 C.ar    1  UNL1        0.0172
      2 C         -27.0636   -0.1189   28.6079 C.ar    1  UNL1        0.0174
      3 C         -25.7923   -0.4302   29.0761 C.ar    1  UNL1        0.0599
      4 C         -24.5456    0.3494   28.8225 C.ar    1  UNL1        0.0160
      5 C         -24.6586    1.4196   27.8878 C.ar    1  UNL1        0.0078
      6 C         -25.9471    1.6811   27.3792 C.ar    1  UNL1        0.0799
      7 C         -27.0439    0.9739   27.6871 C.ar    1  UNL1        0.0081
      8 C         -29.2364   -0.0611   29.2668 C.ar    1  UNL1        0.0015
      9 C         -29.8066   -0.3562   30.3832 C.ar    1  UNL1        0.0001
     10 C         -29.6377   -1.6892   30.9871 C.ar    1  UNL1        0.0015
     11 C         -28.5402   -2.4407   30.5652 C.ar    1  UNL1        0.0172
     12 C         -27.7176   -1.8902   29.8136 C.ar    1  UNL1        0.0599
     13 N         -26.3178   -2.0985   29.6846 N.ar    1  UNL1       -0.3252
     14 C         -25.3729   -2.2055   30.8349 C.3     1  UNL1        0.1304
     15 C         -23.2297   -0.0914   29.3485 C.ar    1  UNL1        0.0014
     16 C         -22.0931    0.2480   28.7888 C.ar    1  UNL1        0.0000
     17 C         -22.0852    1.1741   27.7057 C.ar    1  UNL1        0.0000
     18 C         -23.4132    1.9624   27.3424 C.ar    1  UNL1        0.0003
     19 C         -25.9987    2.8935   26.4805 C.2     1  UNL1        0.3878
     20 O         -26.6753    2.7024   25.5648 O.co2   1  UNL1       -0.2406
     21 O         -25.4181    4.0044   26.8626 O.co2   1  UNL1       -0.2406
@<TRIPOS>BOND
     1     1     2   ar
     2     3    13   ar
     3    12    13   ar
     4    13    14    1
     5     6    19    1
     6    19    20   ar
     7    19    21   ar
     8     2     3   ar
     9     3     4   ar
    10     5     6   ar
    11     6     7   ar
    12     7     2   ar
    13     1     8   ar
    14     8     9   ar
    15     9    10   ar
    16    10    11   ar
    17    11    12   ar
    18    12     1   ar
    19     4     5   ar
    20     5    18   ar
    21    18    17   ar
    22    17    16   ar
    23    16    15   ar
    24    15     4   ar
