@<TRIPOS>MOLECULE
No_4686-gen_results/8p0m/2024-11-26-14-13-15/
 27 29 0 0 0
SMALL
GASTEIGER

@<TRIPOS>ATOM
      1 C         -28.0162   -0.8135   28.8779 C.ar    1  UNL1       -0.0045
      2 C         -28.4690   -0.7850   29.8287 C.ar    1  UNL1       -0.0003
      3 C         -27.1356    0.2359   28.5352 C.ar    1  UNL1       -0.0228
      4 C         -26.8745    1.2825   29.3982 C.ar    1  UNL1       -0.0217
      5 C         -28.3613    0.1987   30.9244 C.ar    1  UNL1       -0.0003
      6 C         -27.5277    1.2234   30.6356 C.ar    1  UNL1       -0.0042
      7 C         -26.3987    0.2949   27.2279 C.3     1  UNL1        0.0629
      8 C         -25.0392    0.2356   27.3538 C.3     1  UNL1        0.0294
      9 C         -27.0287    0.3958   26.0087 C.3     1  UNL1        0.1874
     10 C         -28.3713    0.5360   25.8782 C.ar    1  UNL1        0.0103
     11 C         -28.8860    0.5071   24.5687 C.ar    1  UNL1       -0.0016
     12 C         -30.2841    0.5712   24.3900 C.ar    1  UNL1       -0.0001
     13 C         -31.1106    0.6022   25.4906 C.ar    1  UNL1        0.0046
     14 C         -30.6219    0.5694   26.7682 C.ar    1  UNL1        0.0552
     15 C         -29.2916    0.5546   26.9892 C.ar    1  UNL1        0.0029
     16 F         -26.3161    0.4756   24.9763 F       1  UNL1       -0.2321
     17 C         -31.6205    0.6749   27.9012 C.2     1  UNL1        0.2690
     18 N         -32.0352   -0.1795   28.4571 N.am    1  UNL1       -0.1727
     19 C         -32.6570   -0.2051   29.6502 C.2     1  UNL1        0.1068
     20 O         -31.5774    1.8645   28.3210 O.2     1  UNL1       -0.2680
     21 C         -24.1058    1.0472   28.0440 C.2     1  UNL1       -0.0437
     22 C         -22.8185    0.7136   28.2923 C.2     1  UNL1       -0.0339
     23 C         -21.8138    1.6352   28.0376 C.3     1  UNL1        0.0300
     24 C         -24.3460    2.4861   28.1047 C.3     1  UNL1        0.0473
     25 C         -25.4989    3.1074   27.8371 C.2     1  UNL1       -0.0260
     26 C         -26.0821    3.2874   29.1634 C.2     1  UNL1       -0.0257
     27 C         -26.0223    2.3987   29.2628 C.3     1  UNL1        0.0517
@<TRIPOS>BOND
     1     3     7    1
     2     7     8    1
     3     7     9    1
     4     9    10    1
     5     9    16    1
     6    14    17    1
     7    17    18    1
     8    18    19    2
     9    17    20    2
    10     8    21    1
    11    21    22    2
    12    22    23    1
    13    21    24    1
    14    24    25    1
    15    25    26    2
    16     4    27    1
    17    26    27    1
    18     1     2   ar
    19     2     5   ar
    20     5     6   ar
    21     6     4   ar
    22     4     3   ar
    23     3     1   ar
    24    10    11   ar
    25    11    12   ar
    26    12    13   ar
    27    13    14   ar
    28    14    15   ar
    29    15    10   ar
