@<TRIPOS>MOLECULE
No_4687-gen_results/8p0m/2024-11-26-14-13-15/
 14 14 0 0 0
SMALL
GASTEIGER

@<TRIPOS>ATOM
      1 C         -28.0162   -0.8135   28.8779 C.3     1  UNL1        0.1386
      2 C         -27.0636   -0.1189   28.6079 C.ar    1  UNL1       -0.0007
      3 C         -27.0010    0.6913   27.4910 C.ar    1  UNL1       -0.0023
      4 C         -25.8548    1.4825   27.0830 C.ar    1  UNL1        0.0063
      5 C         -24.6901    1.4526   27.8807 C.ar    1  UNL1        0.0798
      6 C         -24.7379    0.6010   29.0416 C.ar    1  UNL1        0.0063
      7 C         -25.8234   -0.1688   29.3887 C.ar    1  UNL1       -0.0023
      8 N         -29.2150   -0.1726   29.0132 N.pl3   1  UNL1       -0.2319
      9 C         -30.2463   -0.7736   29.6388 C.2     1  UNL1        0.0759
     10 C         -23.5190    2.2034   27.5550 C.2     1  UNL1        0.3878
     11 O         -23.4378    2.7950   26.4513 O.co2   1  UNL1       -0.2406
     12 O         -22.3767    1.9886   28.1801 O.co2   1  UNL1       -0.2406
     13 C         -30.4245   -0.8103   30.8382 C.2     1  UNL1       -0.0084
     14 C         -31.5308   -1.4705   31.5530 C.3     1  UNL1        0.0321
@<TRIPOS>BOND
     1     1     2    1
     2     1     8    1
     3     8     9    1
     4     5    10    1
     5    10    11   ar
     6    10    12   ar
     7     9    13    2
     8    13    14    1
     9     2     3   ar
    10     3     4   ar
    11     4     5   ar
    12     5     6   ar
    13     6     7   ar
    14     7     2   ar
