@<TRIPOS>MOLECULE
No_4688-gen_results/8p0m/2024-11-26-14-13-15/
 15 15 0 0 0
SMALL
GASTEIGER

@<TRIPOS>ATOM
      1 C         -28.0162   -0.8135   28.8779 C.3     1  UNL1        0.1090
      2 C         -27.0636   -0.1189   28.6079 C.3     1  UNL1        0.3339
      3 CL        -25.6156   -0.5162   28.8771 Cl      1  UNL1       -0.0466
      4 C         -28.4667   -0.6427   30.1520 C.2     1  UNL1       -0.0209
      5 C         -28.7384   -1.7415   30.9497 C.2     1  UNL1        0.0063
      6 C         -28.9906   -2.9865   30.2486 C.3     1  UNL1        0.1960
      7 C         -30.0790   -3.6720   30.5826 C.ar    1  UNL1        0.0119
      8 C         -31.1841   -3.0702   30.5794 C.ar    1  UNL1       -0.0015
      9 F         -27.0717    0.3049   27.1520 F       1  UNL1       -0.1864
     10 C         -32.3474   -3.7453   31.1424 C.ar    1  UNL1       -0.0002
     11 C         -32.2538   -5.1363   31.3221 C.ar    1  UNL1       -0.0000
     12 C         -31.0599   -5.8229   31.2159 C.ar    1  UNL1       -0.0002
     13 C         -29.9171   -5.0974   30.8872 C.ar    1  UNL1       -0.0015
     14 O         -27.7169   -3.7266   30.5492 O.3     1  UNL1       -0.2134
     15 F         -27.1728    1.2659   29.0789 F       1  UNL1       -0.1864
@<TRIPOS>BOND
     1     1     2    1
     2     2     3    1
     3     1     4    1
     4     4     5    2
     5     5     6    1
     6     6     7    1
     7     2     9    1
     8     6    14    1
     9     2    15    1
    10     7     8   ar
    11     8    10   ar
    12    10    11   ar
    13    11    12   ar
    14    12    13   ar
    15    13     7   ar
