@<TRIPOS>MOLECULE
No_4690-gen_results/8p0m/2024-11-26-14-13-15/
 16 17 0 0 0
SMALL
GASTEIGER

@<TRIPOS>ATOM
      1 C         -28.0162   -0.8135   28.8779 C.3     1  UNL1        0.1178
      2 C         -27.0636   -0.1189   28.6079 C.ar    1  UNL1       -0.0024
      3 C         -26.8756    1.1325   28.9134 C.ar    1  UNL1       -0.0024
      4 C         -25.6883    1.9515   28.5672 C.ar    1  UNL1        0.0063
      5 C         -24.6394    1.2834   27.8753 C.ar    1  UNL1        0.0798
      6 C         -23.4556    1.9996   27.5653 C.2     1  UNL1        0.3878
      7 C         -25.8432   -0.7373   27.9210 C.ar    1  UNL1       -0.0024
      8 C         -24.6903   -0.0521   27.5832 C.ar    1  UNL1        0.0063
      9 O         -22.7842    2.4779   28.2512 O.co2   1  UNL1       -0.2406
     10 O         -23.2005    2.0374   26.1913 O.co2   1  UNL1       -0.2406
     11 N         -29.2435   -0.2375   29.0814 N.pl3   1  UNL1       -0.2999
     12 C         -29.6324    0.6838   28.4386 C.2     1  UNL1        0.0598
     13 C         -30.9984    1.0686   28.7119 C.2     1  UNL1        0.0260
     14 C         -30.1651   -0.8706   30.0205 C.3     1  UNL1        0.1312
     15 C         -31.3479    0.1088   29.6959 C.3     1  UNL1        0.2039
     16 F         -32.5078   -0.1154   30.2363 F       1  UNL1       -0.2305
@<TRIPOS>BOND
     1     5     6    1
     2     6     9   ar
     3     6    10   ar
     4     1    11    1
     5    11    12    1
     6    12    13    2
     7    11    14    1
     8    13    15    1
     9    14    15    1
    10    15    16    1
    11     1     2    1
    12     2     3   ar
    13     3     4   ar
    14     4     5   ar
    15     5     8   ar
    16     8     7   ar
    17     7     2   ar
