@<TRIPOS>MOLECULE
No_4692-gen_results/8p0m/2024-11-26-14-13-15/
 28 32 0 0 0
SMALL
GASTEIGER

@<TRIPOS>ATOM
      1 C         -28.0162   -0.8135   28.8779 C.ar    1  UNL1       -0.0043
      2 C         -28.4690   -0.7850   29.8287 C.ar    1  UNL1       -0.0003
      3 C         -27.1356    0.2359   28.5352 C.ar    1  UNL1       -0.0230
      4 C         -26.3351    0.2900   27.2835 C.3     1  UNL1        0.0377
      5 C         -28.3692    0.1957   30.9236 C.ar    1  UNL1       -0.0003
      6 C         -27.5158    1.2655   30.6540 C.ar    1  UNL1       -0.0046
      7 C         -26.8411    1.2942   29.4761 C.ar    1  UNL1       -0.0255
      8 C         -25.6774    1.5199   26.9774 C.3     1  UNL1        0.0129
      9 C         -24.6512    1.5543   26.2096 C.3     1  UNL1        0.0010
     10 C         -23.8549    0.5222   25.7619 C.3     1  UNL1        0.0001
     11 C         -25.2254   -0.7227   27.1780 C.3     1  UNL1        0.0081
     12 C         -24.2037   -0.6337   26.2739 C.3     1  UNL1        0.0007
     13 C         -27.3044    0.0947   26.0491 C.ar    1  UNL1       -0.0188
     14 C         -27.0016    0.1949   24.8072 C.ar    1  UNL1       -0.0040
     15 C         -28.7248    0.0904   26.3740 C.ar    1  UNL1        0.0026
     16 C         -29.5158    0.7951   25.6405 C.ar    1  UNL1        0.0795
     17 C         -30.9040    0.8830   26.0226 C.2     1  UNL1        0.3877
     18 C         -29.1435    1.4718   24.4598 C.ar    1  UNL1        0.0066
     19 C         -27.8193    1.1398   23.9613 C.ar    1  UNL1       -0.0001
     20 O         -31.3781    1.7984   26.3770 O.co2   1  UNL1       -0.2406
     21 O         -31.5431   -0.2939   25.9429 O.co2   1  UNL1       -0.2406
     22 C         -26.3378    2.8266   27.4378 C.3     1  UNL1        0.0391
     23 C         -25.6870    4.0998   27.0388 C.2     1  UNL1        0.0427
     24 C         -26.4419    2.7954   29.0311 C.3     1  UNL1        0.0314
     25 C         -27.7602    2.9844   26.8511 C.3     1  UNL1        0.0290
     26 C         -27.8336    4.2942   26.0540 C.3     1  UNL1        0.1122
     27 C         -24.7554    4.4720   27.2280 C.2     1  UNL1        0.0127
     28 N         -26.7035    4.7703   26.2149 N.pl3   1  UNL1       -0.2419
@<TRIPOS>BOND
     1     3     4    1
     2     4     8    1
     3     9    10    1
     4     4    11    1
     5    11    12    1
     6     4    13    1
     7    16    17    1
     8    17    20   ar
     9    17    21   ar
    10     8    22    1
    11    22    23    1
    12     7    24    1
    13    22    24    1
    14    22    25    1
    15    25    26    1
    16    23    27    2
    17    23    28    1
    18    26    28    1
    19     8     9    1
    20    10    12    1
    21    13    14   ar
    22    14    19   ar
    23    19    18   ar
    24    18    16   ar
    25    16    15   ar
    26    15    13   ar
    27     1     2   ar
    28     2     5   ar
    29     5     6   ar
    30     6     7   ar
    31     7     3   ar
    32     3     1   ar
