@<TRIPOS>MOLECULE
No_4693-gen_results/8p0m/2024-11-26-14-13-15/
 28 30 0 0 0
SMALL
GASTEIGER

@<TRIPOS>ATOM
      1 C         -28.0162   -0.8135   28.8779 C.ar    1  UNL1        0.0375
      2 C         -28.4690   -0.7850   29.8287 C.ar    1  UNL1        0.0031
      3 C         -27.0871    0.2903   28.6377 C.ar    1  UNL1        0.1452
      4 C         -26.8317    1.2487   29.5869 C.ar    1  UNL1        0.0413
      5 C         -28.3914    0.0801   31.0065 C.ar    1  UNL1        0.0041
      6 C         -27.4940    1.1521   30.7841 C.ar    1  UNL1        0.0744
      7 O         -26.3819    0.3661   27.4556 O.3     1  UNL1       -0.4537
      8 C         -25.0356    0.3699   27.4975 C.ar    1  UNL1        0.1436
      9 C         -24.3058   -0.4185   28.2656 C.ar    1  UNL1        0.0372
     10 C         -22.8931   -0.2610   28.3625 C.ar    1  UNL1        0.0031
     11 C         -22.4676    0.9934   28.2981 C.ar    1  UNL1       -0.0000
     12 C         -24.5767    1.7248   27.1782 C.ar    1  UNL1        0.0418
     13 C         -23.2057    1.9509   27.4990 C.ar    1  UNL1        0.0012
     14 C         -25.2864    2.6685   26.4685 C.3     1  UNL1        0.1716
     15 O         -25.9735    3.4128   27.1931 O.3     1  UNL1       -0.3485
     16 C         -27.0540    4.0649   26.7534 C.3     1  UNL1        0.1473
     17 C         -27.2839    2.1636   31.8682 C.3     1  UNL1        0.4187
     18 F         -27.8268    1.9404   32.9143 F       1  UNL1       -0.1659
     19 F         -25.9530    2.2169   32.0911 F       1  UNL1       -0.1659
     20 F         -27.6066    3.3737   31.3784 F       1  UNL1       -0.1659
     21 C         -28.3208    3.8530   27.4010 C.3     1  UNL1        0.0581
     22 C         -29.2674    3.1360   26.7962 C.ar    1  UNL1       -0.0236
     23 C         -29.0105    2.5821   25.7738 C.ar    1  UNL1       -0.0045
     24 C         -29.9569    1.7940   25.0877 C.ar    1  UNL1       -0.0003
     25 C         -31.1865    1.5745   25.6938 C.ar    1  UNL1       -0.0003
     26 C         -31.4736    2.1526   26.9316 C.ar    1  UNL1       -0.0046
     27 C         -30.5145    2.9481   27.5468 C.ar    1  UNL1       -0.0257
     28 C         -30.8017    3.5551   28.8470 C.3     1  UNL1        0.0307
@<TRIPOS>BOND
     1     3     7    1
     2     7     8    1
     3    12    14    1
     4    14    15    1
     5    15    16    1
     6     6    17    1
     7    17    18    1
     8    17    19    1
     9    17    20    1
    10    16    21    1
    11    27    28    1
    12    21    22    1
    13    22    23   ar
    14    23    24   ar
    15    24    25   ar
    16    25    26   ar
    17    26    27   ar
    18    27    22   ar
    19     1     2   ar
    20     2     5   ar
    21     5     6   ar
    22     6     4   ar
    23     4     3   ar
    24     3     1   ar
    25     8     9   ar
    26     9    10   ar
    27    10    11   ar
    28    11    13   ar
    29    13    12   ar
    30    12     8   ar
