@<TRIPOS>MOLECULE
No_4694-gen_results/8p0m/2024-11-26-14-13-15/
 21 22 0 0 0
SMALL
GASTEIGER

@<TRIPOS>ATOM
      1 C         -28.0162   -0.8135   28.8779 C.3     1  UNL1        0.0161
      2 C         -28.4690   -0.7850   29.8287 C.3     1  UNL1        0.1038
      3 C         -26.5042   -0.7777   28.8766 C.3     1  UNL1        0.0336
      4 C         -25.7623   -0.0022   27.9705 C.ar    1  UNL1       -0.0219
      5 C         -25.2031    1.1747   28.5115 C.ar    1  UNL1       -0.0029
      6 C         -27.9874   -1.5007   31.0834 C.3     1  UNL1        0.0118
      7 C         -26.5998   -1.6117   31.1253 C.3     1  UNL1        0.0121
      8 C         -25.7883   -1.2892   30.0241 C.3     1  UNL1        0.1074
      9 C         -24.5477    1.9163   27.9816 C.ar    1  UNL1        0.0199
     10 C         -24.5352    2.2251   26.6757 C.ar    1  UNL1        0.1290
     11 C         -25.1751    1.1530   25.8902 C.ar    1  UNL1        0.0199
     12 C         -25.8616    0.0443   26.5341 C.ar    1  UNL1       -0.0029
     13 C         -24.3706   -1.4207   29.9841 C.2     1  UNL1        0.3646
     14 C         -30.0502   -0.6006   29.8768 C.2     1  UNL1        0.3643
     15 O         -30.6079   -0.4503   28.9116 O.co2   1  UNL1       -0.2457
     16 O         -30.6373   -0.4983   31.0621 O.co2   1  UNL1       -0.2457
     17 O         -23.9217   -2.4314   29.3679 O.co2   1  UNL1       -0.2457
     18 O         -23.7098   -1.0831   31.1300 O.co2   1  UNL1       -0.2457
     19 S         -23.6497    3.3720   25.7908 S.3     1  UNL1        0.1211
     20 O         -24.5346    4.4223   25.7240 O.2     1  UNL1       -0.1467
     21 O         -22.6824    3.6664   26.8060 O.2     1  UNL1       -0.1467
@<TRIPOS>BOND
     1     1     2    1
     2     1     3    1
     3     3     4    1
     4     2     6    1
     5     6     7    1
     6     3     8    1
     7     7     8    1
     8     8    13    1
     9     2    14    1
    10    14    15   ar
    11    14    16   ar
    12    13    17   ar
    13    13    18   ar
    14    10    19    1
    15    19    20    2
    16    19    21    2
    17     4     5   ar
    18     5     9   ar
    19     9    10   ar
    20    10    11   ar
    21    11    12   ar
    22    12     4   ar
