@<TRIPOS>MOLECULE
No_4695-gen_results/8p0m/2024-11-26-14-13-15/
 12 13 0 0 0
SMALL
GASTEIGER

@<TRIPOS>ATOM
      1 C         -28.0162   -0.8135   28.8779 C.ar    1  UNL1        0.0769
      2 CL        -28.6209   -1.1855   29.7353 Cl      1  UNL1       -0.0806
      3 C         -26.5231   -0.7877   28.9754 C.ar    1  UNL1        0.0149
      4 C         -25.6303   -0.0854   28.1406 C.ar    1  UNL1        0.0357
      5 C         -24.1741   -0.0070   28.3492 C.ar    1  UNL1        0.0029
      6 C         -23.6506   -0.8692   29.3397 C.ar    1  UNL1        0.0001
      7 C         -24.4595   -1.6300   30.1033 C.ar    1  UNL1        0.0000
      8 C         -25.7889   -1.6236   29.9615 C.ar    1  UNL1        0.0010
      9 C         -28.3459   -0.0191   27.6739 C.ar    1  UNL1        0.1117
     10 N         -27.6023    0.5611   26.8198 N.ar    1  UNL1       -0.2250
     11 C         -26.2239    0.6889   27.0533 C.ar    1  UNL1        0.1697
     12 N         -25.3775    1.2895   26.1772 N.pl3   1  UNL1       -0.1072
@<TRIPOS>BOND
     1     1     2    1
     2    11    12    1
     3     4     5   ar
     4     5     6   ar
     5     6     7   ar
     6     7     8   ar
     7     8     3   ar
     8     1     3   ar
     9     3     4   ar
    10     4    11   ar
    11    11    10   ar
    12    10     9   ar
    13     9     1   ar
