@<TRIPOS>MOLECULE
No_4696-gen_results/8p0m/2024-11-26-14-13-15/
 11 11 0 0 0
SMALL
GASTEIGER

@<TRIPOS>ATOM
      1 C         -28.0162   -0.8135   28.8779 C.ar    1  UNL1        0.0296
      2 C         -28.4690   -0.7850   29.8287 C.ar    1  UNL1        0.1401
      3 C         -26.5455   -0.8762   28.8500 C.ar    1  UNL1        0.0062
      4 C         -25.8041   -1.0324   30.0571 C.ar    1  UNL1        0.0716
      5 C         -27.9437   -0.9869   31.2075 C.ar    1  UNL1        0.0296
      6 C         -24.4008   -1.0969   30.0965 C.3     1  UNL1        0.4186
      7 C         -26.5612   -1.0746   31.2270 C.ar    1  UNL1        0.0062
      8 F         -23.8975   -1.6685   29.1653 F       1  UNL1       -0.1659
      9 F         -23.8363    0.1899   30.0609 F       1  UNL1       -0.1659
     10 F         -23.9339   -1.5652   31.3301 F       1  UNL1       -0.1659
     11 F         -29.9156   -0.6907   29.8645 F       1  UNL1       -0.2042
@<TRIPOS>BOND
     1     4     6    1
     2     6     8    1
     3     6     9    1
     4     6    10    1
     5     2    11    1
     6     1     2   ar
     7     2     5   ar
     8     5     7   ar
     9     7     4   ar
    10     4     3   ar
    11     3     1   ar
