@<TRIPOS>MOLECULE
No_4698-gen_results/8p0m/2024-11-26-14-13-15/
 7 7 0 0 0
SMALL
GASTEIGER

@<TRIPOS>ATOM
      1 C         -28.0162   -0.8135   28.8779 C.ar    1  UNL1        0.1401
      2 C         -28.4690   -0.7850   29.8287 C.ar    1  UNL1        0.0296
      3 F         -28.7063   -0.5182   27.8769 F       1  UNL1       -0.2042
      4 C         -26.5857   -0.9572   28.6898 C.ar    1  UNL1        0.0296
      5 C         -25.7973   -1.4978   29.7457 C.ar    1  UNL1        0.0023
      6 C         -27.7517   -1.2950   31.1605 C.ar    1  UNL1        0.0023
      7 C         -26.3994   -1.5687   31.0252 C.ar    1  UNL1        0.0001
@<TRIPOS>BOND
     1     1     3    1
     2     1     2   ar
     3     2     6   ar
     4     6     7   ar
     5     7     5   ar
     6     5     4   ar
     7     4     1   ar
