@<TRIPOS>MOLECULE
No_4699-gen_results/8p0m/2024-11-26-14-13-15/
 35 38 0 0 0
SMALL
GASTEIGER

@<TRIPOS>ATOM
      1 C         -28.0162   -0.8135   28.8779 C.ar    1  UNL1        0.0435
      2 C         -27.0636   -0.1189   28.6079 C.ar    1  UNL1        0.1387
      3 C         -25.7923   -0.4302   29.0761 C.ar    1  UNL1        0.0340
      4 C         -25.5756   -1.5654   29.9363 C.ar    1  UNL1       -0.0029
      5 C         -26.7354   -2.3004   30.2173 C.ar    1  UNL1        0.0039
      6 C         -27.8207   -1.9449   29.7721 C.ar    1  UNL1        0.0825
      7 O         -27.1235    1.0231   27.8500 O.3     1  UNL1       -0.4764
      8 C         -26.9039    0.9566   26.5325 C.3     1  UNL1        0.1756
      9 C         -29.0246   -2.7939   30.2274 C.2     1  UNL1        0.3878
     10 O         -29.4021   -2.6666   31.2612 O.co2   1  UNL1       -0.2406
     11 O         -29.4594   -3.6969   29.4451 O.co2   1  UNL1       -0.2406
     12 C         -27.9201    0.6515   25.7079 C.ar    1  UNL1        0.0158
     13 C         -29.1359    0.5429   26.2214 C.ar    1  UNL1        0.0056
     14 C         -30.2594    0.1857   25.3897 C.ar    1  UNL1        0.0754
     15 C         -29.9045   -0.1324   24.0599 C.ar    1  UNL1        0.0064
     16 C         -28.6663   -0.0769   23.5678 C.ar    1  UNL1       -0.0000
     17 C         -27.6095    0.3094   24.3775 C.ar    1  UNL1       -0.0009
     18 C         -25.4756    0.4147   26.2919 C.3     1  UNL1        0.0737
     19 C         -24.4286    1.5359   26.6124 C.ar    1  UNL1       -0.0034
     20 C         -23.2124    1.2215   27.1541 C.ar    1  UNL1       -0.0029
     21 C         -22.3207    2.3353   27.3199 C.ar    1  UNL1       -0.0002
     22 C         -24.7725    2.8480   26.2550 C.ar    1  UNL1        0.0616
     23 C         -23.8734    3.9074   26.4664 C.ar    1  UNL1        0.0158
     24 C         -22.6457    3.5989   27.0394 C.ar    1  UNL1        0.0013
     25 C         -26.8804    2.6354   26.2580 C.3     1  UNL1        0.1565
     26 N         -26.0799    3.2177   26.1063 N.pl3   1  UNL1       -0.2338
     27 C         -31.6155    0.0389   25.8493 C.2     1  UNL1        0.3412
     28 O         -32.1503    0.5723   26.6341 O.2     1  UNL1       -0.2449
     29 O         -32.0762   -1.1891   25.5268 O.3     1  UNL1       -0.4454
     30 C         -24.2332   -1.9008   30.3976 C.3     1  UNL1        0.0993
     31 N         -23.7191   -1.1148   31.3340 N.3     1  UNL1       -0.2665
     32 C         -24.2193   -0.7914   32.4411 C.3     1  UNL1        0.0899
     33 C         -22.9949    0.0122   30.6772 C.3     1  UNL1        0.0899
     34 C         -33.0622   -1.8125   26.2334 C.3     1  UNL1        0.2089
     35 C         -32.8327   -3.1957   26.2198 C.3     1  UNL1        0.0513
@<TRIPOS>BOND
     1     2     7    1
     2     7     8    1
     3     6     9    1
     4     9    10   ar
     5     9    11   ar
     6     8    12    1
     7     8    18    1
     8    18    19    1
     9     8    25    1
    10    22    26    1
    11    25    26    1
    12    14    27    1
    13    27    28    2
    14    27    29    1
    15     4    30    1
    16    30    31    1
    17    31    32    1
    18    31    33    1
    19    29    34    1
    20    34    35    1
    21    12    13   ar
    22    13    14   ar
    23    14    15   ar
    24    15    16   ar
    25    16    17   ar
    26    17    12   ar
    27     1     2   ar
    28     2     3   ar
    29     3     4   ar
    30     4     5   ar
    31     5     6   ar
    32     6     1   ar
    33    19    20   ar
    34    20    21   ar
    35    21    24   ar
    36    24    23   ar
    37    23    22   ar
    38    22    19   ar
