@<TRIPOS>MOLECULE
No_47-gen_results/8p0m/2024-11-26-14-13-15/
 9 9 0 0 0
SMALL
GASTEIGER

@<TRIPOS>ATOM
      1 C         -28.0162   -0.8135   28.8779 C.ar    1  UNL1        0.0191
      2 C         -27.0636   -0.1189   28.6079 C.ar    1  UNL1        0.0810
      3 C         -25.7923   -0.4302   29.0761 C.ar    1  UNL1        0.0191
      4 C         -25.5756   -1.5654   29.9363 C.ar    1  UNL1        0.0015
      5 C         -26.7354   -2.3004   30.2173 C.ar    1  UNL1        0.0001
      6 C         -27.9184   -1.9537   29.7629 C.ar    1  UNL1        0.0015
      7 N         -27.1059    1.0338   27.8185 N.2     1  UNL1       -0.2485
      8 C         -27.8211    1.6842   27.5015 C.2     1  UNL1        0.0728
      9 C         -27.6566    2.8204   26.5077 C.3     1  UNL1        0.0534
@<TRIPOS>BOND
     1     2     7    1
     2     7     8    2
     3     8     9    1
     4     1     2   ar
     5     2     3   ar
     6     3     4   ar
     7     4     5   ar
     8     5     6   ar
     9     6     1   ar
