@<TRIPOS>MOLECULE
No_470-gen_results/8p0m/2024-11-26-14-13-15/
 15 16 0 0 0
SMALL
GASTEIGER

@<TRIPOS>ATOM
      1 C         -28.0162   -0.8135   28.8779 C.3     1  UNL1        0.2014
      2 C         -28.4690   -0.7850   29.8287 C.2     1  UNL1       -0.0078
      3 F         -26.9162   -1.5644   28.7368 F       1  UNL1       -0.2279
      4 C         -28.1645    0.0261   27.7584 C.ar    1  UNL1        0.0095
      5 C         -29.4034    0.7099   27.5940 C.ar    1  UNL1       -0.0266
      6 C         -28.2839   -1.5937   31.0176 C.2     1  UNL1       -0.0061
      7 C         -30.1793    0.7103   28.7667 C.3     1  UNL1        0.0303
      8 C         -29.8604   -0.0378   29.8239 C.3     1  UNL1        0.0297
      9 C         -29.5811    1.5056   26.4173 C.ar    1  UNL1       -0.0219
     10 C         -30.1167    2.5185   26.4148 C.3     1  UNL1        0.0520
     11 C         -29.0676    0.9357   25.1630 C.ar    1  UNL1       -0.0043
     12 C         -30.6027    3.2045   27.6488 C.2     1  UNL1       -0.0214
     13 C         -28.1600   -0.0901   25.1296 C.ar    1  UNL1       -0.0006
     14 C         -27.5700   -0.5720   26.4315 C.ar    1  UNL1       -0.0017
     15 C         -31.0571    4.4658   27.7732 C.2     1  UNL1       -0.0046
@<TRIPOS>BOND
     1     1     2    1
     2     1     3    1
     3     1     4    1
     4     2     6    2
     5     5     7    1
     6     2     8    1
     7     7     8    1
     8    10    12    1
     9    12    15    2
    10    10     9    1
    11     4     5   ar
    12     5     9   ar
    13     9    11   ar
    14    11    13   ar
    15    13    14   ar
    16    14     4   ar
