@<TRIPOS>MOLECULE
No_4700-gen_results/8p0m/2024-11-26-14-13-15/
 35 39 0 0 0
SMALL
GASTEIGER

@<TRIPOS>ATOM
      1 C         -28.0162   -0.8135   28.8779 C.ar    1  UNL1        0.0023
      2 C         -28.4690   -0.7850   29.8287 C.ar    1  UNL1        0.0795
      3 C         -26.5042   -0.7777   28.8766 C.ar    1  UNL1       -0.0228
      4 C         -25.6540   -0.6597   27.7191 C.3     1  UNL1        0.0374
      5 C         -27.9180   -0.9374   31.1824 C.ar    1  UNL1        0.0062
      6 C         -26.5423   -0.9399   31.2606 C.ar    1  UNL1       -0.0044
      7 C         -25.7832   -0.8935   30.1201 C.ar    1  UNL1       -0.0258
      8 C         -25.8989    0.3149   26.7473 C.ar    1  UNL1       -0.0229
      9 C         -26.7729    0.4751   26.2575 C.ar    1  UNL1       -0.0085
     10 C         -26.9520    1.5350   25.1864 C.ar    1  UNL1       -0.0222
     11 C         -25.8813    2.3695   25.0852 C.ar    1  UNL1       -0.0046
     12 C         -24.7265    1.2485   26.4788 C.ar    1  UNL1       -0.0205
     13 C         -24.7826    2.2653   25.7067 C.ar    1  UNL1       -0.0045
     14 C         -23.3229    1.2346   27.2634 C.3     1  UNL1        0.0652
     15 C         -22.3838    1.9361   27.0679 C.2     1  UNL1        0.0996
     16 C         -23.1949    0.1087   28.2801 C.3     1  UNL1        0.0114
     17 C         -24.1696   -0.3355   28.5344 C.3     1  UNL1        0.0125
     18 C         -24.4789   -0.7290   29.8944 C.3     1  UNL1        0.0267
     19 N         -21.1555    1.7353   27.7157 N.2     1  UNL1       -0.1511
     20 C         -25.2073   -1.9787   27.0231 C.3     1  UNL1        0.0088
     21 C         -30.0911   -0.8647   29.8645 C.2     1  UNL1        0.3877
     22 O         -30.6968   -1.7701   30.1607 O.co2   1  UNL1       -0.2406
     23 O         -30.6411    0.2290   29.4149 O.co2   1  UNL1       -0.2406
     24 C         -28.2112    1.6740   24.4789 C.3     1  UNL1        0.0307
     25 C         -29.0826    2.7341   24.7825 C.3     1  UNL1        0.0267
     26 C         -28.9193    3.6401   25.7665 C.ar    1  UNL1       -0.0220
     27 C         -29.8044    4.7352   25.9327 C.ar    1  UNL1       -0.0043
     28 C         -29.6268    5.6926   26.9499 C.ar    1  UNL1       -0.0001
     29 C         -28.4884    5.6063   27.7485 C.ar    1  UNL1        0.0066
     30 C         -27.6021    4.5632   27.6109 C.ar    1  UNL1        0.0795
     31 C         -27.7721    3.6321   26.6445 C.ar    1  UNL1        0.0023
     32 C         -26.4794    4.4654   28.6113 C.2     1  UNL1        0.3877
     33 O         -25.5715    5.0748   28.5019 O.co2   1  UNL1       -0.2406
     34 O         -26.4994    3.2374   29.2696 O.co2   1  UNL1       -0.2406
     35 C         -30.2918    2.7932   23.9251 C.3     1  UNL1        0.0050
@<TRIPOS>BOND
     1     3     4    1
     2     4     8    1
     3    12    14    1
     4    14    15    1
     5    14    16    1
     6     4    17    1
     7    16    17    1
     8     7    18    1
     9    17    18    1
    10    15    19    2
    11     4    20    1
    12     2    21    1
    13    21    22   ar
    14    21    23   ar
    15    10    24    1
    16    24    25    1
    17    25    26    1
    18    30    32    1
    19    32    33   ar
    20    32    34   ar
    21    25    35    1
    22    26    27   ar
    23    27    28   ar
    24    28    29   ar
    25    29    30   ar
    26    30    31   ar
    27    31    26   ar
    28     1     2   ar
    29     2     5   ar
    30     5     6   ar
    31     6     7   ar
    32     7     3   ar
    33     3     1   ar
    34     8     9   ar
    35     9    10   ar
    36    10    11   ar
    37    11    13   ar
    38    13    12   ar
    39    12     8   ar
