@<TRIPOS>MOLECULE
No_4701-gen_results/8p0m/2024-11-26-14-13-15/
 27 28 0 0 0
SMALL
GASTEIGER

@<TRIPOS>ATOM
      1 C         -28.0162   -0.8135   28.8779 C.ar    1  UNL1        0.0366
      2 C         -27.0636   -0.1189   28.6079 C.ar    1  UNL1       -0.0004
      3 C         -25.7923   -0.4302   29.0761 C.ar    1  UNL1       -0.0098
      4 C         -25.5756   -1.5654   29.9363 C.ar    1  UNL1       -0.0005
      5 C         -26.7354   -2.3004   30.2173 C.ar    1  UNL1        0.0366
      6 C         -27.9184   -1.9537   29.7629 C.ar    1  UNL1        0.1387
      7 O         -29.0001   -2.7012   30.1151 O.3     1  UNL1       -0.4722
      8 C         -24.5290    0.3490   28.7998 C.3     1  UNL1        0.1451
      9 P         -23.8456    1.3781   29.8463 P.3     1  UNL1        0.3838
     10 O         -24.4844    2.0277   30.3825 O.3     1  UNL1       -0.2262
     11 O         -23.1097    0.3082   30.7805 O.3     1  UNL1       -0.1388
     12 O         -22.6475    1.9965   29.0132 O.2     1  UNL1       -0.2543
     13 BR        -25.4296    2.2377   31.8646 Br      1  UNL1        0.1083
     14 C         -30.1189   -2.1411   30.5556 C.3     1  UNL1        0.2434
     15 C         -31.2252   -2.7040   30.0021 C.3     1  UNL1        0.2143
     16 CL        -32.2471   -1.9609   29.0860 Cl      1  UNL1       -0.0871
     17 N         -30.9186   -4.0084   29.2811 N.pl3   1  UNL1       -0.2184
     18 C         -27.1449    1.0970   27.7145 C.ar    1  UNL1       -0.0002
     19 C         -28.3526    1.4669   27.3419 C.ar    1  UNL1       -0.0000
     20 C         -28.5575    2.5926   26.5130 C.ar    1  UNL1       -0.0000
     21 C         -27.3867    3.1915   25.9850 C.ar    1  UNL1       -0.0000
     22 C         -26.0640    2.8098   26.3447 C.ar    1  UNL1       -0.0000
     23 C         -25.9986    1.7931   27.1583 C.ar    1  UNL1       -0.0000
     24 C         -31.7253   -5.1086   29.4378 C.2     1  UNL1        0.0731
     25 C         -31.3528   -6.2008   28.6305 C.2     1  UNL1       -0.0275
     26 C         -30.5798   -5.9410   27.4876 C.3     1  UNL1        0.0277
     27 C         -31.8120   -7.5033   28.9291 C.3     1  UNL1        0.0277
@<TRIPOS>BOND
     1     6     7    1
     2     3     8    1
     3     8     9    1
     4     9    10    1
     5     9    11    1
     6     9    12    2
     7    10    13    1
     8     7    14    1
     9    14    15    1
    10    15    16    1
    11    15    17    1
    12     2    18    1
    13    17    24    1
    14    24    25    2
    15    25    26    1
    16    25    27    1
    17    18    19   ar
    18    19    20   ar
    19    20    21   ar
    20    21    22   ar
    21    22    23   ar
    22    23    18   ar
    23     1     2   ar
    24     2     3   ar
    25     3     4   ar
    26     4     5   ar
    27     5     6   ar
    28     6     1   ar
