@<TRIPOS>MOLECULE
No_4702-gen_results/8p0m/2024-11-26-14-13-15/
 20 21 0 0 0
SMALL
GASTEIGER

@<TRIPOS>ATOM
      1 C         -28.0162   -0.8135   28.8779 C.ar    1  UNL1        0.0000
      2 C         -28.4690   -0.7850   29.8287 C.ar    1  UNL1        0.0000
      3 C         -27.1356    0.2359   28.5352 C.ar    1  UNL1        0.0000
      4 C         -26.3351    0.2900   27.2835 C.ar    1  UNL1        0.0001
      5 C         -28.3692    0.1957   30.9236 C.ar    1  UNL1        0.0000
      6 C         -27.5158    1.2655   30.6540 C.ar    1  UNL1        0.0000
      7 C         -26.8411    1.2942   29.4761 C.ar    1  UNL1        0.0001
      8 C         -25.3613    0.7751   26.9673 C.ar    1  UNL1        0.0046
      9 C         -24.8302    1.7669   28.0168 C.ar    1  UNL1        0.0554
     10 C         -25.5666    2.0015   29.2021 C.ar    1  UNL1        0.0046
     11 C         -23.6194    2.6086   27.6652 C.2     1  UNL1        0.2687
     12 N         -22.4977    2.1146   27.5781 N.am    1  UNL1       -0.1798
     13 O         -23.8416    3.7793   27.2164 O.2     1  UNL1       -0.2680
     14 C         -21.9705    0.9737   28.2714 C.2     1  UNL1        0.0514
     15 C         -20.6648    0.5676   28.2577 C.2     1  UNL1        0.0132
     16 C         -22.8700    0.2295   29.1348 C.3     1  UNL1        0.0433
     17 C         -22.3276   -0.9027   29.8410 C.3     1  UNL1        0.0061
     18 C         -23.3048   -1.4681   30.6634 C.3     1  UNL1        0.0004
     19 C         -24.7290   -1.3765   30.3670 C.3     1  UNL1        0.0000
     20 C         -25.4904   -1.8514   31.5554 C.3     1  UNL1        0.0000
@<TRIPOS>BOND
     1     9    11    1
     2    11    12   am
     3    11    13    2
     4    12    14    1
     5    14    15    2
     6    14    16    1
     7    16    17    1
     8    17    18    1
     9    18    19    1
    10    19    20    1
    11     1     2   ar
    12     2     5   ar
    13     5     6   ar
    14     6     7   ar
    15     3     1   ar
    16     3     4   ar
    17     4     8   ar
    18     8     9   ar
    19     9    10   ar
    20    10     7   ar
    21     7     3   ar
