@<TRIPOS>MOLECULE
No_4703-gen_results/8p0m/2024-11-26-14-13-15/
 22 23 0 0 0
SMALL
GASTEIGER

@<TRIPOS>ATOM
      1 C         -28.0162   -0.8135   28.8779 C.ar    1  UNL1        0.0149
      2 C         -28.4690   -0.7850   29.8287 C.ar    1  UNL1        0.0537
      3 C         -26.5455   -0.8762   28.8500 C.ar    1  UNL1        0.0013
      4 C         -25.8041   -1.0324   30.0571 C.ar    1  UNL1        0.0001
      5 C         -27.9437   -0.9869   31.2075 C.ar    1  UNL1        0.0149
      6 C         -26.5825   -1.0386   31.2231 C.ar    1  UNL1        0.0013
      7 N         -29.9648   -0.7353   29.8902 N.pl3   1  UNL1       -0.2594
      8 C         -30.6477    0.3169   30.2682 C.ar    1  UNL1        0.0537
      9 C         -30.0738    1.3599   30.4675 C.ar    1  UNL1        0.0149
     10 C         -30.8903    2.5831   30.8240 C.ar    1  UNL1        0.0013
     11 C         -32.2735    2.3576   30.8552 C.ar    1  UNL1        0.0001
     12 C         -32.0553    0.2023   30.3346 C.ar    1  UNL1        0.0149
     13 C         -32.8220    1.2002   30.6226 C.ar    1  UNL1        0.0013
     14 C         -30.5889   -2.0056   29.5380 C.3     1  UNL1        0.2586
     15 F         -31.4643   -1.9068   28.6797 F       1  UNL1       -0.2129
     16 C         -30.2715   -3.1278   30.1949 C.3     1  UNL1        0.1455
     17 N         -30.6289   -4.2709   29.6454 N.3     1  UNL1       -0.2129
     18 C         -31.5134   -5.1374   30.3051 C.3     1  UNL1        0.0935
     19 C         -31.8079   -6.3355   29.6824 C.3     1  UNL1        0.0445
     20 C         -31.4885   -6.3881   28.2589 C.2     1  UNL1       -0.0292
     21 C         -31.7258   -7.5074   27.4676 C.2     1  UNL1       -0.0303
     22 C         -31.3407   -7.4405   26.1005 C.3     1  UNL1        0.0303
@<TRIPOS>BOND
     1     2     7    1
     2     7     8    1
     3     7    14    1
     4    14    15    1
     5    14    16    1
     6    16    17    1
     7    17    18    1
     8    18    19    1
     9    19    20    1
    10    20    21    2
    11    21    22    1
    12     1     2   ar
    13     2     5   ar
    14     5     6   ar
    15     6     4   ar
    16     4     3   ar
    17     3     1   ar
    18     8     9   ar
    19     9    10   ar
    20    10    11   ar
    21    11    13   ar
    22    13    12   ar
    23    12     8   ar
