@<TRIPOS>MOLECULE
No_4704-gen_results/8p0m/2024-11-26-14-13-15/
 24 26 0 0 0
SMALL
GASTEIGER

@<TRIPOS>ATOM
      1 C         -28.0162   -0.8135   28.8779 C.ar    1  UNL1        0.0045
      2 C         -28.4690   -0.7850   29.8287 C.ar    1  UNL1        0.0001
      3 C         -27.1356    0.2359   28.5352 C.ar    1  UNL1        0.0540
      4 C         -26.8745    1.2825   29.3982 C.ar    1  UNL1        0.0045
      5 C         -28.3613    0.1987   30.9244 C.ar    1  UNL1        0.0000
      6 C         -27.5277    1.2234   30.6356 C.ar    1  UNL1        0.0001
      7 C         -26.3879    0.2914   27.2334 C.2     1  UNL1        0.2550
      8 N         -25.5573    1.3117   27.0292 N.am    1  UNL1       -0.2211
      9 C         -24.3235    1.3464   27.3500 C.2     1  UNL1        0.2550
     10 C         -23.5855    0.5108   28.1695 C.ar    1  UNL1        0.0540
     11 C         -23.9813   -0.5804   28.7839 C.ar    1  UNL1        0.0045
     12 C         -23.2495   -1.3818   29.6237 C.ar    1  UNL1        0.0001
     13 C         -21.8977   -1.0265   29.7854 C.ar    1  UNL1        0.0000
     14 C         -21.3117    0.0619   29.1232 C.ar    1  UNL1        0.0001
     15 C         -22.1105    0.8614   28.3539 C.ar    1  UNL1        0.0045
     16 O         -23.5747    2.1761   26.5778 O.2     1  UNL1       -0.2695
     17 O         -26.5421   -0.5485   26.3473 O.2     1  UNL1       -0.2695
     18 C         -26.2448    2.3938   26.2914 C.3     1  UNL1        0.1234
     19 C         -27.3141    2.3670   31.6199 C.ar    1  UNL1        0.0000
     20 C         -26.1718    2.4833   32.1089 C.ar    1  UNL1        0.0000
     21 C         -25.7968    3.6020   33.0101 C.ar    1  UNL1        0.0000
     22 C         -26.7940    4.4083   33.4744 C.ar    1  UNL1        0.0000
     23 C         -28.0637    4.2160   32.8905 C.ar    1  UNL1        0.0000
     24 C         -28.3422    3.2308   31.9940 C.ar    1  UNL1        0.0000
@<TRIPOS>BOND
     1     3     7    1
     2     7     8   am
     3     8     9   am
     4     9    10    1
     5     9    16    2
     6     7    17    2
     7     8    18    1
     8     6    19    1
     9    19    20   ar
    10    20    21   ar
    11    21    22   ar
    12    22    23   ar
    13    23    24   ar
    14    24    19   ar
    15     1     2   ar
    16     2     5   ar
    17     5     6   ar
    18     6     4   ar
    19     4     3   ar
    20     3     1   ar
    21    10    11   ar
    22    11    12   ar
    23    12    13   ar
    24    13    14   ar
    25    14    15   ar
    26    15    10   ar
