@<TRIPOS>MOLECULE
No_4705-gen_results/8p0m/2024-11-26-14-13-15/
 21 22 0 0 0
SMALL
GASTEIGER

@<TRIPOS>ATOM
      1 C         -28.0162   -0.8135   28.8779 C.ar    1  UNL1       -0.0031
      2 C         -28.4690   -0.7850   29.8287 C.ar    1  UNL1       -0.0003
      3 C         -27.1356    0.2359   28.5352 C.ar    1  UNL1       -0.0071
      4 C         -26.8745    1.2825   29.3982 C.ar    1  UNL1       -0.0031
      5 C         -28.3613    0.1987   30.9244 C.ar    1  UNL1       -0.0000
      6 C         -27.5277    1.2234   30.6356 C.ar    1  UNL1       -0.0003
      7 C         -26.3987    0.2949   27.2279 C.3     1  UNL1        0.1060
      8 CL        -26.8982    0.0442   25.8959 Cl      1  UNL1       -0.1099
      9 C         -25.2576    1.1992   27.2815 C.3     1  UNL1        0.0412
     10 C         -23.9711    0.5581   27.1546 C.2     1  UNL1       -0.0295
     11 C         -22.8290    1.4776   27.1582 C.2     1  UNL1       -0.0307
     12 C         -23.1665    2.8512   26.9806 C.3     1  UNL1        0.0261
     13 C         -25.0485    2.6074   27.0839 C.3     1  UNL1        0.0099
     14 C         -25.8306    3.7101   26.9208 C.3     1  UNL1        0.0025
     15 C         -27.1380    3.5190   26.6428 C.3     1  UNL1        0.0001
     16 C         -25.3077    5.0504   27.2109 C.3     1  UNL1        0.0234
     17 C         -25.7302    5.8545   28.2891 C.3     1  UNL1        0.1131
     18 N         -25.8789    5.2741   29.4244 N.pl3   1  UNL1       -0.2256
     19 C         -25.4906    5.8559   30.5742 C.2     1  UNL1        0.1653
     20 C         -25.5209    5.0763   31.8019 C.1     1  UNL1        0.1517
     21 O         -25.0354    5.5041   32.7453 O.2     1  UNL1       -0.2297
@<TRIPOS>BOND
     1     3     7    1
     2     7     8    1
     3     7     9    1
     4     9    10    1
     5    10    11    2
     6    11    12    1
     7     9    13    1
     8    12    13    1
     9    13    14    1
    10    14    15    1
    11    14    16    1
    12    16    17    1
    13    17    18    1
    14    18    19    1
    15    19    20    2
    16    20    21    2
    17     1     2   ar
    18     2     5   ar
    19     5     6   ar
    20     6     4   ar
    21     4     3   ar
    22     3     1   ar
