@<TRIPOS>MOLECULE
No_4706-gen_results/8p0m/2024-11-26-14-13-15/
 19 20 0 0 0
SMALL
GASTEIGER

@<TRIPOS>ATOM
      1 C         -28.0162   -0.8135   28.8779 C.3     1  UNL1        0.1386
      2 C         -27.0636   -0.1189   28.6079 C.ar    1  UNL1       -0.0007
      3 C         -27.0010    0.6913   27.4910 C.ar    1  UNL1       -0.0024
      4 C         -25.8548    1.4825   27.0830 C.ar    1  UNL1        0.0046
      5 C         -24.6901    1.4526   27.8807 C.ar    1  UNL1        0.0593
      6 C         -24.7379    0.6010   29.0416 C.ar    1  UNL1        0.0046
      7 C         -25.8234   -0.1688   29.3887 C.ar    1  UNL1       -0.0024
      8 N         -29.2150   -0.1726   29.0132 N.pl3   1  UNL1       -0.2315
      9 C         -30.2463   -0.7736   29.6388 C.2     1  UNL1        0.0805
     10 C         -23.5190    2.2034   27.5550 C.2     1  UNL1        0.2968
     11 N         -23.4334    2.7576   26.3383 N.2     1  UNL1       -0.1025
     12 O         -22.4067    2.0541   28.1756 O.2     1  UNL1       -0.2636
     13 C         -30.4174   -0.8287   30.8192 C.2     1  UNL1        0.0174
     14 C         -29.5331    0.0229   31.6196 C.ar    1  UNL1        0.0013
     15 C         -28.8085   -0.4679   32.6313 C.ar    1  UNL1        0.0000
     16 C         -28.0263    0.3479   33.5350 C.ar    1  UNL1        0.0000
     17 C         -27.8813    1.7344   33.2219 C.ar    1  UNL1        0.0000
     18 C         -28.6285    2.2017   32.1080 C.ar    1  UNL1        0.0000
     19 C         -29.4031    1.3971   31.3489 C.ar    1  UNL1        0.0000
@<TRIPOS>BOND
     1     1     2    1
     2     1     8    1
     3     8     9    1
     4     5    10    1
     5    10    11    2
     6    10    12    1
     7     9    13    2
     8    13    14    1
     9     2     3   ar
    10     3     4   ar
    11     4     5   ar
    12     5     6   ar
    13     6     7   ar
    14     7     2   ar
    15    14    15   ar
    16    15    16   ar
    17    16    17   ar
    18    17    18   ar
    19    18    19   ar
    20    19    14   ar
