@<TRIPOS>MOLECULE
No_4707-gen_results/8p0m/2024-11-26-14-13-15/
 15 16 0 0 0
SMALL
GASTEIGER

@<TRIPOS>ATOM
      1 C         -28.0162   -0.8135   28.8779 C.ar    1  UNL1        0.0046
      2 C         -28.4690   -0.7850   29.8287 C.ar    1  UNL1        0.0554
      3 C         -26.5042   -0.7777   28.8766 C.ar    1  UNL1        0.0001
      4 C         -25.8103   -0.8531   30.1028 C.ar    1  UNL1        0.0000
      5 C         -27.9906   -0.8916   31.2257 C.ar    1  UNL1        0.0046
      6 C         -26.6042   -0.8676   31.2652 C.ar    1  UNL1        0.0001
      7 C         -30.0739   -0.8360   29.8615 C.2     1  UNL1        0.2690
      8 O         -30.5608   -0.4417   28.9417 O.2     1  UNL1       -0.2680
      9 N         -30.7042   -1.7423   30.7732 N.am    1  UNL1       -0.1754
     10 C         -32.1088   -1.8935   30.6670 C.ar    1  UNL1        0.0737
     11 C         -32.6295   -2.5861   31.2074 C.ar    1  UNL1        0.0166
     12 C         -34.0858   -2.8589   31.0794 C.ar    1  UNL1        0.0013
     13 C         -34.7505   -2.0354   30.1456 C.ar    1  UNL1        0.0001
     14 C         -34.0151   -1.1446   29.4173 C.ar    1  UNL1        0.0013
     15 C         -32.6916   -0.9989   29.6195 C.ar    1  UNL1        0.0166
@<TRIPOS>BOND
     1     2     7    1
     2     7     8    2
     3     7     9   am
     4     9    10    1
     5     1     2   ar
     6     2     5   ar
     7     5     6   ar
     8     6     4   ar
     9     4     3   ar
    10     3     1   ar
    11    10    11   ar
    12    11    12   ar
    13    12    13   ar
    14    13    14   ar
    15    14    15   ar
    16    15    10   ar
