@<TRIPOS>MOLECULE
No_4708-gen_results/8p0m/2024-11-26-14-13-15/
 23 26 0 0 0
SMALL
GASTEIGER

@<TRIPOS>ATOM
      1 C         -28.0162   -0.8135   28.8779 C.ar    1  UNL1        0.1557
      2 C         -27.0636   -0.1190   28.6079 C.ar    1  UNL1        0.0384
      3 C         -25.7647   -0.3897   29.0360 C.ar    1  UNL1        0.0029
      4 C         -25.5296   -1.5302   29.9014 C.ar    1  UNL1        0.0011
      5 C         -26.6888   -2.2893   30.1810 C.ar    1  UNL1        0.0145
      6 C         -27.8727   -1.9508   29.7373 C.ar    1  UNL1        0.0921
      7 C         -24.5491    0.4100   28.7341 C.ar    1  UNL1       -0.0009
      8 C         -24.4789    1.1871   27.6843 C.ar    1  UNL1        0.0155
      9 C         -23.2716    1.8973   27.3731 C.ar    1  UNL1        0.1346
     10 C         -22.1063    1.7032   28.0412 C.ar    1  UNL1        0.0366
     11 C         -23.3188    0.1792   29.4669 C.ar    1  UNL1       -0.0001
     12 C         -22.1165    0.8402   29.1011 C.ar    1  UNL1        0.0031
     13 CL        -29.3392   -2.7654   30.1442 Cl      1  UNL1       -0.0791
     14 O         -23.3259    2.7699   26.3034 O.3     1  UNL1       -0.4754
     15 C         -24.4997    2.6436   25.6204 C.3     1  UNL1        0.2102
     16 C         -25.1545    1.5781   26.4605 C.3     1  UNL1        0.0767
     17 O         -29.2906   -0.5343   28.4687 O.3     1  UNL1       -0.4526
     18 C         -30.0870    0.2052   29.2197 C.ar    1  UNL1        0.1453
     19 C         -30.5637    1.3149   28.5002 C.ar    1  UNL1        0.0375
     20 C         -31.2003    2.2076   29.2489 C.ar    1  UNL1        0.0031
     21 C         -31.7063    1.8113   30.4119 C.ar    1  UNL1        0.0002
     22 C         -31.2811    0.7098   31.1108 C.ar    1  UNL1        0.0031
     23 C         -30.4056   -0.0982   30.4963 C.ar    1  UNL1        0.0375
@<TRIPOS>BOND
     1     3     7    1
     2     6    13    1
     3     9    14    1
     4    14    15    1
     5     8    16    1
     6    15    16    1
     7     1    17    1
     8    17    18    1
     9     7     8   ar
    10     8     9   ar
    11     9    10   ar
    12    10    12   ar
    13    12    11   ar
    14    11     7   ar
    15     1     2   ar
    16     2     3   ar
    17     3     4   ar
    18     4     5   ar
    19     5     6   ar
    20     6     1   ar
    21    18    19   ar
    22    19    20   ar
    23    20    21   ar
    24    21    22   ar
    25    22    23   ar
    26    23    18   ar
