@<TRIPOS>MOLECULE
No_4709-gen_results/8p0m/2024-11-26-14-13-15/
 19 20 0 0 0
SMALL
GASTEIGER

@<TRIPOS>ATOM
      1 C         -28.0162   -0.8135   28.8779 C.ar    1  UNL1        0.0111
      2 C         -28.4690   -0.7850   29.8287 C.ar    1  UNL1        0.0577
      3 C         -26.5455   -0.8762   28.8500 C.ar    1  UNL1       -0.0031
      4 C         -25.8041   -1.0324   30.0571 C.ar    1  UNL1       -0.0190
      5 C         -27.9437   -0.9869   31.2075 C.ar    1  UNL1        0.0111
      6 C         -26.5825   -1.0386   31.2231 C.ar    1  UNL1       -0.0031
      7 CL        -30.2809   -0.7232   29.8834 Cl      1  UNL1       -0.0822
      8 C         -24.3837   -1.0013   29.8730 C.3     1  UNL1        0.0377
      9 C         -23.7252   -0.0531   29.1937 C.ar    1  UNL1       -0.0188
     10 C         -22.3307   -0.0814   29.0703 C.ar    1  UNL1       -0.0040
     11 C         -21.6669    0.9345   28.3142 C.ar    1  UNL1       -0.0001
     12 C         -22.3998    1.8720   27.5651 C.ar    1  UNL1        0.0066
     13 C         -23.7748    1.9019   27.7238 C.ar    1  UNL1        0.0795
     14 C         -24.4529    0.9547   28.4899 C.ar    1  UNL1        0.0026
     15 C         -24.4648    2.9656   26.9885 C.2     1  UNL1        0.3877
     16 O         -24.9056    3.7363   27.5502 O.co2   1  UNL1       -0.2406
     17 O         -24.4174    2.8438   25.6906 O.co2   1  UNL1       -0.2406
     18 C         -23.9131   -2.4692   29.7062 C.3     1  UNL1        0.0088
     19 C         -23.8481   -0.6453   31.4485 C.3     1  UNL1        0.0088
@<TRIPOS>BOND
     1     2     7    1
     2     4     8    1
     3     8     9    1
     4    13    15    1
     5    15    16   ar
     6    15    17   ar
     7     8    18    1
     8     8    19    1
     9     9    10   ar
    10    10    11   ar
    11    11    12   ar
    12    12    13   ar
    13    13    14   ar
    14    14     9   ar
    15     1     2   ar
    16     2     5   ar
    17     5     6   ar
    18     6     4   ar
    19     4     3   ar
    20     3     1   ar
