@<TRIPOS>MOLECULE
No_471-gen_results/8p0m/2024-11-26-14-13-15/
 35 36 0 0 0
SMALL
GASTEIGER

@<TRIPOS>ATOM
      1 C         -28.0162   -0.8135   28.8779 C.3     1  UNL1        0.1256
      2 C         -27.0636   -0.1189   28.6079 C.ar    1  UNL1        0.0019
      3 C         -25.7923   -0.4302   29.0761 C.ar    1  UNL1        0.0693
      4 C         -24.5456    0.3494   28.8225 C.ar    1  UNL1        0.0102
      5 C         -24.6586    1.4196   27.8878 C.ar    1  UNL1        0.0797
      6 C         -25.9471    1.6811   27.3792 C.ar    1  UNL1        0.0063
      7 C         -27.0439    0.9739   27.6871 C.ar    1  UNL1       -0.0024
      8 N         -29.1882   -0.1472   29.0918 N.am    1  UNL1       -0.2443
      9 C         -29.6010    0.1626   30.3267 C.2     1  UNL1        0.2966
     10 C         -30.2668   -0.6190   28.1881 C.ar    1  UNL1        0.0550
     11 C         -23.4591    2.1629   27.6048 C.2     1  UNL1        0.3877
     12 O         -22.3144    1.9058   28.0794 O.co2   1  UNL1       -0.2406
     13 O         -23.5910    3.2204   26.8342 O.co2   1  UNL1       -0.2406
     14 C         -31.5356   -0.7602   28.8445 C.ar    1  UNL1        0.0134
     15 C         -32.5975   -0.8853   28.1015 C.ar    1  UNL1        0.0144
     16 C         -32.5192   -0.4511   26.7967 C.ar    1  UNL1        0.0051
     17 C         -31.2511   -0.2937   26.1294 C.ar    1  UNL1        0.0808
     18 C         -30.2223   -0.1179   26.8861 C.ar    1  UNL1        0.0215
     19 C         -31.1977   -0.0187   24.6819 C.2     1  UNL1        0.3878
     20 C         -28.4954    0.3232   31.2162 C.1     1  UNL1       -0.0022
     21 O         -30.6789    0.5408   30.6284 O.2     1  UNL1       -0.2601
     22 C         -28.0788    0.8879   32.0083 C.1     1  UNL1       -0.0550
     23 C         -27.2849    1.4924   32.6093 C.2     1  UNL1        0.0492
     24 C         -26.3212    2.3635   32.9130 C.2     1  UNL1        0.0342
     25 C         -25.5081    3.3112   33.4122 C.3     1  UNL1        0.2623
     26 CL        -25.7844    4.1598   34.7452 Cl      1  UNL1       -0.0719
     27 F         -24.4924    3.5771   32.6213 F       1  UNL1       -0.2143
     28 C         -25.5102   -1.5763   30.0224 C.3     1  UNL1        0.4183
     29 F         -26.0899   -1.7174   30.9516 F       1  UNL1       -0.1659
     30 F         -25.7714   -2.7098   29.1148 F       1  UNL1       -0.1659
     31 F         -24.1597   -1.8495   30.2422 F       1  UNL1       -0.1659
     32 O         -31.3098   -0.9779   23.9473 O.co2   1  UNL1       -0.2406
     33 O         -31.3654    1.1624   24.1911 O.co2   1  UNL1       -0.2406
     34 C         -33.9335   -1.1235   28.6514 C.3     1  UNL1        0.2198
     35 F         -34.7804   -1.1698   27.9489 F       1  UNL1       -0.2291
@<TRIPOS>BOND
     1     1     2    1
     2     1     8    1
     3     8     9   am
     4     8    10    1
     5     5    11    1
     6    11    12   ar
     7    11    13   ar
     8    17    19    1
     9     9    20    1
    10     9    21    2
    11    20    22    3
    12    22    23    1
    13    23    24    2
    14    24    25    1
    15    25    26    1
    16    25    27    1
    17     3    28    1
    18    28    29    1
    19    28    30    1
    20    28    31    1
    21    19    32   ar
    22    19    33   ar
    23    15    34    1
    24    34    35    1
    25     2     3   ar
    26     3     4   ar
    27     4     5   ar
    28     5     6   ar
    29     6     7   ar
    30     7     2   ar
    31    10    14   ar
    32    14    15   ar
    33    15    16   ar
    34    16    17   ar
    35    17    18   ar
    36    18    10   ar
