@<TRIPOS>MOLECULE
No_4710-gen_results/8p0m/2024-11-26-14-13-15/
 14 14 0 0 0
SMALL
GASTEIGER

@<TRIPOS>ATOM
      1 C         -28.0162   -0.8135   28.8779 C.ar    1  UNL1        0.0105
      2 C         -28.4690   -0.7850   29.8287 C.ar    1  UNL1        0.0806
      3 C         -28.1960    0.3478   28.0550 C.ar    1  UNL1        0.0725
      4 C         -29.0191    1.3501   28.3782 C.ar    1  UNL1        0.0153
      5 C         -29.4107    0.1803   30.3782 C.ar    1  UNL1        0.0180
      6 C         -29.6059    1.2495   29.6193 C.ar    1  UNL1        0.0578
      7 C         -27.4597    0.3802   26.7091 C.3     1  UNL1        0.4186
      8 F         -28.1604    0.0466   25.8046 F       1  UNL1       -0.1659
      9 F         -26.9244    1.6642   26.4653 F       1  UNL1       -0.1659
     10 F         -26.2459   -0.3364   26.7691 F       1  UNL1       -0.1659
     11 CL        -30.6796    2.4908   30.0949 Cl      1  UNL1       -0.0822
     12 C         -28.2794   -2.0662   30.8625 C.2     1  UNL1        0.3878
     13 O         -28.0215   -1.9795   31.9073 O.co2   1  UNL1       -0.2406
     14 O         -28.1065   -3.2597   30.2027 O.co2   1  UNL1       -0.2406
@<TRIPOS>BOND
     1     3     7    1
     2     7     8    1
     3     7     9    1
     4     7    10    1
     5     6    11    1
     6     2    12    1
     7    12    13   ar
     8    12    14   ar
     9     1     2   ar
    10     2     5   ar
    11     5     6   ar
    12     6     4   ar
    13     4     3   ar
    14     3     1   ar
