@<TRIPOS>MOLECULE
No_4711-gen_results/8p0m/2024-11-26-14-13-15/
 14 14 0 0 0
SMALL
GASTEIGER

@<TRIPOS>ATOM
      1 C         -28.0162   -0.8135   28.8779 C.3     1  UNL1        0.1154
      2 C         -27.0636   -0.1189   28.6079 C.ar    1  UNL1       -0.0048
      3 C         -25.7923   -0.4302   29.0761 C.ar    1  UNL1       -0.0028
      4 C         -24.5456    0.3494   28.8225 C.ar    1  UNL1        0.0013
      5 C         -24.6586    1.4196   27.8878 C.ar    1  UNL1        0.0209
      6 C         -25.9471    1.6811   27.3792 C.ar    1  UNL1        0.0013
      7 C         -27.0439    0.9739   27.6871 C.ar    1  UNL1       -0.0028
      8 N         -29.1797   -0.1202   29.1288 N.3     1  UNL1       -0.2089
      9 C         -29.7637    0.5346   28.5275 C.3     1  UNL1        0.1112
     10 C         -30.4073    0.4279   27.7678 C.2     1  UNL1       -0.0267
     11 C         -31.2310   -0.7730   27.7561 C.2     1  UNL1       -0.0077
     12 C         -30.6433    1.1561   26.4492 C.3     1  UNL1        0.0278
     13 C         -23.4564    2.1616   27.6089 C.2     1  UNL1        0.1221
     14 N         -22.2396    1.7522   28.0933 N.2     1  UNL1       -0.1464
@<TRIPOS>BOND
     1     1     2    1
     2     1     8    1
     3     8     9    1
     4     9    10    1
     5    10    11    2
     6    10    12    1
     7     5    13    1
     8    13    14    2
     9     2     3   ar
    10     3     4   ar
    11     4     5   ar
    12     5     6   ar
    13     6     7   ar
    14     7     2   ar
