@<TRIPOS>MOLECULE
No_4712-gen_results/8p0m/2024-11-26-14-13-15/
 19 20 0 0 0
SMALL
GASTEIGER

@<TRIPOS>ATOM
      1 C         -28.0162   -0.8135   28.8779 C.2     1  UNL1        0.2690
      2 C         -27.0636   -0.1189   28.6079 C.ar    1  UNL1        0.0554
      3 C         -25.7923   -0.4302   29.0761 C.ar    1  UNL1        0.0048
      4 C         -24.5456    0.3494   28.8225 C.ar    1  UNL1        0.0067
      5 C         -24.6586    1.4196   27.8878 C.ar    1  UNL1        0.0798
      6 C         -25.9471    1.6811   27.3792 C.ar    1  UNL1        0.0067
      7 C         -27.0439    0.9739   27.6871 C.ar    1  UNL1        0.0048
      8 N         -29.1882   -0.1472   29.0918 N.am    1  UNL1       -0.1754
      9 C         -30.2017   -0.7833   29.7303 C.ar    1  UNL1        0.0738
     10 C         -23.4507    2.1524   27.6005 C.2     1  UNL1        0.3878
     11 O         -23.4836    3.1432   26.9049 O.co2   1  UNL1       -0.2406
     12 O         -22.2634    1.6804   27.9481 O.co2   1  UNL1       -0.2406
     13 C         -30.3207   -0.9004   30.9268 C.ar    1  UNL1        0.0189
     14 C         -31.2463   -1.6566   31.6152 C.ar    1  UNL1        0.0310
     15 C         -31.3075   -1.3153   28.9273 C.ar    1  UNL1        0.0189
     16 C         -32.3058   -2.0533   29.4769 C.ar    1  UNL1        0.0310
     17 C         -32.2973   -2.1776   30.8608 C.ar    1  UNL1        0.1402
     18 O         -27.8624   -1.8258   29.6279 O.2     1  UNL1       -0.2680
     19 F         -33.3215   -2.8409   31.4315 F       1  UNL1       -0.2042
@<TRIPOS>BOND
     1     1     2    1
     2     1     8   am
     3     8     9    1
     4     5    10    1
     5    10    11   ar
     6    10    12   ar
     7     1    18    2
     8    17    19    1
     9     2     3   ar
    10     3     4   ar
    11     4     5   ar
    12     5     6   ar
    13     6     7   ar
    14     7     2   ar
    15     9    13   ar
    16    13    14   ar
    17    14    17   ar
    18    17    16   ar
    19    16    15   ar
    20    15     9   ar
