@<TRIPOS>MOLECULE
No_4713-gen_results/8p0m/2024-11-26-14-13-15/
 29 31 0 0 0
SMALL
GASTEIGER

@<TRIPOS>ATOM
      1 C         -28.0162   -0.8135   28.8779 C.ar    1  UNL1        0.0025
      2 C         -28.4690   -0.7850   29.8287 C.ar    1  UNL1        0.0753
      3 C         -26.5042   -0.7777   28.8766 C.ar    1  UNL1       -0.0175
      4 C         -25.6540   -0.6597   27.7191 C.3     1  UNL1        0.0558
      5 C         -27.9180   -0.9374   31.1824 C.ar    1  UNL1        0.0064
      6 C         -26.5423   -0.9399   31.2606 C.ar    1  UNL1       -0.0001
      7 C         -25.7832   -0.8935   30.1201 C.ar    1  UNL1       -0.0039
      8 C         -25.2204    0.6866   27.3939 C.ar    1  UNL1        0.0202
      9 C         -23.9014    0.8981   27.7598 C.ar    1  UNL1        0.1373
     10 C         -23.3037    2.1844   27.3240 C.ar    1  UNL1        0.0294
     11 C         -23.9961    3.0461   26.5443 C.ar    1  UNL1        0.0031
     12 C         -25.8647    1.5294   26.5210 C.ar    1  UNL1        0.0562
     13 C         -25.2723    2.6762   26.0966 C.ar    1  UNL1        0.0112
     14 C         -30.0569   -0.7935   29.8592 C.2     1  UNL1        0.3411
     15 O         -30.5085   -0.2162   29.0221 O.2     1  UNL1       -0.2449
     16 O         -30.7003   -1.0615   30.9553 O.3     1  UNL1       -0.4485
     17 F         -23.1368    0.2028   28.5513 F       1  UNL1       -0.2045
     18 CL        -27.3510    1.1258   25.8497 Cl      1  UNL1       -0.0825
     19 C         -31.9738   -1.5710   30.8753 C.3     1  UNL1        0.1778
     20 C         -32.9587   -0.9516   30.4217 C.3     1  UNL1        0.0703
     21 C         -33.0752    0.3093   30.7199 C.ar    1  UNL1       -0.0186
     22 C         -34.2105    1.1592   30.1702 C.ar    1  UNL1       -0.0041
     23 C         -34.3805    2.4867   30.6245 C.ar    1  UNL1       -0.0003
     24 C         -33.4217    3.0472   31.4986 C.ar    1  UNL1       -0.0000
     25 C         -32.3447    2.2936   31.9591 C.ar    1  UNL1       -0.0003
     26 C         -32.1968    0.9747   31.5750 C.ar    1  UNL1       -0.0041
     27 C         -31.9967   -2.9334   31.5022 C.3     1  UNL1        0.0700
     28 C         -31.5936   -3.0746   32.8119 C.2     1  UNL1       -0.0224
     29 C         -31.4286   -4.3689   33.2887 C.2     1  UNL1       -0.0048
@<TRIPOS>BOND
     1     3     4    1
     2     4     8    1
     3     2    14    1
     4    14    15    2
     5    14    16    1
     6     9    17    1
     7    12    18    1
     8    16    19    1
     9    19    20    1
    10    19    27    1
    11    27    28    1
    12    28    29    2
    13    20    21    1
    14    21    22   ar
    15    22    23   ar
    16    23    24   ar
    17    24    25   ar
    18    25    26   ar
    19    26    21   ar
    20     1     2   ar
    21     2     5   ar
    22     5     6   ar
    23     6     7   ar
    24     7     3   ar
    25     3     1   ar
    26     8     9   ar
    27     9    10   ar
    28    10    11   ar
    29    11    13   ar
    30    13    12   ar
    31    12     8   ar
