@<TRIPOS>MOLECULE
No_4714-gen_results/8p0m/2024-11-26-14-13-15/
 7 6 0 0 0
SMALL
GASTEIGER

@<TRIPOS>ATOM
      1 C         -28.0162   -0.8135   28.8779 C.2     1  UNL1       -0.0039
      2 C         -27.0636   -0.1189   28.6079 C.2     1  UNL1       -0.0122
      3 C         -25.7647   -0.3897   29.0360 C.3     1  UNL1        0.1023
      4 C         -24.5516    0.4058   28.7646 C.1     1  UNL1       -0.0816
      5 C         -23.2300    0.1178   29.2575 C.1     1  UNL1       -0.0634
      6 C         -22.1145    0.8857   28.9488 C.2     1  UNL1        0.0493
      7 C         -22.2130    1.8507   27.8903 C.2     1  UNL1        0.0095
@<TRIPOS>BOND
     1     1     2    2
     2     2     3    1
     3     3     4    1
     4     4     5    3
     5     5     6    1
     6     6     7    2
