@<TRIPOS>MOLECULE
No_4716-gen_results/8p0m/2024-11-26-14-13-15/
 25 28 0 0 0
SMALL
GASTEIGER

@<TRIPOS>ATOM
      1 C         -28.0162   -0.8135   28.8779 C.3     1  UNL1        0.0238
      2 C         -27.0636   -0.1190   28.6079 C.3     1  UNL1        0.0278
      3 C         -26.9287    1.1713   29.0083 C.ar    1  UNL1       -0.0194
      4 C         -25.7702    2.0341   28.6884 C.ar    1  UNL1       -0.0040
      5 C         -25.6189    3.3482   29.0918 C.ar    1  UNL1        0.0063
      6 C         -29.0712   -0.3338   29.7689 C.3     1  UNL1        0.1651
      7 C         -29.0128    0.9333   30.1718 C.2     1  UNL1        0.1831
      8 C         -27.8993    1.7759   29.8587 C.ar    1  UNL1        0.0315
      9 C         -24.7637    1.5278   27.7799 C.ar    1  UNL1       -0.0042
     10 C         -23.8329    2.0395   27.6237 C.ar    1  UNL1        0.0005
     11 C         -26.5909    3.9739   29.9702 C.ar    1  UNL1        0.0798
     12 C         -27.7786    3.1050   30.3548 C.ar    1  UNL1        0.0091
     13 C         -22.6713    1.8356   27.7123 C.ar    1  UNL1        0.0114
     14 C         -22.2169    0.6390   28.4046 C.ar    1  UNL1        0.0574
     15 C         -23.3364   -0.3169   28.4884 C.ar    1  UNL1        0.0071
     16 C         -24.6724    0.0992   27.9847 C.ar    1  UNL1       -0.0210
     17 C         -25.7767   -0.6847   28.0586 C.3     1  UNL1        0.0307
     18 C         -26.4918    5.3420   30.4390 C.2     1  UNL1        0.3878
     19 O         -27.3907    6.0043   30.4433 O.co2   1  UNL1       -0.2406
     20 O         -25.2467    5.6742   30.7225 O.co2   1  UNL1       -0.2406
     21 C         -30.2161   -1.1917   30.0401 C.2     1  UNL1        0.3716
     22 O         -31.0893   -1.2488   29.2656 O.co2   1  UNL1       -0.2452
     23 O         -30.1960   -1.8923   31.1451 O.co2   1  UNL1       -0.2452
     24 CL        -20.6610    0.0178   28.4495 Cl      1  UNL1       -0.0823
     25 O         -29.9998    1.4714   30.9055 O.2     1  UNL1       -0.2908
@<TRIPOS>BOND
     1     1     2    1
     2     6     7    1
     3     7     8    1
     4     4     9    1
     5     2    17    1
     6    16    17    1
     7    11    18    1
     8    18    19   ar
     9    18    20   ar
    10     6    21    1
    11    21    22   ar
    12    21    23   ar
    13    14    24    1
    14     7    25    2
    15     6     1    1
    16     2     3    1
    17     3     4   ar
    18     4     5   ar
    19     5    11   ar
    20    11    12   ar
    21    12     8   ar
    22     8     3   ar
    23     9    10   ar
    24    10    13   ar
    25    13    14   ar
    26    14    15   ar
    27    15    16   ar
    28    16     9   ar
