@<TRIPOS>MOLECULE
No_4717-gen_results/8p0m/2024-11-26-14-13-15/
 13 14 0 0 0
SMALL
GASTEIGER

@<TRIPOS>ATOM
      1 C         -28.0162   -0.8135   28.8779 C.ar    1  UNL1        0.0031
      2 C         -28.4690   -0.7850   29.8287 C.ar    1  UNL1        0.0002
      3 C         -27.0871    0.2903   28.6377 C.ar    1  UNL1        0.0375
      4 C         -26.7676    1.0274   29.4716 C.ar    1  UNL1        0.1453
      5 C         -28.2297   -0.0552   30.8514 C.ar    1  UNL1        0.0031
      6 C         -27.3275    0.9827   30.7496 C.ar    1  UNL1        0.0375
      7 O         -25.8315    2.0663   29.2532 O.3     1  UNL1       -0.4535
      8 C         -25.0315    2.1232   28.2331 C.ar    1  UNL1        0.1453
      9 C         -25.3681    2.4097   27.0504 C.ar    1  UNL1        0.0375
     10 C         -23.6331    1.6537   28.4514 C.ar    1  UNL1        0.0375
     11 C         -22.6636    1.6631   27.4241 C.ar    1  UNL1        0.0031
     12 C         -24.4387    2.4156   25.9353 C.ar    1  UNL1        0.0031
     13 C         -23.1041    2.0659   26.1492 C.ar    1  UNL1        0.0002
@<TRIPOS>BOND
     1     4     7    1
     2     7     8    1
     3     8     9   ar
     4     9    12   ar
     5    12    13   ar
     6    13    11   ar
     7    11    10   ar
     8    10     8   ar
     9     1     2   ar
    10     2     5   ar
    11     5     6   ar
    12     6     4   ar
    13     4     3   ar
    14     3     1   ar
