@<TRIPOS>MOLECULE
No_4719-gen_results/8p0m/2024-11-26-14-13-15/
 20 21 0 0 0
SMALL
GASTEIGER

@<TRIPOS>ATOM
      1 C         -28.0162   -0.8135   28.8779 C.ar    1  UNL1        0.0046
      2 C         -28.4690   -0.7850   29.8287 C.ar    1  UNL1        0.0554
      3 C         -26.5042   -0.7777   28.8766 C.ar    1  UNL1        0.0001
      4 C         -25.8103   -0.8531   30.1028 C.ar    1  UNL1        0.0000
      5 C         -27.9906   -0.8916   31.2257 C.ar    1  UNL1        0.0046
      6 C         -26.6042   -0.8676   31.2652 C.ar    1  UNL1        0.0001
      7 C         -30.0739   -0.8360   29.8615 C.2     1  UNL1        0.2690
      8 O         -30.5608   -0.4418   28.9417 O.2     1  UNL1       -0.2680
      9 N         -30.7486   -1.4028   30.9474 N.am    1  UNL1       -0.1741
     10 C         -32.1749   -1.4682   30.8889 C.2     1  UNL1        0.0889
     11 C         -32.9239   -0.7817   30.4955 C.2     1  UNL1        0.0180
     12 C         -32.5011    0.5710   30.0947 C.ar    1  UNL1        0.0050
     13 C         -33.4017    1.6795   29.9954 C.ar    1  UNL1        0.0002
     14 C         -32.9222    2.9410   29.5595 C.ar    1  UNL1        0.0005
     15 C         -31.5524    3.0542   29.1787 C.ar    1  UNL1        0.0068
     16 C         -30.7243    1.9712   29.2754 C.ar    1  UNL1        0.0377
     17 C         -31.1932    0.8141   29.7428 C.ar    1  UNL1        0.0485
     18 C         -30.5440    1.1173   31.2282 C.2     1  UNL1        0.2346
     19 BR        -30.8532    1.6400   28.9615 Br      1  UNL1       -0.0489
     20 O         -30.6684    0.1574   31.1615 O.2     1  UNL1       -0.2831
@<TRIPOS>BOND
     1     2     7    1
     2     7     8    2
     3     7     9   am
     4     9    10    1
     5    10    11    2
     6    11    12    1
     7    17    18    1
     8    16    19    1
     9    18    20    2
    10    12    13   ar
    11    13    14   ar
    12    14    15   ar
    13    15    16   ar
    14    16    17   ar
    15    17    12   ar
    16     1     2   ar
    17     2     5   ar
    18     5     6   ar
    19     6     4   ar
    20     4     3   ar
    21     3     1   ar
