@<TRIPOS>MOLECULE
No_472-gen_results/8p0m/2024-11-26-14-13-15/
 13 14 0 0 0
SMALL
GASTEIGER

@<TRIPOS>ATOM
      1 C         -28.0162   -0.8135   28.8779 C.ar    1  UNL1        0.0114
      2 C         -27.0636   -0.1189   28.6079 C.ar    1  UNL1        0.0577
      3 C         -26.9287    1.1713   29.0083 C.ar    1  UNL1        0.0114
      4 C         -27.9560    1.7411   29.7840 C.ar    1  UNL1        0.0009
      5 C         -29.0569   -0.3271   29.7466 C.ar    1  UNL1        0.0009
      6 C         -28.9828    0.9722   30.1516 C.ar    1  UNL1        0.0001
      7 CL        -25.7249   -0.7275   27.6731 Cl      1  UNL1       -0.0822
      8 C         -30.0821    1.5088   31.0097 C.ar    1  UNL1        0.0000
      9 C         -31.1466    1.5388   30.7542 C.ar    1  UNL1        0.0000
     10 C         -32.2148    2.0862   31.5902 C.ar    1  UNL1        0.0000
     11 C         -31.8336    2.6607   32.8231 C.ar    1  UNL1        0.0000
     12 C         -29.4874    2.0804   32.3011 C.ar    1  UNL1        0.0000
     13 C         -30.4408    2.6417   33.1687 C.ar    1  UNL1        0.0000
@<TRIPOS>BOND
     1     2     7    1
     2     6     8    1
     3     1     2   ar
     4     2     3   ar
     5     3     4   ar
     6     4     6   ar
     7     6     5   ar
     8     5     1   ar
     9     8     9   ar
    10     9    10   ar
    11    10    11   ar
    12    11    13   ar
    13    13    12   ar
    14    12     8   ar
