@<TRIPOS>MOLECULE
No_4721-gen_results/8p0m/2024-11-26-14-13-15/
 10 10 0 0 0
SMALL
GASTEIGER

@<TRIPOS>ATOM
      1 C         -28.0162   -0.8135   28.8779 C.ar    1  UNL1        0.0362
      2 C         -28.4690   -0.7850   29.8287 C.ar    1  UNL1        0.0820
      3 C         -27.1356    0.2359   28.5352 C.ar    1  UNL1        0.1404
      4 C         -26.8050    1.0509   29.2763 C.ar    1  UNL1        0.0296
      5 C         -28.2372    0.1503   30.9300 C.ar    1  UNL1        0.0067
      6 C         -27.3522    1.1239   30.6071 C.ar    1  UNL1        0.0025
      7 F         -26.5569    0.1568   27.2643 F       1  UNL1       -0.2042
      8 C         -29.4647   -1.9339   30.3569 C.2     1  UNL1        0.3878
      9 O         -29.2647   -3.1339   30.3083 O.co2   1  UNL1       -0.2406
     10 O         -30.4105   -1.6013   31.2478 O.co2   1  UNL1       -0.2406
@<TRIPOS>BOND
     1     3     7    1
     2     2     8    1
     3     8     9   ar
     4     8    10   ar
     5     1     2   ar
     6     2     5   ar
     7     5     6   ar
     8     6     4   ar
     9     4     3   ar
    10     3     1   ar
