@<TRIPOS>MOLECULE
No_4722-gen_results/8p0m/2024-11-26-14-13-15/
 12 13 0 0 0
SMALL
GASTEIGER

@<TRIPOS>ATOM
      1 C         -28.0162   -0.8135   28.8779 C.ar    1  UNL1        0.0000
      2 C         -28.4690   -0.7850   29.8287 C.ar    1  UNL1        0.0000
      3 C         -27.1356    0.2359   28.5352 C.ar    1  UNL1        0.0000
      4 C         -26.8745    1.2825   29.3982 C.ar    1  UNL1        0.0000
      5 C         -28.3613    0.1987   30.9244 C.ar    1  UNL1        0.0000
      6 C         -27.5277    1.2234   30.6356 C.ar    1  UNL1        0.0000
      7 C         -26.3987    0.2949   27.2279 C.ar    1  UNL1        0.0000
      8 C         -25.0392    0.2356   27.3538 C.ar    1  UNL1        0.0000
      9 C         -27.0287    0.3958   26.0087 C.ar    1  UNL1        0.0000
     10 C         -26.2725    0.3047   24.8644 C.ar    1  UNL1        0.0000
     11 C         -24.2558    0.2988   26.1659 C.ar    1  UNL1        0.0000
     12 C         -24.9084    0.3278   24.9299 C.ar    1  UNL1        0.0000
@<TRIPOS>BOND
     1     3     7    1
     2     7     8   ar
     3     8    11   ar
     4    11    12   ar
     5    12    10   ar
     6    10     9   ar
     7     9     7   ar
     8     1     2   ar
     9     2     5   ar
    10     5     6   ar
    11     6     4   ar
    12     4     3   ar
    13     3     1   ar
