@<TRIPOS>MOLECULE
No_4723-gen_results/8p0m/2024-11-26-14-13-15/
 11 11 0 0 0
SMALL
GASTEIGER

@<TRIPOS>ATOM
      1 C         -28.0162   -0.8135   28.8779 C.ar    1  UNL1        0.0008
      2 C         -27.0636   -0.1189   28.6079 C.ar    1  UNL1        0.0114
      3 C         -26.9716    0.7139   27.5060 C.ar    1  UNL1        0.0576
      4 C         -28.1053    0.7744   26.6421 C.ar    1  UNL1        0.0152
      5 C         -29.2008    0.1044   27.0527 C.ar    1  UNL1        0.0723
      6 C         -29.2096   -0.6029   28.1853 C.ar    1  UNL1        0.0039
      7 C         -30.3702    0.2264   26.1604 C.3     1  UNL1        0.4186
      8 F         -30.8993    1.2632   26.1932 F       1  UNL1       -0.1659
      9 F         -31.2899   -0.7321   26.5964 F       1  UNL1       -0.1659
     10 F         -30.0568   -0.1619   24.8992 F       1  UNL1       -0.1659
     11 CL        -25.4977    1.5285   27.0530 Cl      1  UNL1       -0.0823
@<TRIPOS>BOND
     1     5     7    1
     2     7     8    1
     3     7     9    1
     4     7    10    1
     5     3    11    1
     6     1     2   ar
     7     2     3   ar
     8     3     4   ar
     9     4     5   ar
    10     5     6   ar
    11     6     1   ar
