@<TRIPOS>MOLECULE
No_4725-gen_results/8p0m/2024-11-26-14-13-15/
 15 15 0 0 0
SMALL
GASTEIGER

@<TRIPOS>ATOM
      1 C         -28.0162   -0.8135   28.8779 C.3     1  UNL1        0.2489
      2 C         -27.0636   -0.1189   28.6079 C.3     1  UNL1        0.3239
      3 F         -25.8837   -0.5253   28.7834 F       1  UNL1       -0.1986
      4 C         -27.0741    0.4865   27.1626 C.3     1  UNL1        0.2489
      5 C         -29.3190   -0.0592   29.0344 C.3     1  UNL1        0.2299
      6 C         -29.6865    0.5327   27.7849 C.3     1  UNL1        0.2317
      7 C         -28.5374    1.2642   27.1224 C.3     1  UNL1        0.2299
      8 F         -26.8413    1.0472   29.4272 F       1  UNL1       -0.1986
      9 O         -30.7256    1.4192   27.8389 O.2     1  UNL1       -0.4707
     10 O         -30.4046   -0.9308   29.4712 O.3     1  UNL1       -0.2162
     11 O         -28.7390    1.6646   25.7207 O.3     1  UNL1       -0.2162
     12 O         -26.0103    1.2458   26.7949 O.3     1  UNL1       -0.2143
     13 O         -27.7250   -1.4658   30.1902 O.3     1  UNL1       -0.2143
     14 C         -31.8859    1.3020   27.3219 C.2     1  UNL1        0.1724
     15 C         -32.7145    1.9136   27.4680 C.2     1  UNL1        0.0433
@<TRIPOS>BOND
     1     1     2    1
     2     2     3    1
     3     2     4    1
     4     1     5    1
     5     5     6    1
     6     4     7    1
     7     6     7    1
     8     2     8    1
     9     6     9    1
    10     5    10    1
    11     7    11    1
    12     4    12    1
    13     1    13    1
    14     9    14    1
    15    14    15    2
