@<TRIPOS>MOLECULE
No_4726-gen_results/8p0m/2024-11-26-14-13-15/
 17 18 0 0 0
SMALL
GASTEIGER

@<TRIPOS>ATOM
      1 C         -28.0162   -0.8135   28.8779 C.ar    1  UNL1       -0.0041
      2 C         -28.4690   -0.7850   29.8287 C.ar    1  UNL1       -0.0046
      3 C         -27.0871    0.2903   28.6377 C.ar    1  UNL1       -0.0130
      4 C         -26.8317    1.2487   29.5869 C.ar    1  UNL1       -0.0041
      5 C         -28.3914    0.0801   31.0065 C.ar    1  UNL1       -0.0219
      6 C         -29.0884   -0.0323   32.2295 C.3     1  UNL1        0.0310
      7 C         -27.4751    1.1274   30.7658 C.ar    1  UNL1       -0.0046
      8 C         -26.3167    0.3795   27.3095 C.3     1  UNL1        0.1114
      9 C         -24.9563    0.2723   27.4846 C.ar    1  UNL1       -0.0130
     10 C         -24.1338    1.2276   26.7477 C.ar    1  UNL1       -0.0038
     11 C         -23.4513    2.1766   27.2806 C.ar    1  UNL1       -0.0003
     12 C         -22.7170    1.8350   28.4900 C.ar    1  UNL1       -0.0000
     13 C         -23.1493    0.6546   29.1401 C.ar    1  UNL1       -0.0003
     14 C         -24.3744   -0.0865   28.7377 C.ar    1  UNL1       -0.0038
     15 C         -26.9277    0.2776   26.0988 C.3     1  UNL1        0.3264
     16 F         -27.0055    1.2366   25.5521 F       1  UNL1       -0.1977
     17 F         -28.1424   -0.3303   26.1572 F       1  UNL1       -0.1977
@<TRIPOS>BOND
     1     5     6    1
     2     3     8    1
     3     8     9    1
     4     8    15    1
     5    15    16    1
     6    15    17    1
     7     9    10   ar
     8    10    11   ar
     9    11    12   ar
    10    12    13   ar
    11    13    14   ar
    12    14     9   ar
    13     1     2   ar
    14     2     5   ar
    15     5     7   ar
    16     7     4   ar
    17     4     3   ar
    18     3     1   ar
