@<TRIPOS>MOLECULE
No_4727-gen_results/8p0m/2024-11-26-14-13-15/
 16 16 0 0 0
SMALL
GASTEIGER

@<TRIPOS>ATOM
      1 C         -28.0162   -0.8135   28.8779 C.ar    1  UNL1       -0.0043
      2 C         -27.0636   -0.1190   28.6079 C.ar    1  UNL1       -0.0225
      3 C         -26.9287    1.1713   29.0083 C.ar    1  UNL1       -0.0043
      4 C         -27.9560    1.7411   29.7840 C.ar    1  UNL1       -0.0003
      5 C         -29.0569   -0.3271   29.7466 C.ar    1  UNL1       -0.0003
      6 C         -28.9828    0.9722   30.1516 C.ar    1  UNL1       -0.0000
      7 C         -25.8907   -0.6263   27.7857 C.3     1  UNL1        0.0224
      8 C         -25.4633    0.1123   26.6815 C.3     1  UNL1        0.0047
      9 C         -25.0310   -1.6701   28.2406 C.3     1  UNL1        0.0047
     10 C         -24.3963   -1.7192   29.4773 C.3     1  UNL1        0.0047
     11 C         -24.0579   -0.5328   30.1981 C.3     1  UNL1        0.0217
     12 C         -22.9057    0.1493   29.8624 C.3     1  UNL1        0.0043
     13 C         -24.9529   -0.1730   31.2808 C.2     1  UNL1       -0.0310
     14 C         -24.7973    1.0695   31.9061 C.2     1  UNL1       -0.0304
     15 C         -22.0081   -0.1483   28.8586 C.3     1  UNL1        0.0003
     16 C         -25.7722    1.4202   32.9224 C.3     1  UNL1        0.0303
@<TRIPOS>BOND
     1     2     7    1
     2     7     8    1
     3     7     9    1
     4     9    10    1
     5    10    11    1
     6    11    12    1
     7    11    13    1
     8    13    14    2
     9    12    15    1
    10    14    16    1
    11     1     2   ar
    12     2     3   ar
    13     3     4   ar
    14     4     6   ar
    15     6     5   ar
    16     5     1   ar
