@<TRIPOS>MOLECULE
No_4729-gen_results/8p0m/2024-11-26-14-13-15/
 20 21 0 0 0
SMALL
GASTEIGER

@<TRIPOS>ATOM
      1 C         -28.0162   -0.8135   28.8779 C.ar    1  UNL1        0.0435
      2 C         -28.4690   -0.7850   29.8287 C.ar    1  UNL1        0.0828
      3 C         -26.5042   -0.7777   28.8766 C.ar    1  UNL1        0.1396
      4 C         -25.8103   -0.8531   30.1028 C.ar    1  UNL1        0.0369
      5 C         -27.9906   -0.8916   31.2257 C.ar    1  UNL1        0.0068
      6 C         -26.6042   -0.8676   31.2652 C.ar    1  UNL1        0.0033
      7 C         -30.0739   -0.8360   29.8615 C.2     1  UNL1        0.3879
      8 O         -30.5608   -0.4417   28.9417 O.co2   1  UNL1       -0.2406
      9 O         -30.6949   -1.6713   30.7585 O.co2   1  UNL1       -0.2406
     10 O         -25.7223   -0.7351   27.7650 O.3     1  UNL1       -0.4687
     11 C         -25.6645    0.4768   27.1227 C.3     1  UNL1        0.2286
     12 C         -24.4718    1.0520   27.2626 C.ar    1  UNL1        0.0230
     13 C         -23.4809    0.7074   28.1727 C.ar    1  UNL1       -0.0004
     14 C         -22.1824    1.3644   28.2166 C.ar    1  UNL1       -0.0002
     15 C         -21.9703    2.3054   27.1565 C.ar    1  UNL1       -0.0000
     16 C         -23.9527    2.0374   26.2594 C.ar    1  UNL1       -0.0004
     17 C         -22.7568    2.5385   26.2143 C.ar    1  UNL1       -0.0002
     18 C         -26.7102    0.9034   26.3254 C.2     1  UNL1        0.1145
     19 N         -27.0567    0.4737   25.1556 N.2     1  UNL1       -0.2674
     20 C         -28.1364    0.8099   24.4863 C.3     1  UNL1        0.1515
@<TRIPOS>BOND
     1     2     7    1
     2     7     8   ar
     3     7     9   ar
     4     3    10    1
     5    10    11    1
     6    11    12    1
     7    11    18    1
     8    18    19    2
     9    19    20    1
    10    12    13   ar
    11    13    14   ar
    12    14    15   ar
    13    15    17   ar
    14    17    16   ar
    15    16    12   ar
    16     1     2   ar
    17     2     5   ar
    18     5     6   ar
    19     6     4   ar
    20     4     3   ar
    21     3     1   ar
