@<TRIPOS>MOLECULE
No_473-gen_results/8p0m/2024-11-26-14-13-15/
 12 13 0 0 0
SMALL
GASTEIGER

@<TRIPOS>ATOM
      1 C         -28.0162   -0.8135   28.8779 C.ar    1  UNL1        0.0000
      2 C         -28.4690   -0.7850   29.8287 C.ar    1  UNL1        0.0000
      3 C         -27.1356    0.2359   28.5352 C.ar    1  UNL1        0.0000
      4 C         -26.8050    1.0509   29.2763 C.ar    1  UNL1        0.0000
      5 C         -27.3158    1.1492   30.6054 C.ar    1  UNL1        0.0000
      6 C         -28.1917    0.1430   30.9488 C.ar    1  UNL1        0.0000
      7 C         -26.4831    0.2096   27.1281 C.ar    1  UNL1        0.0000
      8 C         -27.0196    0.6489   26.1370 C.ar    1  UNL1        0.0000
      9 C         -26.4103    0.4893   24.8421 C.ar    1  UNL1        0.0000
     10 C         -25.0825   -0.0283   24.8361 C.ar    1  UNL1        0.0000
     11 C         -25.1087   -0.3129   27.0516 C.ar    1  UNL1        0.0000
     12 C         -24.4544   -0.3514   25.9213 C.ar    1  UNL1        0.0000
@<TRIPOS>BOND
     1     3     7    1
     2     7     8   ar
     3     8     9   ar
     4     9    10   ar
     5    10    12   ar
     6    12    11   ar
     7    11     7   ar
     8     1     2   ar
     9     2     6   ar
    10     6     5   ar
    11     5     4   ar
    12     4     3   ar
    13     3     1   ar
