@<TRIPOS>MOLECULE
No_4730-gen_results/8p0m/2024-11-26-14-13-15/
 17 18 0 0 0
SMALL
GASTEIGER

@<TRIPOS>ATOM
      1 C         -28.0162   -0.8135   28.8779 C.ar    1  UNL1        0.0042
      2 C         -28.4690   -0.7850   29.8287 C.ar    1  UNL1        0.0001
      3 C         -27.1356    0.2359   28.5352 C.ar    1  UNL1        0.0497
      4 C         -26.8745    1.2825   29.3982 C.ar    1  UNL1       -0.0175
      5 C         -28.3613    0.1987   30.9244 C.ar    1  UNL1       -0.0003
      6 C         -27.5277    1.2234   30.6356 C.ar    1  UNL1       -0.0041
      7 C         -26.3987    0.2949   27.2279 C.2     1  UNL1        0.2504
      8 N         -26.0303    1.4479   26.7584 N.am    1  UNL1       -0.2515
      9 O         -26.1891   -0.7238   26.5721 O.2     1  UNL1       -0.2699
     10 C         -25.2103    1.5894   25.5493 C.3     1  UNL1        0.0960
     11 C         -23.9712    2.2955   25.8327 C.3     1  UNL1        0.0217
     12 C         -23.8349    2.9096   27.1197 C.3     1  UNL1        0.0062
     13 C         -24.8404    3.5871   27.6487 C.3     1  UNL1        0.0546
     14 C         -26.1088    2.6543   27.5926 C.3     1  UNL1        0.2356
     15 O         -27.1272    2.8987   28.1405 O.3     1  UNL1       -0.1612
     16 F         -27.2515    2.4698   28.9862 F       1  UNL1       -0.0453
     17 C         -25.3864    1.1540   29.9785 C.3     1  UNL1        0.0312
@<TRIPOS>BOND
     1     3     7    1
     2     7     8   am
     3     7     9    2
     4     8    10    1
     5    10    11    1
     6    11    12    1
     7    12    13    1
     8     8    14    1
     9    13    14    1
    10    14    15    1
    11    15    16    1
    12     4    17    1
    13     1     2   ar
    14     2     5   ar
    15     5     6   ar
    16     6     4   ar
    17     4     3   ar
    18     3     1   ar
