@<TRIPOS>MOLECULE
No_4731-gen_results/8p0m/2024-11-26-14-13-15/
 14 16 0 0 0
SMALL
GASTEIGER

@<TRIPOS>ATOM
      1 C         -28.0162   -0.8135   28.8779 C.ar    1  UNL1        0.0000
      2 C         -27.0636   -0.1189   28.6079 C.ar    1  UNL1        0.0000
      3 C         -27.0010    0.6913   27.4910 C.ar    1  UNL1        0.0000
      4 C         -25.8548    1.4825   27.0830 C.ar    1  UNL1        0.0000
      5 C         -25.8227    2.3296   25.9941 C.ar    1  UNL1        0.0000
      6 C         -27.9874   -1.6326   30.1036 C.ar    1  UNL1        0.0000
      7 C         -26.7767   -1.8328   30.7473 C.ar    1  UNL1        0.0000
      8 C         -25.6300   -1.2164   30.3057 C.ar    1  UNL1        0.0000
      9 C         -25.7324   -0.3480   29.1642 C.ar    1  UNL1        0.0000
     10 C         -24.6523    3.1222   25.7811 C.ar    1  UNL1        0.0000
     11 C         -23.4952    2.8885   26.5394 C.ar    1  UNL1        0.0000
     12 C         -23.4996    1.9469   27.5250 C.ar    1  UNL1        0.0000
     13 C         -24.6359    1.2298   27.8409 C.ar    1  UNL1        0.0000
     14 C         -24.5782    0.3630   28.7559 C.ar    1  UNL1        0.0000
@<TRIPOS>BOND
     1     2     3   ar
     2     3     4   ar
     3    13    14   ar
     4    14     9   ar
     5     4     5   ar
     6     5    10   ar
     7    10    11   ar
     8    11    12   ar
     9    12    13   ar
    10    13     4   ar
    11     1     2   ar
    12     2     9   ar
    13     9     8   ar
    14     8     7   ar
    15     7     6   ar
    16     6     1   ar
