@<TRIPOS>MOLECULE
No_4732-gen_results/8p0m/2024-11-26-14-13-15/
 20 21 0 0 0
SMALL
GASTEIGER

@<TRIPOS>ATOM
      1 C         -28.0162   -0.8135   28.8779 C.ar    1  UNL1        0.0063
      2 C         -28.4690   -0.7850   29.8287 C.ar    1  UNL1        0.0798
      3 C         -26.5042   -0.7777   28.8766 C.ar    1  UNL1       -0.0040
      4 C         -25.8103   -0.8531   30.1028 C.ar    1  UNL1       -0.0199
      5 C         -27.9906   -0.8916   31.2257 C.ar    1  UNL1        0.0063
      6 C         -26.6042   -0.8676   31.2652 C.ar    1  UNL1       -0.0040
      7 C         -24.3894   -0.8049   30.1638 C.3     1  UNL1        0.0562
      8 C         -23.8172    0.4762   29.9118 C.3     1  UNL1        0.0973
      9 C         -22.5010    0.5449   29.4097 C.3     1  UNL1        0.0107
     10 C         -21.7696   -0.6524   29.2129 C.3     1  UNL1        0.0031
     11 C         -23.6939   -1.8206   29.2518 C.3     1  UNL1        0.1561
     12 C         -22.3030   -1.7892   29.1620 C.3     1  UNL1        0.0332
     13 C         -23.8702   -1.2517   31.6631 C.3     1  UNL1        0.0074
     14 O         -24.2233   -2.9066   28.9651 O.3     1  UNL1       -0.2228
     15 C         -30.0789   -0.8184   29.8240 C.2     1  UNL1        0.3878
     16 O         -30.7306   -0.0590   30.7034 O.co2   1  UNL1       -0.2406
     17 O         -30.6668   -1.4025   28.9639 O.co2   1  UNL1       -0.2406
     18 C         -24.4353    1.7483   30.3070 C.2     1  UNL1        0.3105
     19 O         -24.5270    2.1501   31.4478 O.2     1  UNL1       -0.2591
     20 F         -25.1447    2.2931   29.3515 F       1  UNL1       -0.1636
@<TRIPOS>BOND
     1     4     7    1
     2     7     8    1
     3     9    10    1
     4     7    11    1
     5     7    13    1
     6    11    14    1
     7     2    15    1
     8    15    16   ar
     9    15    17   ar
    10     8    18    1
    11    18    19    2
    12    18    20    1
    13     8     9    1
    14    10    12    1
    15    12    11    1
    16     1     2   ar
    17     2     5   ar
    18     5     6   ar
    19     6     4   ar
    20     4     3   ar
    21     3     1   ar
