@<TRIPOS>MOLECULE
No_4734-gen_results/8p0m/2024-11-26-14-13-15/
 18 19 0 0 0
SMALL
GASTEIGER

@<TRIPOS>ATOM
      1 C         -28.0162   -0.8135   28.8779 C.ar    1  UNL1        0.0002
      2 C         -27.0636   -0.1189   28.6079 C.ar    1  UNL1        0.0000
      3 C         -26.9716    0.7139   27.5060 C.ar    1  UNL1        0.0002
      4 C         -28.1053    0.7744   26.6421 C.ar    1  UNL1        0.0066
      5 C         -29.2041    0.1179   27.0477 C.ar    1  UNL1        0.0798
      6 C         -29.2127   -0.6088   28.1281 C.ar    1  UNL1        0.0066
      7 C         -30.3709    0.2326   26.1381 C.2     1  UNL1        0.3878
      8 O         -31.2520   -0.4036   26.3042 O.co2   1  UNL1       -0.2406
      9 O         -30.1260    0.7139   24.9070 O.co2   1  UNL1       -0.2406
     10 C         -25.6557    1.4018   27.1350 C.ar    1  UNL1        0.0002
     11 C         -25.2725    2.0502   26.4317 C.ar    1  UNL1        0.0000
     12 C         -23.9067    2.6576   26.2799 C.ar    1  UNL1        0.0002
     13 C         -22.9310    2.1410   27.1324 C.ar    1  UNL1        0.0066
     14 C         -23.2800    1.1360   27.9915 C.ar    1  UNL1        0.0798
     15 C         -24.6195    0.7015   28.1425 C.ar    1  UNL1        0.0066
     16 C         -22.2361    0.5916   28.9101 C.2     1  UNL1        0.3878
     17 O         -21.1109    0.8366   28.8405 O.co2   1  UNL1       -0.2406
     18 O         -22.6504   -0.4163   29.7237 O.co2   1  UNL1       -0.2406
@<TRIPOS>BOND
     1     5     7    1
     2     7     8   ar
     3     7     9   ar
     4     3    10    1
     5    14    16    1
     6    16    17   ar
     7    16    18   ar
     8     1     2   ar
     9     2     3   ar
    10     3     4   ar
    11     4     5   ar
    12     5     6   ar
    13     6     1   ar
    14    10    11   ar
    15    11    12   ar
    16    12    13   ar
    17    13    14   ar
    18    14    15   ar
    19    15    10   ar
