@<TRIPOS>MOLECULE
No_4736-gen_results/8p0m/2024-11-26-14-13-15/
 13 14 0 0 0
SMALL
GASTEIGER

@<TRIPOS>ATOM
      1 C         -28.0162   -0.8135   28.8779 C.ar    1  UNL1        0.0114
      2 C         -27.0636   -0.1189   28.6079 C.ar    1  UNL1        0.0009
      3 C         -25.7647   -0.3897   29.0360 C.ar    1  UNL1        0.0001
      4 C         -25.5296   -1.5302   29.9014 C.ar    1  UNL1        0.0009
      5 C         -26.6577   -2.2915   30.2035 C.ar    1  UNL1        0.0114
      6 C         -27.6860   -1.9196   29.6994 C.ar    1  UNL1        0.0577
      7 C         -24.5358    0.4438   28.7505 C.ar    1  UNL1        0.0000
      8 C         -23.3155    0.0522   29.0115 C.ar    1  UNL1        0.0000
      9 C         -22.1873    0.8538   28.7147 C.ar    1  UNL1        0.0000
     10 C         -22.3642    1.6367   27.5562 C.ar    1  UNL1        0.0000
     11 C         -24.6152    1.4730   27.7221 C.ar    1  UNL1        0.0000
     12 C         -23.5292    2.0746   27.2138 C.ar    1  UNL1        0.0000
     13 CL        -29.1647   -2.9320   30.1955 Cl      1  UNL1       -0.0822
@<TRIPOS>BOND
     1     3     7    1
     2     6    13    1
     3     7     8   ar
     4     8     9   ar
     5     9    10   ar
     6    10    12   ar
     7    12    11   ar
     8    11     7   ar
     9     1     2   ar
    10     2     3   ar
    11     3     4   ar
    12     4     5   ar
    13     5     6   ar
    14     6     1   ar
