@<TRIPOS>MOLECULE
No_4737-gen_results/8p0m/2024-11-26-14-13-15/
 14 15 0 0 0
SMALL
GASTEIGER

@<TRIPOS>ATOM
      1 C         -28.0162   -0.8135   28.8779 C.ar    1  UNL1        0.0000
      2 C         -28.4690   -0.7850   29.8287 C.ar    1  UNL1        0.0000
      3 C         -27.1356    0.2359   28.5352 C.ar    1  UNL1        0.0000
      4 C         -26.8745    1.2825   29.3982 C.ar    1  UNL1        0.0000
      5 C         -28.3613    0.1987   30.9244 C.ar    1  UNL1        0.0000
      6 C         -27.5277    1.2234   30.6356 C.ar    1  UNL1        0.0000
      7 C         -26.3879    0.2914   27.2334 C.2     1  UNL1        0.0000
      8 C         -26.4936    0.9729   26.2859 C.2     1  UNL1        0.0000
      9 C         -27.4761    2.0647   26.3647 C.ar    1  UNL1        0.0000
     10 C         -28.7475    1.9389   26.4017 C.ar    1  UNL1        0.0000
     11 C         -29.5629    3.1143   26.4450 C.ar    1  UNL1        0.0000
     12 C         -28.9568    4.3946   26.3980 C.ar    1  UNL1        0.0000
     13 C         -26.8268    3.4248   26.4425 C.ar    1  UNL1        0.0000
     14 C         -27.6075    4.5334   26.3726 C.ar    1  UNL1        0.0000
@<TRIPOS>BOND
     1     3     7    1
     2     7     8    2
     3     8     9    1
     4     1     2   ar
     5     2     5   ar
     6     5     6   ar
     7     6     4   ar
     8     4     3   ar
     9     3     1   ar
    10     9    10   ar
    11    10    11   ar
    12    11    12   ar
    13    12    14   ar
    14    14    13   ar
    15    13     9   ar
