@<TRIPOS>MOLECULE
No_4738-gen_results/8p0m/2024-11-26-14-13-15/
 11 12 0 0 0
SMALL
GASTEIGER

@<TRIPOS>ATOM
      1 C         -28.0162   -0.8135   28.8779 C.ar    1  UNL1        0.0129
      2 C         -27.0636   -0.1189   28.6079 C.ar    1  UNL1        0.0577
      3 C         -25.7923   -0.4302   29.0761 C.ar    1  UNL1        0.0114
      4 C         -25.5756   -1.5654   29.9363 C.ar    1  UNL1        0.0010
      5 C         -26.7354   -2.3004   30.2173 C.ar    1  UNL1        0.0031
      6 C         -27.9184   -1.9537   29.7629 C.ar    1  UNL1        0.0200
      7 CL        -27.1463    1.2916   27.6407 Cl      1  UNL1       -0.0822
      8 C         -29.0683   -2.7883   30.1813 C.ar    1  UNL1        0.0989
      9 N         -28.9567   -4.0769   30.4359 N.ar    1  UNL1       -0.2423
     10 C         -27.8489   -4.6155   30.3099 C.ar    1  UNL1        0.0989
     11 C         -26.5979   -3.8561   30.3407 C.ar    1  UNL1        0.0207
@<TRIPOS>BOND
     1     2     7    1
     2     6     8   ar
     3     8     9   ar
     4     9    10   ar
     5    10    11   ar
     6    11     5   ar
     7     1     2   ar
     8     2     3   ar
     9     3     4   ar
    10     4     5   ar
    11     5     6   ar
    12     6     1   ar
