@<TRIPOS>MOLECULE
No_4739-gen_results/8p0m/2024-11-26-14-13-15/
 19 20 0 0 0
SMALL
GASTEIGER

@<TRIPOS>ATOM
      1 C         -28.0162   -0.8135   28.8779 C.ar    1  UNL1        0.0029
      2 C         -27.0636   -0.1189   28.6079 C.ar    1  UNL1       -0.0141
      3 C         -25.7923   -0.4302   29.0761 C.ar    1  UNL1       -0.0036
      4 C         -25.5756   -1.5654   29.9363 C.ar    1  UNL1       -0.0001
      5 C         -26.7354   -2.3004   30.2173 C.ar    1  UNL1        0.0066
      6 C         -27.9184   -1.9537   29.7629 C.ar    1  UNL1        0.0795
      7 C         -29.0732   -2.7835   30.1783 C.2     1  UNL1        0.3877
      8 O         -29.0022   -3.9850   30.2347 O.co2   1  UNL1       -0.2406
      9 O         -30.1809   -2.1900   30.4596 O.co2   1  UNL1       -0.2406
     10 C         -27.2859    1.1141   27.8339 C.3     1  UNL1        0.0660
     11 C         -27.3553    1.0131   26.4493 C.ar    1  UNL1       -0.0143
     12 C         -27.1053   -0.0955   25.8300 C.ar    1  UNL1       -0.0036
     13 C         -27.1774   -0.1627   24.3635 C.ar    1  UNL1       -0.0003
     14 C         -27.8798    0.8287   23.7610 C.ar    1  UNL1       -0.0000
     15 C         -28.0072    2.0143   25.6500 C.ar    1  UNL1       -0.0036
     16 C         -28.2235    1.9441   24.3676 C.ar    1  UNL1       -0.0003
     17 C         -27.4163    2.3796   28.5678 C.2     1  UNL1       -0.0222
     18 C         -28.5369    2.9361   28.8410 C.2     1  UNL1       -0.0297
     19 C         -28.6113    4.1293   29.5738 C.3     1  UNL1        0.0304
@<TRIPOS>BOND
     1     6     7    1
     2     7     8   ar
     3     7     9   ar
     4     2    10    1
     5    10    11    1
     6    10    17    1
     7    17    18    2
     8    18    19    1
     9     1     2   ar
    10     2     3   ar
    11     3     4   ar
    12     4     5   ar
    13     5     6   ar
    14     6     1   ar
    15    11    12   ar
    16    12    13   ar
    17    13    14   ar
    18    14    16   ar
    19    16    15   ar
    20    15    11   ar
