@<TRIPOS>MOLECULE
No_474-gen_results/8p0m/2024-11-26-14-13-15/
 20 20 0 0 0
SMALL
GASTEIGER

@<TRIPOS>ATOM
      1 BR        -28.1146   -0.6256   29.0813 Br      1  UNL1       -0.0493
      2 C         -26.9268    0.4545   28.6846 C.ar    1  UNL1        0.0313
      3 C         -26.3163    0.3925   27.4205 C.ar    1  UNL1        0.0073
      4 C         -25.1017    0.9859   27.1099 C.ar    1  UNL1        0.0119
      5 C         -24.4435    1.7837   28.0864 C.ar    1  UNL1        0.0574
      6 C         -24.9888    1.8521   29.3324 C.ar    1  UNL1        0.0082
      7 C         -26.0957    1.1814   29.6348 C.ar    1  UNL1       -0.0073
      8 CL        -22.9658    2.6121   27.8091 Cl      1  UNL1       -0.0823
      9 C         -26.6427    1.2903   31.0698 C.3     1  UNL1        0.0663
     10 C         -26.4800    0.2097   31.8523 C.2     1  UNL1       -0.0222
     11 C         -25.6337   -0.5349   31.9338 C.2     1  UNL1       -0.0304
     12 C         -24.4181   -0.4288   31.1078 C.3     1  UNL1        0.0217
     13 C         -23.2303    0.0843   31.8055 C.3     1  UNL1        0.0047
     14 C         -23.9668   -1.7331   30.5641 C.3     1  UNL1        0.0043
     15 C         -23.2047   -1.6440   29.3071 C.3     1  UNL1        0.0003
     16 C         -27.1676    2.6162   31.3561 C.2     1  UNL1       -0.0177
     17 C         -28.2821    2.7259   31.8947 C.2     1  UNL1       -0.0043
     18 C         -28.8447    4.0119   32.2156 C.2     1  UNL1       -0.0049
     19 C         -28.1346    5.1662   31.8531 C.2     1  UNL1       -0.0258
     20 C         -26.8836    5.0648   31.2259 C.3     1  UNL1        0.0307
@<TRIPOS>BOND
     1     1     2    1
     2     5     8    1
     3     7     9    1
     4     9    10    1
     5    10    11    2
     6    11    12    1
     7    12    13    1
     8    12    14    1
     9    14    15    1
    10     9    16    1
    11    16    17    2
    12    17    18    1
    13    18    19    2
    14    19    20    1
    15     2     3   ar
    16     3     4   ar
    17     4     5   ar
    18     5     6   ar
    19     6     7   ar
    20     7     2   ar
