@<TRIPOS>MOLECULE
No_4740-gen_results/8p0m/2024-11-26-14-13-15/
 30 31 0 0 0
SMALL
GASTEIGER

@<TRIPOS>ATOM
      1 C         -28.0162   -0.8135   28.8779 C.ar    1  UNL1        0.0415
      2 C         -28.4690   -0.7850   29.8287 C.ar    1  UNL1        0.1489
      3 C         -27.0871    0.2903   28.6377 C.ar    1  UNL1        0.0744
      4 C         -26.8317    1.2487   29.5869 C.ar    1  UNL1        0.0041
      5 C         -28.3914    0.0801   31.0065 C.ar    1  UNL1        0.0376
      6 C         -27.4940    1.1521   30.7841 C.ar    1  UNL1        0.0031
      7 C         -26.3172    0.3994   27.3653 C.3     1  UNL1        0.4187
      8 F         -25.4556   -0.3605   27.3146 F       1  UNL1       -0.1659
      9 F         -27.2053    0.2310   26.3179 F       1  UNL1       -0.1659
     10 F         -25.8182    1.6689   27.0937 F       1  UNL1       -0.1659
     11 O         -29.3535   -1.9222   30.1759 O.3     1  UNL1       -0.4179
     12 C         -30.5905   -1.8375   30.1447 C.2     1  UNL1        0.4005
     13 C         -31.2329   -2.2424   31.2936 C.2     1  UNL1        0.3293
     14 O         -32.4022   -1.9612   31.4338 O.2     1  UNL1       -0.2624
     15 N         -30.7503   -3.4094   31.9255 N.am    1  UNL1       -0.2472
     16 C         -29.5161   -3.9879   31.6855 C.3     1  UNL1        0.1322
     17 O         -31.1289   -1.4252   29.1118 O.2     1  UNL1       -0.2393
     18 C         -29.6593   -5.5419   31.8664 C.3     1  UNL1        0.1824
     19 O         -29.4645   -6.0600   30.8366 O.3     1  UNL1       -0.2818
     20 C         -30.4830   -6.1582   29.9399 C.1     1  UNL1        0.0667
     21 C         -31.0539   -5.9339   28.8953 C.1     1  UNL1        0.0496
     22 C         -31.6575   -5.6551   27.7102 C.2     1  UNL1        0.4321
     23 O         -31.6361   -6.3424   26.8810 O.co2   1  UNL1       -0.2308
     24 O         -32.2900   -4.4574   27.6294 O.co2   1  UNL1       -0.2308
     25 C         -31.5648   -3.9299   33.0348 C.ar    1  UNL1        0.0544
     26 C         -31.8415   -3.1349   34.0085 C.ar    1  UNL1        0.0149
     27 C         -32.5207   -3.5833   34.9660 C.ar    1  UNL1        0.0013
     28 C         -32.9160   -4.9381   35.0144 C.ar    1  UNL1        0.0001
     29 C         -32.5573   -5.7676   33.9783 C.ar    1  UNL1        0.0013
     30 C         -31.8102   -5.2465   32.9736 C.ar    1  UNL1        0.0149
@<TRIPOS>BOND
     1     3     7    1
     2     7     8    1
     3     7     9    1
     4     7    10    1
     5     2    11    1
     6    11    12    1
     7    12    13    1
     8    13    14    2
     9    13    15   am
    10    15    16    1
    11    12    17    2
    12    16    18    1
    13    18    19    1
    14    19    20    1
    15    20    21    3
    16    21    22    1
    17    22    23   ar
    18    22    24   ar
    19    15    25    1
    20    25    26   ar
    21    26    27   ar
    22    27    28   ar
    23    28    29   ar
    24    29    30   ar
    25    30    25   ar
    26     1     2   ar
    27     2     5   ar
    28     5     6   ar
    29     6     4   ar
    30     4     3   ar
    31     3     1   ar
