@<TRIPOS>MOLECULE
No_4741-gen_results/8p0m/2024-11-26-14-13-15/
 16 17 0 0 0
SMALL
GASTEIGER

@<TRIPOS>ATOM
      1 C         -28.0162   -0.8135   28.8779 C.ar    1  UNL1       -0.0034
      2 C         -27.0636   -0.1189   28.6079 C.ar    1  UNL1       -0.0077
      3 C         -25.7923   -0.4302   29.0761 C.ar    1  UNL1       -0.0034
      4 C         -25.5756   -1.5654   29.9363 C.ar    1  UNL1       -0.0003
      5 C         -26.7354   -2.3004   30.2173 C.ar    1  UNL1       -0.0000
      6 C         -27.9184   -1.9537   29.7629 C.ar    1  UNL1       -0.0003
      7 C         -27.1057    1.1023   27.7593 C.3     1  UNL1        0.1478
      8 C         -26.7157    2.2350   27.9945 C.ar    1  UNL1       -0.0077
      9 C         -26.0688    2.4770   29.3567 C.ar    1  UNL1       -0.0034
     10 C         -26.2621    3.4491   30.0956 C.ar    1  UNL1       -0.0003
     11 C         -26.6041    4.7187   29.3954 C.ar    1  UNL1       -0.0000
     12 C         -27.0475    4.6411   28.1009 C.ar    1  UNL1       -0.0003
     13 C         -27.2102    3.4198   27.4436 C.ar    1  UNL1       -0.0034
     14 C         -27.5530    0.8062   26.3680 C.2     1  UNL1        0.3724
     15 O         -26.8736    0.5240   25.4647 O.co2   1  UNL1       -0.2449
     16 O         -28.9772    0.6674   26.2880 O.co2   1  UNL1       -0.2449
@<TRIPOS>BOND
     1     2     7    1
     2     7    14    1
     3    14    15   ar
     4    14    16   ar
     5     7     8    1
     6     1     2   ar
     7     2     3   ar
     8     3     4   ar
     9     4     5   ar
    10     5     6   ar
    11     6     1   ar
    12     8     9   ar
    13     9    10   ar
    14    10    11   ar
    15    11    12   ar
    16    12    13   ar
    17    13     8   ar
