@<TRIPOS>MOLECULE
No_4742-gen_results/8p0m/2024-11-26-14-13-15/
 14 15 0 0 0
SMALL
GASTEIGER

@<TRIPOS>ATOM
      1 C         -28.0162   -0.8135   28.8779 C.ar    1  UNL1        0.0001
      2 C         -28.4690   -0.7850   29.8287 C.ar    1  UNL1        0.0000
      3 C         -26.6028   -1.0596   28.5384 C.ar    1  UNL1        0.0045
      4 C         -25.7969   -1.4490   29.7273 C.ar    1  UNL1        0.0536
      5 C         -26.4284   -1.5407   30.9833 C.ar    1  UNL1        0.0045
      6 C         -27.7563   -1.2444   31.0750 C.ar    1  UNL1        0.0001
      7 C         -24.3921   -1.7399   29.5644 C.2     1  UNL1        0.2500
      8 N         -23.4475   -0.8001   29.5097 N.am    1  UNL1       -0.2608
      9 C         -22.4169   -0.7492   28.6921 C.3     1  UNL1        0.0965
     10 C         -21.7494    0.5020   28.6029 C.3     1  UNL1        0.0404
     11 C         -23.5941    0.4085   30.3195 C.3     1  UNL1        0.1856
     12 N         -22.9999    1.5190   30.1280 N.3     1  UNL1       -0.1972
     13 C         -21.9424    1.5680   29.3922 C.3     1  UNL1        0.0923
     14 O         -24.0144   -2.9218   29.4389 O.2     1  UNL1       -0.2699
@<TRIPOS>BOND
     1     4     7    1
     2     7     8   am
     3     8     9    1
     4     8    11    1
     5    10    13    1
     6    12    13    1
     7     7    14    2
     8     9    10    1
     9    12    11    1
    10     1     2   ar
    11     2     6   ar
    12     6     5   ar
    13     5     4   ar
    14     4     3   ar
    15     3     1   ar
