@<TRIPOS>MOLECULE
No_4743-gen_results/8p0m/2024-11-26-14-13-15/
 24 27 0 0 0
SMALL
GASTEIGER

@<TRIPOS>ATOM
      1 C         -28.0162   -0.8135   28.8779 C.ar    1  UNL1        0.0078
      2 C         -28.4690   -0.7850   29.8287 C.ar    1  UNL1        0.0798
      3 C         -28.1816    0.4277   28.1134 C.ar    1  UNL1        0.0142
      4 C         -28.9841    1.4155   28.5154 C.ar    1  UNL1       -0.0163
      5 C         -28.3375   -2.0481   30.7873 C.2     1  UNL1        0.3878
      6 C         -29.5615    1.2930   29.7416 C.ar    1  UNL1       -0.0037
      7 C         -29.3196    0.1647   30.4451 C.ar    1  UNL1        0.0063
      8 O         -28.9434   -3.0348   30.7310 O.co2   1  UNL1       -0.2406
      9 O         -27.2194   -2.0572   31.5945 O.co2   1  UNL1       -0.2406
     10 C         -27.4470    0.4995   26.7471 C.ar    1  UNL1        0.0809
     11 C         -28.0095    0.8764   25.6263 C.ar    1  UNL1        0.0174
     12 C         -29.3486    1.2279   25.6484 C.2     1  UNL1       -0.0027
     13 C         -30.0937    1.3480   26.6141 C.2     1  UNL1       -0.0214
     14 C         -29.8436    1.6209   27.8329 C.3     1  UNL1        0.0523
     15 N         -26.1844   -0.1109   26.7701 N.ar    1  UNL1       -0.2454
     16 C         -25.3253    0.3673   25.8715 C.ar    1  UNL1        0.0812
     17 C         -23.9298    0.5613   26.3279 C.ar    1  UNL1        0.0176
     18 C         -23.4297    1.9171   26.1596 C.ar    1  UNL1        0.0015
     19 C         -22.1944    2.1934   26.7552 C.ar    1  UNL1        0.0000
     20 C         -21.7112    1.3366   27.8443 C.ar    1  UNL1        0.0000
     21 C         -22.4618    0.2047   28.1598 C.ar    1  UNL1        0.0000
     22 C         -23.5762   -0.0757   27.5108 C.ar    1  UNL1        0.0015
     23 C         -27.1989    1.0876   24.4747 C.ar    1  UNL1        0.0030
     24 C         -25.8633    1.4064   24.9150 C.ar    1  UNL1        0.0191
@<TRIPOS>BOND
     1     2     5    1
     2     5     8   ar
     3     5     9   ar
     4     3    10    1
     5    11    12    1
     6    12    13    2
     7     4    14    1
     8    13    14    1
     9    16    17    1
    10    17    18   ar
    11    18    19   ar
    12    19    20   ar
    13    20    21   ar
    14    21    22   ar
    15    22    17   ar
    16    10    11   ar
    17    11    23   ar
    18    23    24   ar
    19    24    16   ar
    20    16    15   ar
    21    15    10   ar
    22     1     2   ar
    23     2     7   ar
    24     7     6   ar
    25     6     4   ar
    26     4     3   ar
    27     3     1   ar
