@<TRIPOS>MOLECULE
No_4744-gen_results/8p0m/2024-11-26-14-13-15/
 24 25 0 0 0
SMALL
GASTEIGER

@<TRIPOS>ATOM
      1 C         -28.0162   -0.8135   28.8779 C.ar    1  UNL1        0.0034
      2 C         -28.4690   -0.7850   29.8287 C.ar    1  UNL1        0.0795
      3 C         -26.5455   -0.8762   28.8500 C.ar    1  UNL1       -0.0082
      4 C         -25.8041   -1.0324   30.0571 C.ar    1  UNL1       -0.0216
      5 C         -27.9437   -0.9869   31.2075 C.ar    1  UNL1        0.0062
      6 C         -24.4008   -1.0969   30.0965 C.3     1  UNL1        0.0375
      7 C         -26.5612   -1.0746   31.2270 C.ar    1  UNL1       -0.0040
      8 C         -23.7186    0.1121   29.8577 C.ar    1  UNL1       -0.0190
      9 C         -22.4354    0.1410   29.2414 C.ar    1  UNL1       -0.0040
     10 C         -21.8243    1.3186   28.9009 C.ar    1  UNL1       -0.0003
     11 C         -24.2152    1.3866   30.2825 C.ar    1  UNL1       -0.0040
     12 C         -23.6920    2.5913   29.8574 C.ar    1  UNL1       -0.0003
     13 C         -22.4485    2.5510   29.1858 C.ar    1  UNL1       -0.0000
     14 C         -30.0882   -0.7019   29.8725 C.2     1  UNL1        0.3877
     15 O         -30.5100   -0.2395   28.9209 O.co2   1  UNL1       -0.2406
     16 O         -30.7663   -1.0395   30.9015 O.co2   1  UNL1       -0.2406
     17 C         -25.7383   -0.7507   27.5847 C.3     1  UNL1        0.1160
     18 N         -26.1804    0.1333   26.6542 N.3     1  UNL1       -0.1984
     19 C         -25.7630    1.1662   26.2546 C.3     1  UNL1        0.1520
     20 C         -24.4698    1.5427   26.7410 C.3     1  UNL1        0.0341
     21 CL        -26.7696    2.3395   25.5523 Cl      1  UNL1       -0.0957
     22 C         -23.9427   -1.6307   31.4602 C.3     1  UNL1        0.0088
     23 C         -23.9161   -2.2084   29.0810 C.3     1  UNL1        0.0088
     24 C         -23.9817    2.9478   26.7053 C.3     1  UNL1        0.0028
@<TRIPOS>BOND
     1     4     6    1
     2     6     8    1
     3     2    14    1
     4    14    15   ar
     5    14    16   ar
     6     3    17    1
     7    17    18    1
     8    18    19    1
     9    19    20    1
    10    19    21    1
    11     6    22    1
    12     6    23    1
    13    20    24    1
    14     8     9   ar
    15     9    10   ar
    16    10    13   ar
    17    13    12   ar
    18    12    11   ar
    19    11     8   ar
    20     1     2   ar
    21     2     5   ar
    22     5     7   ar
    23     7     4   ar
    24     4     3   ar
    25     3     1   ar
