@<TRIPOS>MOLECULE
No_4747-gen_results/8p0m/2024-11-26-14-13-15/
 28 31 0 0 0
SMALL
GASTEIGER

@<TRIPOS>ATOM
      1 F         -28.0727   -1.2542   28.5316 F       1  UNL1       -0.2010
      2 C         -27.3591   -0.3792   28.7224 C.ar    1  UNL1        0.1743
      3 C         -26.8100    0.1885   27.6513 C.ar    1  UNL1        0.1755
      4 C         -25.6015    0.9529   27.6828 C.ar    1  UNL1        0.0770
      5 C         -25.0371    1.2332   29.0000 C.ar    1  UNL1        0.1448
      6 C         -25.6162    0.5855   30.0870 C.ar    1  UNL1        0.0192
      7 C         -26.6061   -0.2296   29.9624 C.ar    1  UNL1        0.0319
      8 O         -23.9925    2.0751   29.0733 O.3     1  UNL1       -0.4537
      9 C         -22.8230    1.7084   28.3926 C.ar    1  UNL1        0.1453
     10 C         -21.7249    1.1425   29.1639 C.ar    1  UNL1        0.0375
     11 C         -20.7254    0.4718   28.3981 C.ar    1  UNL1        0.0031
     12 C         -22.6514    2.0754   27.0702 C.ar    1  UNL1        0.0375
     13 C         -21.3990    1.7165   26.4659 C.ar    1  UNL1        0.0031
     14 C         -20.5245    0.9140   27.1374 C.ar    1  UNL1        0.0002
     15 O         -27.2723    0.0065   26.4020 O.3     1  UNL1       -0.4511
     16 C         -28.3382    0.7600   26.0094 C.ar    1  UNL1        0.1454
     17 C         -28.9802    0.3445   24.9346 C.ar    1  UNL1        0.0375
     18 C         -30.1561    1.0031   24.4600 C.ar    1  UNL1        0.0031
     19 C         -30.5137    2.2340   25.1339 C.ar    1  UNL1        0.0002
     20 C         -28.7874    1.9333   26.6903 C.ar    1  UNL1        0.0375
     21 C         -29.8263    2.6464   26.2651 C.ar    1  UNL1        0.0031
     22 C         -24.9293    0.8781   31.4092 C.3     1  UNL1        0.0558
     23 C         -25.5700    1.9858   32.2000 C.ar    1  UNL1       -0.0177
     24 C         -26.8703    2.1366   32.0948 C.ar    1  UNL1       -0.0039
     25 C         -27.4255    3.2665   32.8391 C.ar    1  UNL1       -0.0003
     26 C         -26.6039    4.1243   33.5504 C.ar    1  UNL1       -0.0000
     27 C         -25.2088    3.9812   33.4341 C.ar    1  UNL1       -0.0003
     28 C         -24.7183    2.9722   32.7217 C.ar    1  UNL1       -0.0039
@<TRIPOS>BOND
     1     1     2    1
     2     5     8    1
     3     8     9    1
     4     3    15    1
     5    15    16    1
     6     6    22    1
     7    22    23    1
     8     2     3   ar
     9     3     4   ar
    10     4     5   ar
    11     5     6   ar
    12     6     7   ar
    13     7     2   ar
    14     9    10   ar
    15    10    11   ar
    16    11    14   ar
    17    14    13   ar
    18    13    12   ar
    19    12     9   ar
    20    23    24   ar
    21    24    25   ar
    22    25    26   ar
    23    26    27   ar
    24    27    28   ar
    25    28    23   ar
    26    16    17   ar
    27    17    18   ar
    28    18    19   ar
    29    19    21   ar
    30    21    20   ar
    31    20    16   ar
