@<TRIPOS>MOLECULE
No_4748-gen_results/8p0m/2024-11-26-14-13-15/
 14 15 0 0 0
SMALL
GASTEIGER

@<TRIPOS>ATOM
      1 C         -28.0162   -0.8135   28.8779 C.ar    1  UNL1        0.0369
      2 C         -28.4690   -0.7850   29.8287 C.ar    1  UNL1        0.1391
      3 C         -26.5042   -0.7777   28.8766 C.ar    1  UNL1        0.0031
      4 C         -25.8103   -0.8531   30.1028 C.ar    1  UNL1        0.0002
      5 C         -27.9906   -0.8916   31.2257 C.ar    1  UNL1        0.0369
      6 C         -26.6042   -0.8676   31.2652 C.ar    1  UNL1        0.0031
      7 O         -29.9385   -0.8194   29.8358 O.3     1  UNL1       -0.4706
      8 C         -30.5356   -0.1119   28.9448 C.3     1  UNL1        0.2320
      9 C         -31.4501   -0.5433   28.1111 C.ar    1  UNL1        0.0212
     10 C         -31.8722   -1.9167   28.3390 C.ar    1  UNL1       -0.0007
     11 C         -32.7506   -2.5838   27.3852 C.ar    1  UNL1       -0.0002
     12 C         -33.1181   -1.8430   26.2089 C.ar    1  UNL1       -0.0000
     13 C         -32.6730   -0.5572   25.9871 C.ar    1  UNL1       -0.0002
     14 C         -31.7864    0.0770   26.9108 C.ar    1  UNL1       -0.0007
@<TRIPOS>BOND
     1     2     7    1
     2     7     8    1
     3     8     9    1
     4     9    10   ar
     5    10    11   ar
     6    11    12   ar
     7    12    13   ar
     8    13    14   ar
     9    14     9   ar
    10     1     2   ar
    11     2     5   ar
    12     5     6   ar
    13     6     4   ar
    14     4     3   ar
    15     3     1   ar
