@<TRIPOS>MOLECULE
No_4750-gen_results/8p0m/2024-11-26-14-13-15/
 32 36 0 0 0
SMALL
GASTEIGER

@<TRIPOS>ATOM
      1 C         -28.0162   -0.8135   28.8779 C.ar    1  UNL1        0.0000
      2 C         -27.0636   -0.1190   28.6079 C.ar    1  UNL1        0.0000
      3 C         -25.7647   -0.3897   29.0360 C.ar    1  UNL1        0.0001
      4 C         -24.5516    0.4058   28.7646 C.ar    1  UNL1        0.0029
      5 C         -23.2300    0.1178   29.2575 C.ar    1  UNL1        0.0001
      6 C         -23.0942   -1.1309   29.8730 C.ar    1  UNL1        0.0000
      7 C         -27.7981   -1.9341   29.8560 C.ar    1  UNL1        0.0000
      8 C         -26.5420   -2.3269   30.2580 C.ar    1  UNL1        0.0000
      9 C         -25.4514   -1.5516   29.9079 C.ar    1  UNL1        0.0000
     10 C         -24.1562   -1.9097   30.2809 C.ar    1  UNL1        0.0000
     11 C         -24.6450    1.6582   27.9464 C.ar    1  UNL1        0.0340
     12 C         -24.8958    2.7559   28.5615 C.ar    1  UNL1        0.1397
     13 C         -25.1728    3.9344   27.8440 C.ar    1  UNL1        0.0369
     14 C         -24.4838    1.5571   26.5889 C.ar    1  UNL1        0.0030
     15 C         -24.6321    2.6940   25.7850 C.ar    1  UNL1        0.0002
     16 C         -24.8902    3.9231   26.4317 C.ar    1  UNL1        0.0031
     17 O         -25.0758    2.9107   29.9068 O.3     1  UNL1       -0.4608
     18 C         -26.2306    3.1354   30.6083 C.3     1  UNL1        0.3206
     19 C         -26.3258    2.3912   31.7784 C.2     1  UNL1        0.3657
     20 O         -26.5669    2.9786   32.7224 O.3     1  UNL1       -0.4397
     21 O         -26.2894    1.1146   31.7044 O.2     1  UNL1       -0.2455
     22 C         -26.3459    4.6098   30.9110 C.2     1  UNL1        0.1836
     23 C         -26.9026    4.7999   31.9358 C.2     1  UNL1        0.1133
     24 C         -26.5557    4.2467   33.1975 C.3     1  UNL1        0.2493
     25 O         -26.8611    5.2485   29.6796 O.3     1  UNL1       -0.4529
     26 CL        -26.8477    6.6748   32.3141 Cl      1  UNL1       -0.0802
     27 C         -28.0895    5.4408   29.5460 C.ar    1  UNL1        0.1451
     28 C         -28.4058    5.6983   28.2274 C.ar    1  UNL1        0.0375
     29 C         -29.3888    5.5718   27.7792 C.ar    1  UNL1        0.0031
     30 C         -30.6012    5.3087   28.5537 C.ar    1  UNL1        0.0002
     31 C         -30.3511    5.0909   29.9251 C.ar    1  UNL1        0.0031
     32 C         -29.0624    5.1018   30.3771 C.ar    1  UNL1        0.0375
@<TRIPOS>BOND
     1     4    11    1
     2    12    17    1
     3    17    18    1
     4    18    19    1
     5    19    20    1
     6    19    21    2
     7    18    22    1
     8    22    23    2
     9    20    24    1
    10    23    24    1
    11    22    25    1
    12    23    26    1
    13    25    27    1
    14    27    28   ar
    15    28    29   ar
    16    29    30   ar
    17    30    31   ar
    18    31    32   ar
    19    32    27   ar
    20     1     2   ar
    21     2     3   ar
    22     9     8   ar
    23     8     7   ar
    24     7     1   ar
    25    11    12   ar
    26    12    13   ar
    27    13    16   ar
    28    16    15   ar
    29    15    14   ar
    30    14    11   ar
    31     3     4   ar
    32     4     5   ar
    33     5     6   ar
    34     6    10   ar
    35    10     9   ar
    36     9     3   ar
