@<TRIPOS>MOLECULE
No_4752-gen_results/8p0m/2024-11-26-14-13-15/
 19 21 0 0 0
SMALL
GASTEIGER

@<TRIPOS>ATOM
      1 C         -28.0162   -0.8135   28.8779 C.2     1  UNL1        0.2490
      2 C         -27.0636   -0.1189   28.6079 C.ar    1  UNL1        0.0536
      3 C         -26.9287    1.1713   29.0083 C.ar    1  UNL1        0.0048
      4 C         -25.7702    2.0341   28.6884 C.ar    1  UNL1        0.0077
      5 C         -24.7141    1.4431   27.9188 C.ar    1  UNL1        0.0880
      6 C         -24.8590    0.0783   27.5836 C.ar    1  UNL1        0.0077
      7 C         -25.9647   -0.6606   27.9164 C.ar    1  UNL1        0.0048
      8 N         -29.1701   -0.2984   28.9471 N.am    1  UNL1       -0.2761
      9 C         -29.7216    0.3727   28.0429 C.3     1  UNL1        0.0937
     10 C         -31.1479    0.6367   28.1030 C.3     1  UNL1        0.0216
     11 C         -30.2025   -0.9144   29.8362 C.3     1  UNL1        0.0937
     12 C         -31.4958   -0.6102   29.8944 C.3     1  UNL1        0.0216
     13 C         -31.9610    0.2181   28.9680 C.3     1  UNL1        0.0035
     14 C         -23.4956    2.1236   27.5972 C.2     1  UNL1        0.3867
     15 N         -23.0991    2.7350   26.8235 N.2     1  UNL1        0.0729
     16 N         -22.3101    1.5668   28.3554 N.pl3   1  UNL1        0.0000
     17 O         -27.8109   -1.9707   29.4288 O.2     1  UNL1       -0.2699
     18 C         -21.2088    2.0216   27.6676 C.3     1  UNL1        0.4100
     19 N         -21.7585    2.5403   26.6134 N.pl3   1  UNL1        0.0268
@<TRIPOS>BOND
     1     1     2    1
     2     1     8   am
     3     8     9    1
     4     8    11    1
     5    10    13    1
     6    12    13    1
     7     5    14    1
     8    14    15    2
     9    14    16    1
    10     1    17    2
    11    16    18    1
    12    15    19    1
    13    18    19    1
    14     9    10    1
    15    12    11    1
    16     2     3   ar
    17     3     4   ar
    18     4     5   ar
    19     5     6   ar
    20     6     7   ar
    21     7     2   ar
