@<TRIPOS>MOLECULE
No_4753-gen_results/8p0m/2024-11-26-14-13-15/
 35 38 0 0 0
SMALL
GASTEIGER

@<TRIPOS>ATOM
      1 C         -28.0162   -0.8135   28.8779 C.ar    1  UNL1        0.0489
      2 C         -28.4690   -0.7850   29.8287 C.ar    1  UNL1        0.0609
      3 C         -27.0871    0.2903   28.6377 C.ar    1  UNL1        0.1463
      4 C         -26.8317    1.2487   29.5869 C.ar    1  UNL1        0.0441
      5 C         -28.3914    0.0801   31.0065 C.ar    1  UNL1        0.0182
      6 C         -27.4940    1.1521   30.7841 C.ar    1  UNL1        0.0836
      7 O         -26.3819    0.3661   27.4556 O.3     1  UNL1       -0.4537
      8 C         -25.7824    1.5446   27.0764 C.ar    1  UNL1        0.1430
      9 C         -26.1067    2.4959   26.6537 C.ar    1  UNL1        0.0347
     10 C         -24.2121    1.3565   27.2771 C.ar    1  UNL1        0.0344
     11 C         -23.4150    2.4533   26.8773 C.ar    1  UNL1        0.0030
     12 C         -25.3546    3.6798   26.2737 C.ar    1  UNL1        0.0007
     13 C         -23.9552    3.5930   26.3594 C.ar    1  UNL1       -0.0001
     14 C         -23.6277    0.1688   27.8184 C.ar    1  UNL1        0.0052
     15 C         -22.5059    0.3220   28.7367 C.ar    1  UNL1        0.0002
     16 C         -21.8308   -0.2135   29.2674 C.ar    1  UNL1        0.0023
     17 CL        -29.6052   -2.1854   30.2738 Cl      1  UNL1       -0.0821
     18 C         -22.2461   -1.4988   29.6218 C.ar    1  UNL1        0.0296
     19 C         -23.5160   -1.9377   29.0278 C.ar    1  UNL1        0.1401
     20 C         -24.2422   -1.0127   28.2072 C.ar    1  UNL1        0.0297
     21 F         -23.9735   -3.1142   29.2514 F       1  UNL1       -0.2042
     22 C         -27.6314    2.7469   26.4424 C.3     1  UNL1        0.1246
     23 N         -28.2340    3.6941   27.0182 N.pl3   1  UNL1       -0.2789
     24 C         -29.1148    4.1838   27.2255 C.2     1  UNL1        0.0616
     25 C         -30.3047    3.5670   26.7447 C.2     1  UNL1       -0.0054
     26 C         -28.3248    1.9583   25.5597 C.2     1  UNL1       -0.0061
     27 C         -29.6580    1.8598   25.4036 C.2     1  UNL1       -0.0240
     28 C         -30.5749    2.6784   25.8441 C.3     1  UNL1        0.0531
     29 C         -27.3233    2.1834   31.8958 C.2     1  UNL1        0.3879
     30 O         -27.4352    3.1689   31.6611 O.co2   1  UNL1       -0.2406
     31 O         -27.0211    1.6459   33.0521 O.co2   1  UNL1       -0.2406
     32 C         -27.1428    4.5503   27.8419 C.2     1  UNL1        0.0675
     33 C         -27.3087    4.6290   28.9550 C.2     1  UNL1        0.0386
     34 C         -26.3510    5.6132   29.6950 C.2     1  UNL1        0.1235
     35 N         -25.4547    6.1333   28.8357 N.2     1  UNL1       -0.1463
@<TRIPOS>BOND
     1     3     7    1
     2     7     8    1
     3    10    14    1
     4     2    17    1
     5    19    21    1
     6     9    22    1
     7    22    23    1
     8    23    24    1
     9    24    25    2
    10    22    26    1
    11    26    27    2
    12    25    28    1
    13    27    28    1
    14     6    29    1
    15    29    30   ar
    16    29    31   ar
    17    23    32    1
    18    32    33    2
    19    33    34    1
    20    34    35    2
    21    14    15   ar
    22    15    16   ar
    23    16    18   ar
    24    18    19   ar
    25    19    20   ar
    26    20    14   ar
    27     8     9   ar
    28     9    12   ar
    29    12    13   ar
    30    13    11   ar
    31    11    10   ar
    32    10     8   ar
    33     1     2   ar
    34     2     5   ar
    35     5     6   ar
    36     6     4   ar
    37     4     3   ar
    38     3     1   ar
