@<TRIPOS>MOLECULE
No_4754-gen_results/8p0m/2024-11-26-14-13-15/
 21 23 0 0 0
SMALL
GASTEIGER

@<TRIPOS>ATOM
      1 C         -28.0162   -0.8135   28.8779 C.ar    1  UNL1       -0.0039
      2 C         -28.4690   -0.7850   29.8287 C.ar    1  UNL1       -0.0003
      3 C         -27.1356    0.2359   28.5352 C.ar    1  UNL1       -0.0181
      4 C         -26.8745    1.2825   29.3982 C.ar    1  UNL1       -0.0039
      5 C         -27.5070    1.2380   30.6295 C.ar    1  UNL1       -0.0003
      6 C         -28.3293    0.1745   30.9350 C.ar    1  UNL1       -0.0000
      7 C         -26.4077    0.3070   27.2259 C.3     1  UNL1        0.0486
      8 C         -25.0105    0.3902   27.3228 C.ar    1  UNL1       -0.0181
      9 C         -27.0459    0.3288   26.0049 C.3     1  UNL1        0.0304
     10 C         -28.4008    0.3616   25.8738 C.ar    1  UNL1       -0.0219
     11 C         -28.9079    0.2793   24.5565 C.ar    1  UNL1       -0.0043
     12 C         -30.3027    0.2446   24.3867 C.ar    1  UNL1       -0.0003
     13 C         -31.1239    0.1924   25.4683 C.ar    1  UNL1       -0.0000
     14 C         -30.5961    0.2576   26.7584 C.ar    1  UNL1       -0.0003
     15 C         -29.2960    0.3481   26.9673 C.ar    1  UNL1       -0.0043
     16 C         -26.1959    0.2557   24.8627 C.3     1  UNL1        0.0054
     17 C         -24.3348   -0.2018   28.4099 C.ar    1  UNL1       -0.0039
     18 C         -23.0702    0.1179   28.7420 C.ar    1  UNL1       -0.0003
     19 C         -22.2824    0.9801   27.9137 C.ar    1  UNL1       -0.0000
     20 C         -22.9654    1.6816   26.8720 C.ar    1  UNL1       -0.0003
     21 C         -24.3230    1.4530   26.6656 C.ar    1  UNL1       -0.0039
@<TRIPOS>BOND
     1     3     7    1
     2     7     8    1
     3     7     9    1
     4     9    10    1
     5     9    16    1
     6     1     2   ar
     7     2     6   ar
     8     6     5   ar
     9     5     4   ar
    10     4     3   ar
    11     3     1   ar
    12    10    11   ar
    13    11    12   ar
    14    12    13   ar
    15    13    14   ar
    16    14    15   ar
    17    15    10   ar
    18     8    17   ar
    19    17    18   ar
    20    18    19   ar
    21    19    20   ar
    22    20    21   ar
    23    21     8   ar
