@<TRIPOS>MOLECULE
No_4757-gen_results/8p0m/2024-11-26-14-13-15/
 12 12 0 0 0
SMALL
GASTEIGER

@<TRIPOS>ATOM
      1 C         -28.0162   -0.8135   28.8779 C.3     1  UNL1        0.1211
      2 C         -27.0636   -0.1189   28.6079 C.ar    1  UNL1       -0.0059
      3 C         -26.8756    1.1325   28.9134 C.ar    1  UNL1       -0.0031
      4 C         -25.6883    1.9515   28.5672 C.ar    1  UNL1        0.0036
      5 C         -24.6394    1.2834   27.8753 C.ar    1  UNL1        0.0714
      6 C         -24.8068   -0.0513   27.6040 C.ar    1  UNL1        0.0036
      7 C         -25.9019   -0.7670   27.9511 C.ar    1  UNL1       -0.0031
      8 CL        -28.1076   -1.7367   30.3895 Cl      1  UNL1       -0.1085
      9 C         -23.4478    1.9897   27.4816 C.3     1  UNL1        0.4186
     10 F         -23.4289    2.4495   26.3777 F       1  UNL1       -0.1659
     11 F         -23.0641    2.9347   28.4120 F       1  UNL1       -0.1659
     12 F         -22.3125    1.1296   27.6078 F       1  UNL1       -0.1659
@<TRIPOS>BOND
     1     1     8    1
     2     5     9    1
     3     9    10    1
     4     9    11    1
     5     9    12    1
     6     1     2    1
     7     2     3   ar
     8     3     4   ar
     9     4     5   ar
    10     5     6   ar
    11     6     7   ar
    12     7     2   ar
