@<TRIPOS>MOLECULE
No_4758-gen_results/8p0m/2024-11-26-14-13-15/
 16 17 0 0 0
SMALL
GASTEIGER

@<TRIPOS>ATOM
      1 O         -28.1229   -1.3353   28.4874 O.2     1  UNL1       -0.2683
      2 C         -27.4806   -0.4044   28.7094 C.2     1  UNL1        0.2660
      3 C         -27.1904    0.2460   29.5268 C.ar    1  UNL1        0.0513
      4 N         -26.6871   -0.0001   27.4423 N.am    1  UNL1       -0.1811
      5 C         -27.6511    0.1259   30.8798 C.ar    1  UNL1        0.0042
      6 C         -25.7508    1.0047   27.4342 C.3     1  UNL1        0.1910
      7 C         -25.5541    1.7023   28.6009 C.3     1  UNL1        0.0704
      8 C         -26.1486    1.3780   29.6666 C.ar    1  UNL1       -0.0142
      9 C         -27.2896    0.3314   31.8889 C.ar    1  UNL1        0.0001
     10 C         -26.3189    1.5219   31.9927 C.ar    1  UNL1       -0.0003
     11 C         -25.7505    2.0111   30.9193 C.ar    1  UNL1       -0.0040
     12 N         -25.1689    1.2862   26.2220 N.pl3   1  UNL1       -0.2158
     13 C         -24.1258    1.4704   25.9941 C.2     1  UNL1        0.0854
     14 C         -23.1667    1.7474   27.1197 C.2     1  UNL1        0.0628
     15 C         -23.5513    1.9608   28.4411 C.2     1  UNL1        0.2356
     16 O         -23.1454    2.3434   29.5209 O.2     1  UNL1       -0.2831
@<TRIPOS>BOND
     1     1     2    2
     2     2     3    1
     3     2     4   am
     4     4     6    1
     5     7     8    1
     6     6    12    1
     7    12    13    1
     8    13    14    2
     9    14    15    1
    10    15    16    2
    11     7     6    1
    12     3     5   ar
    13     5     9   ar
    14     9    10   ar
    15    10    11   ar
    16    11     8   ar
    17     8     3   ar
