@<TRIPOS>MOLECULE
No_4759-gen_results/8p0m/2024-11-26-14-13-15/
 16 17 0 0 0
SMALL
GASTEIGER

@<TRIPOS>ATOM
      1 C         -28.0162   -0.8135   28.8779 C.ar    1  UNL1       -0.0042
      2 C         -28.4690   -0.7850   29.8287 C.ar    1  UNL1       -0.0003
      3 C         -28.1960    0.3478   28.0550 C.ar    1  UNL1       -0.0207
      4 C         -29.0191    1.3501   28.3782 C.ar    1  UNL1       -0.0042
      5 C         -29.4107    0.1803   30.3782 C.ar    1  UNL1       -0.0000
      6 C         -29.6059    1.2495   29.6193 C.ar    1  UNL1       -0.0003
      7 C         -27.4597    0.3802   26.7091 C.3     1  UNL1        0.0457
      8 C         -26.0094    0.3317   26.7236 C.3     1  UNL1        0.0322
      9 C         -25.2570    1.3161   27.3387 C.ar    1  UNL1       -0.0218
     10 C         -25.4994    2.4485   27.3883 C.ar    1  UNL1       -0.0043
     11 C         -24.5710    3.4699   27.9446 C.ar    1  UNL1       -0.0003
     12 C         -23.3509    2.9962   28.2589 C.ar    1  UNL1       -0.0000
     13 C         -23.7681    1.0636   27.6570 C.ar    1  UNL1       -0.0043
     14 C         -22.9374    1.8023   28.1485 C.ar    1  UNL1       -0.0003
     15 C         -28.1018    0.6534   25.5492 C.3     1  UNL1        0.1139
     16 N         -28.9463    1.5262   25.3962 N.3     1  UNL1       -0.1310
@<TRIPOS>BOND
     1     3     7    1
     2     7     8    1
     3     8     9    1
     4     7    15    1
     5    15    16    1
     6     1     2   ar
     7     2     5   ar
     8     5     6   ar
     9     6     4   ar
    10     4     3   ar
    11     3     1   ar
    12     9    10   ar
    13    10    11   ar
    14    11    12   ar
    15    12    14   ar
    16    14    13   ar
    17    13     9   ar
