@<TRIPOS>MOLECULE
No_476-gen_results/8p0m/2024-11-26-14-13-15/
 11 11 0 0 0
SMALL
GASTEIGER

@<TRIPOS>ATOM
      1 C         -28.0162   -0.8135   28.8779 C.ar    1  UNL1        0.0031
      2 C         -27.0636   -0.1189   28.6079 C.ar    1  UNL1        0.0375
      3 C         -25.7647   -0.3897   29.0360 C.ar    1  UNL1        0.1454
      4 C         -25.5296   -1.5302   29.9014 C.ar    1  UNL1        0.0375
      5 C         -26.6888   -2.2893   30.1810 C.ar    1  UNL1        0.0031
      6 C         -27.8727   -1.9508   29.7373 C.ar    1  UNL1        0.0002
      7 O         -24.6590    0.3822   28.7692 O.3     1  UNL1       -0.4504
      8 C         -23.4062    0.0733   29.1011 C.2     1  UNL1        0.1795
      9 C         -22.3943    1.0175   28.7490 C.2     1  UNL1        0.0407
     10 C         -22.8132    2.1898   28.0517 C.2     1  UNL1        0.0032
     11 C         -24.1434    2.3842   27.6988 C.2     1  UNL1        0.0001
@<TRIPOS>BOND
     1     3     7    1
     2     7     8    1
     3     8     9    2
     4     9    10    1
     5    10    11    2
     6     1     2   ar
     7     2     3   ar
     8     3     4   ar
     9     4     5   ar
    10     5     6   ar
    11     6     1   ar
