@<TRIPOS>MOLECULE
No_4761-gen_results/8p0m/2024-11-26-14-13-15/
 21 22 0 0 0
SMALL
GASTEIGER

@<TRIPOS>ATOM
      1 O         -28.1229   -1.3353   28.4874 O.2     1  UNL1       -0.2696
      2 C         -27.4806   -0.4044   28.7094 C.2     1  UNL1        0.2528
      3 C         -26.3804   -0.0867   27.9394 C.ar    1  UNL1        0.0539
      4 N         -27.6664    0.4468   29.8988 N.am    1  UNL1       -0.2534
      5 C         -26.4087    0.8567   26.8802 C.ar    1  UNL1        0.0041
      6 C         -25.0824   -0.6970   28.1699 C.ar    1  UNL1        0.0045
      7 C         -25.2843    1.0488   26.0470 C.ar    1  UNL1        0.0001
      8 C         -23.8947   -0.3309   27.4777 C.ar    1  UNL1        0.0001
      9 C         -24.0554    0.5635   26.3806 C.ar    1  UNL1        0.0000
     10 C         -28.7860    0.1100   30.7785 C.3     1  UNL1        0.1203
     11 C         -26.8471    1.5250   30.2217 C.ar    1  UNL1        0.0543
     12 C         -27.2190    2.6014   30.2577 C.ar    1  UNL1        0.0149
     13 C         -26.2856    3.6994   30.4674 C.ar    1  UNL1        0.0014
     14 C         -24.9093    3.3492   30.5215 C.ar    1  UNL1        0.0034
     15 C         -24.6920    1.9571   30.4642 C.ar    1  UNL1        0.0434
     16 C         -25.5238    1.0792   30.2946 C.ar    1  UNL1        0.0182
     17 C         -23.1153    1.6771   30.6052 C.2     1  UNL1        0.2342
     18 O         -22.7579    0.4796   30.9014 O.2     1  UNL1       -0.2831
     19 C         -27.6706    1.4609   26.4841 C.2     1  UNL1       -0.0044
     20 C         -28.1712    2.2572   27.0797 C.2     1  UNL1       -0.0258
     21 C         -29.2254    3.1686   26.7690 C.3     1  UNL1        0.0307
@<TRIPOS>BOND
     1     1     2    2
     2     2     3    1
     3     2     4   am
     4     4    10    1
     5     4    11    1
     6    15    17    1
     7    17    18    2
     8     5    19    1
     9    19    20    2
    10    20    21    1
    11    11    12   ar
    12    12    13   ar
    13    13    14   ar
    14    14    15   ar
    15    15    16   ar
    16    16    11   ar
    17     3     5   ar
    18     5     7   ar
    19     7     9   ar
    20     9     8   ar
    21     8     6   ar
    22     6     3   ar
