@<TRIPOS>MOLECULE
No_4762-gen_results/8p0m/2024-11-26-14-13-15/
 18 19 0 0 0
SMALL
GASTEIGER

@<TRIPOS>ATOM
      1 C         -28.0162   -0.8135   28.8779 C.ar    1  UNL1        0.0068
      2 C         -28.4690   -0.7850   29.8287 C.ar    1  UNL1        0.0537
      3 C         -26.5042   -0.7777   28.8766 C.ar    1  UNL1        0.0298
      4 C         -25.8103   -0.8531   30.1028 C.ar    1  UNL1        0.1401
      5 C         -27.9906   -0.8916   31.2257 C.ar    1  UNL1        0.0068
      6 C         -26.6042   -0.8676   31.2652 C.ar    1  UNL1        0.0298
      7 F         -24.5534   -0.7871   30.1406 F       1  UNL1       -0.2042
      8 C         -30.0954   -0.8409   29.8497 C.2     1  UNL1        0.2493
      9 O         -30.7389   -1.6683   30.1743 O.2     1  UNL1       -0.2699
     10 N         -30.5965    0.1150   28.9042 N.am    1  UNL1       -0.2702
     11 C         -31.9717    0.1199   28.6250 C.3     1  UNL1        0.1155
     12 C         -29.8342    1.2245   28.3677 C.3     1  UNL1        0.1205
     13 C         -30.1297    2.4486   29.0036 C.ar    1  UNL1       -0.0023
     14 C         -29.2734    3.3619   28.9773 C.ar    1  UNL1       -0.0026
     15 C         -29.3732    4.6141   29.7987 C.ar    1  UNL1       -0.0003
     16 C         -30.6257    4.7822   30.4139 C.ar    1  UNL1       -0.0000
     17 C         -31.5457    3.7673   30.3915 C.ar    1  UNL1       -0.0003
     18 C         -31.2837    2.5972   29.7697 C.ar    1  UNL1       -0.0026
@<TRIPOS>BOND
     1     4     7    1
     2     2     8    1
     3     8     9    2
     4     8    10   am
     5    10    11    1
     6    10    12    1
     7    12    13    1
     8    13    14   ar
     9    14    15   ar
    10    15    16   ar
    11    16    17   ar
    12    17    18   ar
    13    18    13   ar
    14     1     2   ar
    15     2     5   ar
    16     5     6   ar
    17     6     4   ar
    18     4     3   ar
    19     3     1   ar
