@<TRIPOS>MOLECULE
No_4764-gen_results/8p0m/2024-11-26-14-13-15/
 23 25 0 0 0
SMALL
GASTEIGER

@<TRIPOS>ATOM
      1 O         -28.1229   -1.3353   28.4874 O.2     1  UNL1       -0.2699
      2 C         -27.0637   -0.8242   28.8687 C.2     1  UNL1        0.2487
      3 C         -26.4017   -0.0623   28.6224 C.ar    1  UNL1        0.0499
      4 N         -26.3805   -1.7991   29.9619 N.am    1  UNL1       -0.2754
      5 C         -25.0334    0.3743   29.0484 C.ar    1  UNL1       -0.0097
      6 C         -24.5519   -0.5089   30.0932 C.3     1  UNL1        0.0482
      7 C         -25.2414   -1.5775   30.4661 C.3     1  UNL1        0.0984
      8 C         -26.8308    0.9883   27.5233 C.ar    1  UNL1        0.0042
      9 C         -26.0090    1.5182   26.6704 C.ar    1  UNL1        0.0003
     10 C         -24.6526    1.9099   27.1968 C.ar    1  UNL1        0.0063
     11 C         -24.1184    1.1548   28.2655 C.ar    1  UNL1        0.0760
     12 C         -22.7491    1.4226   28.6667 C.2     1  UNL1        0.3874
     13 O         -21.9113    1.9048   27.7649 O.co2   1  UNL1       -0.2406
     14 O         -22.2620    0.9776   29.8218 O.co2   1  UNL1       -0.2406
     15 C         -27.4065   -2.7532   30.3596 C.3     1  UNL1        0.0984
     16 C         -28.5196   -2.8339   30.6621 C.3     1  UNL1        0.0475
     17 C         -29.0240   -1.6476   31.3080 C.ar    1  UNL1       -0.0244
     18 C         -29.9068   -1.4004   31.7614 C.ar    1  UNL1       -0.0045
     19 C         -30.3383   -0.0947   32.4009 C.ar    1  UNL1       -0.0003
     20 C         -29.4813    0.9827   32.2502 C.ar    1  UNL1       -0.0003
     21 C         -28.2637    0.7526   31.5983 C.ar    1  UNL1       -0.0046
     22 C         -27.9679   -0.5269   31.1817 C.ar    1  UNL1       -0.0257
     23 C         -27.3157   -0.5995   32.6702 C.3     1  UNL1        0.0307
@<TRIPOS>BOND
     1     1     2    2
     2     2     3    1
     3     2     4   am
     4     5     6    1
     5     4     7    1
     6    11    12    1
     7    12    13   ar
     8    12    14   ar
     9     4    15    1
    10    15    16    1
    11    16    17    1
    12    22    23    1
    13     6     7    1
    14    17    18   ar
    15    18    19   ar
    16    19    20   ar
    17    20    21   ar
    18    21    22   ar
    19    22    17   ar
    20     3     8   ar
    21     8     9   ar
    22     9    10   ar
    23    10    11   ar
    24    11     5   ar
    25     5     3   ar
