@<TRIPOS>MOLECULE
No_4765-gen_results/8p0m/2024-11-26-14-13-15/
 24 25 0 0 0
SMALL
GASTEIGER

@<TRIPOS>ATOM
      1 C         -28.0162   -0.8135   28.8779 C.ar    1  UNL1        0.0160
      2 C         -27.0636   -0.1189   28.6079 C.ar    1  UNL1        0.0562
      3 C         -25.7923   -0.4302   29.0761 C.ar    1  UNL1        0.0046
      4 C         -25.5756   -1.5654   29.9363 C.ar    1  UNL1        0.0010
      5 C         -26.7354   -2.3004   30.2173 C.ar    1  UNL1        0.0114
      6 C         -27.9184   -1.9537   29.7629 C.ar    1  UNL1        0.0578
      7 C         -26.8968    1.1016   27.7052 C.2     1  UNL1        0.2688
      8 N         -26.7619    2.0888   27.9466 N.am    1  UNL1       -0.1778
      9 O         -27.5333    0.8628   26.4719 O.2     1  UNL1       -0.2680
     10 C         -26.3627    3.0827   27.5314 C.2     1  UNL1        0.0759
     11 C         -25.5360    3.1782   26.5840 C.2     1  UNL1        0.0142
     12 C         -24.0745    2.9611   26.7198 C.ar    1  UNL1        0.0010
     13 C         -23.5662    2.7148   27.9508 C.ar    1  UNL1        0.0000
     14 C         -22.2231    2.1671   28.0208 C.ar    1  UNL1        0.0000
     15 C         -21.6887    1.7224   26.8164 C.ar    1  UNL1        0.0000
     16 C         -23.2325    2.3248   25.7099 C.ar    1  UNL1        0.0000
     17 C         -22.1544    1.8601   25.7374 C.ar    1  UNL1        0.0000
     18 CL        -29.2549   -2.9045   30.2179 Cl      1  UNL1       -0.0822
     19 C         -26.9257    4.3953   28.0579 C.3     1  UNL1        0.1683
     20 N         -27.1860    4.5585   29.2813 N.2     1  UNL1       -0.2627
     21 C         -27.5874    5.6517   29.8592 C.2     1  UNL1        0.0933
     22 C         -27.8012    5.7800   31.3114 C.2     1  UNL1        0.0156
     23 C         -27.6760    4.9801   32.0134 C.2     1  UNL1       -0.0242
     24 C         -27.1972    3.6020   31.5603 C.3     1  UNL1        0.0307
@<TRIPOS>BOND
     1     2     7    1
     2     7     8   am
     3     7     9    2
     4     8    10    1
     5    10    11    2
     6    11    12    1
     7     6    18    1
     8    10    19    1
     9    19    20    1
    10    20    21    2
    11    21    22    1
    12    22    23    2
    13    23    24    1
    14    12    13   ar
    15    13    14   ar
    16    14    15   ar
    17    15    17   ar
    18    17    16   ar
    19    16    12   ar
    20     1     2   ar
    21     2     3   ar
    22     3     4   ar
    23     4     5   ar
    24     5     6   ar
    25     6     1   ar
