@<TRIPOS>MOLECULE
No_4768-gen_results/8p0m/2024-11-26-14-13-15/
 20 21 0 0 0
SMALL
GASTEIGER

@<TRIPOS>ATOM
      1 C         -28.0162   -0.8135   28.8779 C.3     1  UNL1        0.0741
      2 C         -28.4690   -0.7850   29.8287 C.3     1  UNL1        0.0371
      3 N         -26.6082   -0.9454   28.8569 N.3     1  UNL1       -0.2689
      4 C         -26.0396   -1.5690   29.9264 C.3     1  UNL1        0.0741
      5 C         -28.1711   -1.6084   31.0855 C.3     1  UNL1        0.0757
      6 C         -26.7104   -1.6313   31.1973 C.3     1  UNL1        0.0371
      7 C         -25.7326   -0.6752   27.7626 C.3     1  UNL1        0.0991
      8 C         -24.4949   -0.0497   28.0968 C.ar    1  UNL1       -0.0061
      9 C         -23.5516   -0.5678   28.8540 C.ar    1  UNL1       -0.0029
     10 C         -24.3082    1.2948   27.5371 C.ar    1  UNL1       -0.0029
     11 C         -23.0196    1.9086   27.6611 C.ar    1  UNL1       -0.0003
     12 C         -22.2861    0.0626   29.0696 C.ar    1  UNL1       -0.0003
     13 C         -22.0252    1.2605   28.4254 C.ar    1  UNL1       -0.0000
     14 N         -28.7101   -1.1578   32.3310 N.pl3   1  UNL1       -0.3064
     15 C         -28.3230   -0.2687   33.0163 C.2     1  UNL1        0.0613
     16 C         -29.8946   -1.9480   32.7826 C.3     1  UNL1        0.1122
     17 C         -27.5116    0.6452   32.7703 C.2     1  UNL1        0.0154
     18 C         -27.3080    1.3890   31.9802 C.2     1  UNL1       -0.0033
     19 C         -26.2477    2.4020   31.7599 C.2     1  UNL1       -0.0257
     20 C         -25.2078    2.2681   32.6534 C.3     1  UNL1        0.0307
@<TRIPOS>BOND
     1     1     2    1
     2     1     3    1
     3     3     4    1
     4     2     5    1
     5     5     6    1
     6     3     7    1
     7     7     8    1
     8     5    14    1
     9    14    15    1
    10    14    16    1
    11    15    17    2
    12    17    18    1
    13    18    19    2
    14    19    20    1
    15     6     4    1
    16     8     9   ar
    17     9    12   ar
    18    12    13   ar
    19    13    11   ar
    20    11    10   ar
    21    10     8   ar
