@<TRIPOS>MOLECULE
No_4769-gen_results/8p0m/2024-11-26-14-13-15/
 35 37 0 0 0
SMALL
GASTEIGER

@<TRIPOS>ATOM
      1 C         -28.0162   -0.8135   28.8779 C.ar    1  UNL1        0.0027
      2 C         -28.4690   -0.7850   29.8287 C.ar    1  UNL1        0.0797
      3 C         -28.1960    0.3478   28.0550 C.ar    1  UNL1       -0.0153
      4 C         -29.0191    1.3501   28.3782 C.ar    1  UNL1        0.0026
      5 C         -29.4107    0.1803   30.3782 C.ar    1  UNL1        0.0130
      6 C         -29.6059    1.2495   29.6193 C.ar    1  UNL1        0.0756
      7 C         -27.4597    0.3802   26.7091 C.3     1  UNL1        0.0771
      8 C         -26.0094    0.3317   26.7236 C.ar    1  UNL1       -0.0157
      9 C         -25.3055    0.0239   27.8527 C.ar    1  UNL1       -0.0030
     10 C         -24.2699    0.6212   28.3403 C.ar    1  UNL1        0.0111
     11 C         -23.5537    1.4558   27.3774 C.ar    1  UNL1        0.0577
     12 C         -24.1414    1.7726   26.1490 C.ar    1  UNL1        0.0111
     13 C         -25.4039    1.3290   25.8497 C.ar    1  UNL1       -0.0030
     14 CL        -21.9844    2.0478   27.8139 Cl      1  UNL1       -0.0822
     15 C         -28.1464    0.2189   25.5131 C.3     1  UNL1        0.1690
     16 F         -29.4040    0.2456   25.6418 F       1  UNL1       -0.2366
     17 C         -27.5362    0.0385   24.3444 C.3     1  UNL1        0.0388
     18 C         -30.5366    2.3684   30.0562 C.2     1  UNL1        0.3417
     19 O         -31.3050    2.8643   29.4610 O.2     1  UNL1       -0.2449
     20 O         -30.4552    2.5384   31.4671 O.3     1  UNL1       -0.4352
     21 C         -28.3105   -1.9940   30.8699 C.2     1  UNL1        0.3877
     22 O         -27.7319   -2.9221   30.5855 O.co2   1  UNL1       -0.2406
     23 O         -28.8818   -1.8624   32.0551 O.co2   1  UNL1       -0.2406
     24 C         -31.2681    3.4188   32.0341 C.3     1  UNL1        0.2945
     25 C         -32.3765    2.9405   32.5111 C.2     1  UNL1        0.2863
     26 O         -32.3923    1.8907   33.0119 O.2     1  UNL1       -0.2693
     27 N         -33.5326    3.6745   32.4047 N.am    1  UNL1       -0.1974
     28 C         -34.8283    3.1690   32.8506 C.3     1  UNL1        0.1416
     29 C         -35.8035    3.5914   32.2169 C.ar    1  UNL1       -0.0009
     30 C         -36.6306    3.2368   31.5236 C.ar    1  UNL1       -0.0026
     31 C         -37.7505    3.9149   30.8112 C.ar    1  UNL1       -0.0006
     32 C         -37.8290    5.2842   31.0374 C.ar    1  UNL1       -0.0043
     33 C         -36.9159    5.8853   31.8366 C.ar    1  UNL1       -0.0221
     34 C         -35.8886    5.1790   32.4393 C.ar    1  UNL1       -0.0068
     35 C         -36.9776    7.3479   32.0786 C.3     1  UNL1        0.0310
@<TRIPOS>BOND
     1     3     7    1
     2     7     8    1
     3    11    14    1
     4     7    15    1
     5    15    16    1
     6    15    17    1
     7     6    18    1
     8    18    19    2
     9    18    20    1
    10     2    21    1
    11    21    22   ar
    12    21    23   ar
    13    20    24    1
    14    24    25    1
    15    25    26    2
    16    25    27   am
    17    27    28    1
    18    28    29    1
    19    33    35    1
    20    29    30   ar
    21    30    31   ar
    22    31    32   ar
    23    32    33   ar
    24    33    34   ar
    25    34    29   ar
    26     8     9   ar
    27     9    10   ar
    28    10    11   ar
    29    11    12   ar
    30    12    13   ar
    31    13     8   ar
    32     1     2   ar
    33     2     5   ar
    34     5     6   ar
    35     6     4   ar
    36     4     3   ar
    37     3     1   ar
