@<TRIPOS>MOLECULE
No_477-gen_results/8p0m/2024-11-26-14-13-15/
 14 16 0 0 0
SMALL
GASTEIGER

@<TRIPOS>ATOM
      1 C         -28.0162   -0.8135   28.8779 C.ar    1  UNL1        0.0000
      2 C         -27.0636   -0.1189   28.6079 C.ar    1  UNL1        0.0000
      3 C         -27.0010    0.6913   27.4910 C.ar    1  UNL1        0.0000
      4 C         -25.8548    1.4825   27.0830 C.ar    1  UNL1        0.0000
      5 C         -25.8227    2.3296   25.9941 C.ar    1  UNL1        0.0000
      6 C         -27.9874   -1.6326   30.1036 C.ar    1  UNL1        0.0000
      7 C         -27.0438   -1.9038   30.5336 C.ar    1  UNL1        0.0000
      8 C         -25.7148   -1.4337   30.2468 C.ar    1  UNL1        0.0000
      9 C         -25.7489   -0.5194   29.1527 C.ar    1  UNL1        0.0000
     10 C         -24.6608    3.1246   25.8109 C.ar    1  UNL1        0.0000
     11 C         -23.4985    2.9016   26.5500 C.ar    1  UNL1        0.0000
     12 C         -23.5136    1.9604   27.5494 C.ar    1  UNL1        0.0000
     13 C         -24.6466    1.2336   27.8409 C.ar    1  UNL1        0.0000
     14 C         -24.5619    0.2484   28.7292 C.ar    1  UNL1        0.0000
@<TRIPOS>BOND
     1     2     3   ar
     2     3     4   ar
     3    13    14   ar
     4    14     9   ar
     5     4     5   ar
     6     5    10   ar
     7    10    11   ar
     8    11    12   ar
     9    12    13   ar
    10    13     4   ar
    11     1     2   ar
    12     2     9   ar
    13     9     8   ar
    14     8     7   ar
    15     7     6   ar
    16     6     1   ar
