@<TRIPOS>MOLECULE
No_4770-gen_results/8p0m/2024-11-26-14-13-15/
 26 28 0 0 0
SMALL
GASTEIGER

@<TRIPOS>ATOM
      1 C         -28.0162   -0.8135   28.8779 C.ar    1  UNL1        0.0725
      2 C         -28.4690   -0.7850   29.8287 C.ar    1  UNL1        0.0725
      3 C         -26.5042   -0.7777   28.8766 C.ar    1  UNL1        0.0136
      4 C         -25.8103   -0.8531   30.1028 C.ar    1  UNL1       -0.0196
      5 C         -30.0136   -0.8410   29.8508 C.ar    1  UNL1        0.2656
      6 C         -26.5670   -0.8850   31.2517 C.ar    1  UNL1       -0.0040
      7 C         -27.9411   -0.9069   31.1850 C.ar    1  UNL1        0.0059
      8 O         -30.6563   -1.6921   30.1809 O.2     1  UNL1       -0.2668
      9 N         -30.5701    0.1290   28.9124 N.ar    1  UNL1       -0.2464
     10 C         -31.9489    0.0902   28.6444 C.3     1  UNL1        0.1382
     11 C         -29.8009    0.4523   27.7981 C.ar    1  UNL1        0.3377
     12 N         -28.3755   -0.0176   27.7476 N.ar    1  UNL1       -0.2587
     13 O         -30.1192    0.8972   26.7043 O.2     1  UNL1       -0.2458
     14 C         -27.5641    0.4173   26.6940 C.2     1  UNL1        0.0844
     15 C         -27.3674    1.5865   26.4563 C.2     1  UNL1        0.0192
     16 C         -26.1890    2.3271   27.0666 C.ar    1  UNL1        0.0023
     17 C         -25.9904    3.6787   26.8528 C.ar    1  UNL1        0.0001
     18 C         -24.7738    4.2162   27.2915 C.ar    1  UNL1        0.0009
     19 C         -23.8211    3.4626   27.8238 C.ar    1  UNL1        0.0114
     20 C         -24.9418    1.8359   27.5971 C.ar    1  UNL1        0.0114
     21 C         -23.6925    2.2847   28.0533 C.ar    1  UNL1        0.0577
     22 CL        -22.5369    1.4148   28.7196 Cl      1  UNL1       -0.0822
     23 C         -24.3538   -0.9967   30.1611 C.3     1  UNL1        0.0414
     24 C         -23.6912   -1.8321   29.1846 C.3     1  UNL1        0.0062
     25 C         -23.5233   -0.8133   31.1754 C.3     1  UNL1        0.1136
     26 N         -23.9873   -0.0615   32.2590 N.3     1  UNL1       -0.1310
@<TRIPOS>BOND
     1     2     5   ar
     2     5     8    2
     3     5     9   ar
     4     9    10    1
     5     9    11   ar
     6     1    12   ar
     7    11    12   ar
     8    11    13    2
     9    12    14    1
    10    14    15    2
    11    15    16    1
    12    21    22    1
    13     4    23    1
    14    23    24    1
    15    23    25    1
    16    25    26    1
    17    16    17   ar
    18    17    18   ar
    19    18    19   ar
    20    19    21   ar
    21    21    20   ar
    22    20    16   ar
    23     1     2   ar
    24     2     7   ar
    25     7     6   ar
    26     6     4   ar
    27     4     3   ar
    28     3     1   ar
