@<TRIPOS>MOLECULE
No_4771-gen_results/8p0m/2024-11-26-14-13-15/
 25 29 0 0 0
SMALL
GASTEIGER

@<TRIPOS>ATOM
      1 N         -28.0544   -1.0498   28.7246 N.2     1  UNL1       -0.1526
      2 C         -27.7460   -0.0733   29.0098 C.ar    1  UNL1        0.1004
      3 C         -27.1741    0.7325   28.8254 C.ar    1  UNL1        0.0193
      4 C         -26.9135    2.0291   29.5745 C.ar    1  UNL1        0.0015
      5 C         -27.4918    2.0212   30.8117 C.ar    1  UNL1       -0.0002
      6 C         -28.1878    0.9396   31.2489 C.ar    1  UNL1       -0.0007
      7 C         -28.3179   -0.1035   30.5491 C.ar    1  UNL1        0.0233
      8 C         -26.4733    0.9109   27.4333 C.ar    1  UNL1        0.0059
      9 C         -25.1519    0.5016   27.4386 C.ar    1  UNL1        0.0178
     10 C         -24.4921   -0.0992   28.4341 C.ar    1  UNL1        0.0015
     11 C         -23.0272   -0.2297   28.3852 C.ar    1  UNL1        0.0001
     12 C         -22.3094    0.7079   27.6507 C.ar    1  UNL1        0.0015
     13 C         -22.9847    1.5586   26.7428 C.ar    1  UNL1        0.0191
     14 C         -24.3713    1.5454   26.6696 C.ar    1  UNL1        0.0813
     15 C         -26.8883    1.9970   26.6309 C.ar    1  UNL1        0.0369
     16 N         -25.0846    2.4257   25.9839 N.ar    1  UNL1       -0.2438
     17 C         -26.2990    2.7328   25.8560 C.ar    1  UNL1        0.1003
     18 C         -28.4243    2.2368   26.5282 C.ar    1  UNL1        0.0828
     19 N         -28.9829    3.1020   26.3505 N.ar    1  UNL1       -0.2438
     20 C         -30.4030    3.2081   26.2341 C.ar    1  UNL1        0.0988
     21 C         -29.3132    1.0980   26.8227 C.ar    1  UNL1        0.0192
     22 C         -30.6405    1.1192   26.7481 C.ar    1  UNL1        0.0031
     23 C         -31.1714    2.3119   26.4725 C.ar    1  UNL1        0.0207
     24 C         -28.8917   -1.4333   30.5869 C.3     1  UNL1        0.1771
     25 N         -28.6868   -1.9614   29.4369 N.2     1  UNL1       -0.1696
@<TRIPOS>BOND
     1     1     2    1
     2     3     8    1
     3    15    18    1
     4     7    24    1
     5     1    25    2
     6    24    25    1
     7    18    19   ar
     8    19    20   ar
     9    20    23   ar
    10    23    22   ar
    11    22    21   ar
    12    21    18   ar
    13     2     3   ar
    14     3     4   ar
    15     4     5   ar
    16     5     6   ar
    17     6     7   ar
    18     7     2   ar
    19     9    10   ar
    20    10    11   ar
    21    11    12   ar
    22    12    13   ar
    23    13    14   ar
    24     8     9   ar
    25     9    14   ar
    26    14    16   ar
    27    16    17   ar
    28    17    15   ar
    29    15     8   ar
