@<TRIPOS>MOLECULE
No_4772-gen_results/8p0m/2024-11-26-14-13-15/
 22 23 0 0 0
SMALL
GASTEIGER

@<TRIPOS>ATOM
      1 C         -28.0162   -0.8135   28.8779 C.ar    1  UNL1        0.0038
      2 C         -28.4690   -0.7850   29.8287 C.ar    1  UNL1        0.0795
      3 C         -27.0871    0.2903   28.6377 C.ar    1  UNL1       -0.0032
      4 C         -26.2516    0.4114   27.4223 C.3     1  UNL1        0.1242
      5 C         -28.3913    0.1041   30.9805 C.ar    1  UNL1        0.0104
      6 C         -27.5332    1.1666   30.7866 C.ar    1  UNL1        0.0714
      7 C         -26.8219    1.2845   29.6657 C.ar    1  UNL1        0.0011
      8 CL        -26.8899    0.3314   25.9958 Cl      1  UNL1       -0.1053
      9 C         -24.8057    0.5343   27.5743 C.ar    1  UNL1       -0.0032
     10 C         -24.2104    1.6596   26.9602 C.ar    1  UNL1        0.0005
     11 C         -22.7700    1.7577   27.1254 C.ar    1  UNL1        0.0418
     12 C         -22.1428    0.9603   28.0869 C.ar    1  UNL1        0.1957
     13 C         -24.1398   -0.2066   28.5490 C.ar    1  UNL1        0.0005
     14 C         -22.7670    0.0167   28.8082 C.ar    1  UNL1        0.0418
     15 O         -20.8421    1.1888   28.3149 O.3     1  UNL1       -0.2866
     16 C         -29.4790   -2.0058   30.2409 C.2     1  UNL1        0.3877
     17 O         -30.0533   -1.9601   31.3216 O.co2   1  UNL1       -0.2406
     18 O         -29.7572   -2.7860   29.3572 O.co2   1  UNL1       -0.2406
     19 C         -27.3560    2.1580   31.8957 C.3     1  UNL1        0.4186
     20 F         -27.8638    3.0919   31.7988 F       1  UNL1       -0.1659
     21 F         -25.9596    2.3872   31.9836 F       1  UNL1       -0.1659
     22 F         -27.5909    1.4945   33.0781 F       1  UNL1       -0.1659
@<TRIPOS>BOND
     1     3     4    1
     2     4     8    1
     3     4     9    1
     4    12    15    1
     5     2    16    1
     6    16    17   ar
     7    16    18   ar
     8     6    19    1
     9    19    20    1
    10    19    21    1
    11    19    22    1
    12     1     2   ar
    13     2     5   ar
    14     5     6   ar
    15     6     7   ar
    16     7     3   ar
    17     3     1   ar
    18     9    10   ar
    19    10    11   ar
    20    11    12   ar
    21    12    14   ar
    22    14    13   ar
    23    13     9   ar
