@<TRIPOS>MOLECULE
No_4773-gen_results/8p0m/2024-11-26-14-13-15/
 18 20 0 0 0
SMALL
GASTEIGER

@<TRIPOS>ATOM
      1 C         -28.0162   -0.8135   28.8779 C.ar    1  UNL1        0.0006
      2 C         -27.0636   -0.1190   28.6079 C.ar    1  UNL1       -0.0034
      3 C         -27.0010    0.6913   27.4910 C.ar    1  UNL1        0.0006
      4 C         -28.1373    0.7363   26.6350 C.ar    1  UNL1        0.0418
      5 C         -29.2360    0.0765   27.0690 C.ar    1  UNL1        0.1957
      6 C         -29.2177   -0.6429   28.1747 C.ar    1  UNL1        0.0418
      7 O         -30.3423    0.1617   26.2790 O.3     1  UNL1       -0.2866
      8 C         -25.7291   -0.2039   29.3995 C.3     1  UNL1        0.1029
      9 N         -25.3146    0.8996   30.0369 N.3     1  UNL1       -0.2645
     10 C         -24.3041    1.6669   29.7728 C.3     1  UNL1        0.0803
     11 C         -24.1949    2.8897   30.4505 C.3     1  UNL1        0.0205
     12 C         -23.3206    1.3420   28.7732 C.2     1  UNL1       -0.0105
     13 C         -22.6307    0.2189   28.8613 C.2     1  UNL1       -0.0035
     14 C         -24.6162   -0.7466   28.6382 C.2     1  UNL1       -0.0060
     15 C         -23.3251   -0.7596   28.4826 C.2     1  UNL1       -0.0032
     16 C         -26.1632    1.1816   31.1872 C.3     1  UNL1        0.0729
     17 C         -26.1758    2.4973   31.7184 C.3     1  UNL1        0.0174
     18 C         -24.9870    3.2532   31.5466 C.3     1  UNL1        0.0032
@<TRIPOS>BOND
     1     5     7    1
     2     2     8    1
     3     8     9    1
     4     9    10    1
     5    10    12    1
     6    12    13    2
     7     8    14    1
     8    13    15    1
     9    14    15    2
    10     9    16    1
    11    11    18    1
    12    17    18    1
    13    10    11    1
    14    17    16    1
    15     1     2   ar
    16     2     3   ar
    17     3     4   ar
    18     4     5   ar
    19     5     6   ar
    20     6     1   ar
