@<TRIPOS>MOLECULE
No_4774-gen_results/8p0m/2024-11-26-14-13-15/
 22 24 0 0 0
SMALL
GASTEIGER

@<TRIPOS>ATOM
      1 C         -28.0162   -0.8135   28.8779 C.ar    1  UNL1        0.0046
      2 C         -27.0636   -0.1189   28.6079 C.ar    1  UNL1        0.0001
      3 C         -25.7647   -0.3897   29.0360 C.ar    1  UNL1        0.0001
      4 C         -25.5296   -1.5302   29.9014 C.ar    1  UNL1        0.0001
      5 C         -26.6577   -2.2915   30.2035 C.ar    1  UNL1        0.0046
      6 C         -27.8548   -1.9555   29.7630 C.ar    1  UNL1        0.0554
      7 C         -24.5441    0.4126   28.7379 C.ar    1  UNL1        0.0032
      8 C         -24.4731    1.2065   27.7114 C.ar    1  UNL1        0.0420
      9 C         -23.2779    1.8420   27.3661 C.ar    1  UNL1        0.1957
     10 C         -22.0929    1.6644   28.0344 C.ar    1  UNL1        0.0420
     11 C         -23.3031    0.1394   29.4701 C.ar    1  UNL1        0.0002
     12 C         -22.0943    0.7975   29.1026 C.ar    1  UNL1        0.0033
     13 C         -29.0212   -2.7980   30.1782 C.2     1  UNL1        0.2690
     14 N         -30.1570   -2.3570   30.1783 N.am    1  UNL1       -0.1754
     15 O         -28.7971   -3.9850   30.6082 O.2     1  UNL1       -0.2680
     16 C         -31.3606   -3.1348   30.5504 C.ar    1  UNL1        0.0737
     17 C         -31.4791   -3.9956   31.1457 C.ar    1  UNL1        0.0166
     18 C         -32.5342   -2.4103   29.8952 C.ar    1  UNL1        0.0166
     19 C         -32.7823   -4.6653   31.4228 C.ar    1  UNL1        0.0013
     20 C         -33.7711   -3.0375   30.1231 C.ar    1  UNL1        0.0013
     21 C         -33.8672   -4.1141   30.9146 C.ar    1  UNL1        0.0001
     22 O         -23.2915    2.7428   26.3156 O.3     1  UNL1       -0.2866
@<TRIPOS>BOND
     1     3     7    1
     2     6    13    1
     3    13    14   am
     4    13    15    2
     5    14    16    1
     6     9    22    1
     7     7     8   ar
     8     8     9   ar
     9     9    10   ar
    10    10    12   ar
    11    12    11   ar
    12    11     7   ar
    13     1     2   ar
    14     2     3   ar
    15     3     4   ar
    16     4     5   ar
    17     5     6   ar
    18     6     1   ar
    19    16    17   ar
    20    17    19   ar
    21    19    21   ar
    22    21    20   ar
    23    20    18   ar
    24    18    16   ar
