@<TRIPOS>MOLECULE
No_4776-gen_results/8p0m/2024-11-26-14-13-15/
 10 10 0 0 0
SMALL
GASTEIGER

@<TRIPOS>ATOM
      1 C         -28.0162   -0.8135   28.8779 C.ar    1  UNL1       -0.0003
      2 C         -28.4690   -0.7850   29.8287 C.ar    1  UNL1       -0.0000
      3 C         -27.0871    0.2903   28.6377 C.ar    1  UNL1       -0.0039
      4 C         -26.0239    0.3644   29.2526 C.ar    1  UNL1       -0.0178
      5 C         -24.9536    1.2659   28.9526 C.3     1  UNL1        0.0520
      6 C         -27.5327   -0.7046   31.0831 C.ar    1  UNL1       -0.0003
      7 C         -26.3981    0.1684   30.7584 C.ar    1  UNL1       -0.0039
      8 C         -23.7596    0.9754   29.4734 C.2     1  UNL1       -0.0260
      9 C         -22.5149    1.4801   28.9209 C.2     1  UNL1       -0.0300
     10 C         -22.5543    2.0966   27.6589 C.3     1  UNL1        0.0304
@<TRIPOS>BOND
     1     5     8    1
     2     8     9    2
     3     9    10    1
     4     5     4    1
     5     1     2   ar
     6     2     6   ar
     7     6     7   ar
     8     7     4   ar
     9     4     3   ar
    10     3     1   ar
