@<TRIPOS>MOLECULE
No_4777-gen_results/8p0m/2024-11-26-14-13-15/
 7 6 0 0 0
SMALL
GASTEIGER

@<TRIPOS>ATOM
      1 C         -28.0162   -0.8135   28.8779 C.2     1  UNL1       -0.0049
      2 C         -27.0636   -0.1189   28.6079 C.2     1  UNL1       -0.0049
      3 C         -26.9287    1.1713   29.0083 C.2     1  UNL1       -0.0261
      4 C         -27.9560    1.7411   29.7840 C.3     1  UNL1        0.0260
      5 C         -29.0569   -0.3271   29.7466 C.2     1  UNL1       -0.0258
      6 C         -28.9828    0.9722   30.1516 C.3     1  UNL1        0.0050
      7 C         -30.1370   -1.2384   30.1281 C.3     1  UNL1        0.0307
@<TRIPOS>BOND
     1     1     2    1
     2     2     3    2
     3     3     4    1
     4     1     5    2
     5     4     6    1
     6     5     7    1
