@<TRIPOS>MOLECULE
No_4778-gen_results/8p0m/2024-11-26-14-13-15/
 27 29 0 0 0
SMALL
GASTEIGER

@<TRIPOS>ATOM
      1 C         -28.0162   -0.8135   28.8779 C.3     1  UNL1        0.1116
      2 C         -27.0636   -0.1190   28.6079 C.ar    1  UNL1       -0.0131
      3 C         -25.7923   -0.4302   29.0761 C.ar    1  UNL1       -0.0035
      4 C         -24.5456    0.3494   28.8225 C.ar    1  UNL1        0.0077
      5 C         -24.6586    1.4196   27.8878 C.ar    1  UNL1        0.0975
      6 C         -25.9471    1.6811   27.3792 C.ar    1  UNL1        0.0077
      7 C         -26.8806    0.9300   27.7124 C.ar    1  UNL1       -0.0035
      8 C         -28.0928   -1.4808   30.2234 C.2     1  UNL1        0.2301
      9 N         -29.1781   -2.1384   30.5852 N.am    1  UNL1       -0.2792
     10 C         -23.4294    2.1633   27.6072 C.2     1  UNL1        0.4766
     11 N         -22.5051    1.8089   27.2147 N.pl3   1  UNL1        0.2047
     12 N         -23.6767    3.5737   27.5476 N.pl3   1  UNL1        0.2047
     13 C         -29.1557   -3.2590   31.2705 C.3     1  UNL1        0.0937
     14 C         -30.4664   -1.6176   30.3698 C.3     1  UNL1        0.0937
     15 C         -31.4937   -2.4558   30.3545 C.3     1  UNL1        0.0259
     16 C         -30.1739   -4.2535   31.2455 C.3     1  UNL1        0.0259
     17 C         -31.4285   -3.7117   30.9656 C.3     1  UNL1        0.0257
     18 O         -27.3548   -0.9029   31.1618 O.2     1  UNL1       -0.2745
     19 C         -32.5854   -4.6237   31.0459 C.ar    1  UNL1       -0.0224
     20 C         -32.5976   -5.6638   30.8429 C.ar    1  UNL1       -0.0043
     21 C         -33.7272   -6.6437   30.9721 C.ar    1  UNL1       -0.0003
     22 C         -34.9289   -6.0064   31.2876 C.ar    1  UNL1       -0.0000
     23 C         -34.9627   -4.6929   31.5020 C.ar    1  UNL1       -0.0006
     24 C         -33.8150   -3.8745   31.4279 C.ar    1  UNL1       -0.0043
     25 C         -36.2351   -4.0245   31.8883 C.2     1  UNL1       -0.0046
     26 C         -36.8306   -4.3494   32.9831 C.2     1  UNL1       -0.0258
     27 C         -38.0715   -3.7086   33.3408 C.3     1  UNL1        0.0307
@<TRIPOS>BOND
     1     1     2    1
     2     1     8    1
     3     8     9   am
     4     5    10    1
     5    10    11    2
     6    10    12    1
     7     9    13    1
     8     9    14    1
     9    15    17    1
    10    16    17    1
    11     8    18    2
    12    17    19    1
    13    23    25    1
    14    25    26    2
    15    26    27    1
    16    13    16    1
    17    15    14    1
    18     2     3   ar
    19     3     4   ar
    20     4     5   ar
    21     5     6   ar
    22     6     7   ar
    23     7     2   ar
    24    19    20   ar
    25    20    21   ar
    26    21    22   ar
    27    22    23   ar
    28    23    24   ar
    29    24    19   ar
