@<TRIPOS>MOLECULE
No_4779-gen_results/8p0m/2024-11-26-14-13-15/
 12 13 0 0 0
SMALL
GASTEIGER

@<TRIPOS>ATOM
      1 C         -28.0162   -0.8135   28.8779 C.ar    1  UNL1        0.0013
      2 C         -27.0636   -0.1189   28.6079 C.ar    1  UNL1        0.0001
      3 C         -26.9716    0.7139   27.5060 C.ar    1  UNL1        0.0013
      4 C         -28.1053    0.7744   26.6421 C.ar    1  UNL1        0.0145
      5 C         -29.2008    0.1044   27.0527 C.ar    1  UNL1        0.0478
      6 C         -29.2096   -0.6029   28.1853 C.ar    1  UNL1        0.0145
      7 N         -30.3077    0.2215   26.2218 N.pl3   1  UNL1       -0.3075
      8 C         -31.0284    1.0864   26.0542 C.3     1  UNL1        0.0908
      9 C         -32.1305    1.0546   25.1140 C.3     1  UNL1        0.0215
     10 C         -30.9482   -0.9153   25.6601 C.3     1  UNL1        0.0908
     11 C         -31.8926   -1.0266   24.8463 C.3     1  UNL1        0.0215
     12 C         -32.5858    0.0619   24.5794 C.3     1  UNL1        0.0035
@<TRIPOS>BOND
     1     5     7    1
     2     7     8    1
     3     7    10    1
     4     9    12    1
     5    11    12    1
     6     8     9    1
     7    11    10    1
     8     1     2   ar
     9     2     3   ar
    10     3     4   ar
    11     4     5   ar
    12     5     6   ar
    13     6     1   ar
