@<TRIPOS>MOLECULE
No_478-gen_results/8p0m/2024-11-26-14-13-15/
 27 30 0 0 0
SMALL
GASTEIGER

@<TRIPOS>ATOM
      1 C         -28.0162   -0.8135   28.8779 C.ar    1  UNL1        0.0006
      2 C         -28.4690   -0.7850   29.8287 C.ar    1  UNL1        0.0533
      3 C         -26.5042   -0.7777   28.8766 C.ar    1  UNL1       -0.0176
      4 C         -25.6540   -0.6597   27.7191 C.3     1  UNL1        0.0526
      5 C         -27.9180   -0.9374   31.1824 C.ar    1  UNL1        0.0045
      6 C         -26.5424   -0.9399   31.2606 C.ar    1  UNL1       -0.0002
      7 C         -25.7832   -0.8935   30.1201 C.ar    1  UNL1       -0.0039
      8 C         -25.2134    0.6923   27.3830 C.ar    1  UNL1       -0.0178
      9 C         -23.9202    0.9215   27.7698 C.ar    1  UNL1       -0.0039
     10 C         -23.3388    2.2190   27.3686 C.ar    1  UNL1       -0.0003
     11 C         -24.0306    3.0764   26.5942 C.ar    1  UNL1       -0.0000
     12 C         -25.8722    1.5315   26.5194 C.ar    1  UNL1       -0.0036
     13 C         -27.1769    1.1280   26.0995 C.ar    1  UNL1       -0.0003
     14 C         -25.3138    2.7129   26.1287 C.ar    1  UNL1       -0.0003
     15 C         -28.1022    2.0903   25.8879 C.ar    1  UNL1       -0.0000
     16 C         -29.4191    1.7517   25.4129 C.ar    1  UNL1       -0.0000
     17 C         -29.6558    0.4429   25.1161 C.ar    1  UNL1       -0.0000
     18 C         -28.6877   -0.5205   25.1156 C.ar    1  UNL1       -0.0000
     19 C         -27.3960   -0.1490   25.6238 C.ar    1  UNL1       -0.0000
     20 C         -30.0906   -0.6886   29.8611 C.2     1  UNL1        0.2490
     21 O         -30.7018   -1.6856   29.8770 O.2     1  UNL1       -0.2699
     22 N         -30.6344    0.5654   29.7427 N.am    1  UNL1       -0.2761
     23 C         -29.9570    1.8378   29.7603 C.3     1  UNL1        0.0937
     24 C         -30.7567    2.9213   29.3608 C.3     1  UNL1        0.0216
     25 C         -32.0090    2.7099   28.9770 C.3     1  UNL1        0.0035
     26 C         -32.6079    1.4994   28.9255 C.3     1  UNL1        0.0216
     27 C         -31.8877    0.4313   29.2351 C.3     1  UNL1        0.0937
@<TRIPOS>BOND
     1     3     4    1
     2     4     8    1
     3    12    13    1
     4     2    20    1
     5    20    21    2
     6    20    22   am
     7    22    23    1
     8    24    25    1
     9    22    27    1
    10    26    27    1
    11    23    24    1
    12    25    26    1
    13    13    15   ar
    14    15    16   ar
    15    16    17   ar
    16    17    18   ar
    17    18    19   ar
    18    19    13   ar
    19     8     9   ar
    20     9    10   ar
    21    10    11   ar
    22    11    14   ar
    23    14    12   ar
    24    12     8   ar
    25     1     2   ar
    26     2     5   ar
    27     5     6   ar
    28     6     7   ar
    29     7     3   ar
    30     3     1   ar
