@<TRIPOS>MOLECULE
No_4780-gen_results/8p0m/2024-11-26-14-13-15/
 21 22 0 0 0
SMALL
GASTEIGER

@<TRIPOS>ATOM
      1 F         -28.0727   -1.2542   28.5316 F       1  UNL1       -0.2045
      2 C         -28.2662   -0.4214   29.1931 C.ar    1  UNL1        0.1365
      3 C         -27.2356   -0.0574   30.0145 C.ar    1  UNL1        0.0105
      4 C         -27.2606    1.1013   30.9347 C.ar    1  UNL1        0.0097
      5 C         -29.4969    0.3179   29.2904 C.ar    1  UNL1        0.0302
      6 C         -29.5573    1.4396   30.2037 C.ar    1  UNL1        0.0137
      7 C         -28.4535    1.8015   31.0013 C.ar    1  UNL1        0.0575
      8 CL        -28.5487    3.1205   32.0457 Cl      1  UNL1       -0.0823
      9 C         -25.9334   -0.7600   30.0079 C.3     1  UNL1        0.0549
     10 C         -24.9694   -0.3562   29.0514 C.ar    1  UNL1       -0.0180
     11 C         -23.7050   -0.7702   29.2343 C.ar    1  UNL1       -0.0040
     12 C         -22.5853   -0.2324   28.4647 C.ar    1  UNL1       -0.0006
     13 C         -22.8873    0.7765   27.5142 C.ar    1  UNL1       -0.0043
     14 C         -24.2418    1.1851   27.3358 C.ar    1  UNL1       -0.0222
     15 C         -25.2790    0.6957   28.1303 C.ar    1  UNL1       -0.0082
     16 C         -24.4638    2.3067   26.3865 C.3     1  UNL1        0.0310
     17 C         -24.9832    3.4089   26.7815 C.3     1  UNL1        0.0308
     18 C         -25.2924    3.6608   28.0069 C.2     1  UNL1       -0.0241
     19 C         -25.7924    4.9373   28.5127 C.2     1  UNL1        0.0179
     20 C         -26.2353    5.1252   29.8488 C.2     1  UNL1        0.1218
     21 N         -26.9310    6.1436   30.1721 N.2     1  UNL1       -0.1464
@<TRIPOS>BOND
     1     1     2    1
     2     7     8    1
     3     3     9    1
     4     9    10    1
     5    14    16    1
     6    16    17    1
     7    17    18    1
     8    18    19    2
     9    19    20    1
    10    20    21    2
    11    10    11   ar
    12    11    12   ar
    13    12    13   ar
    14    13    14   ar
    15    14    15   ar
    16    15    10   ar
    17     2     3   ar
    18     3     4   ar
    19     4     7   ar
    20     7     6   ar
    21     6     5   ar
    22     5     2   ar
