@<TRIPOS>MOLECULE
No_4781-gen_results/8p0m/2024-11-26-14-13-15/
 17 19 0 0 0
SMALL
GASTEIGER

@<TRIPOS>ATOM
      1 C         -28.0162   -0.8135   28.8779 C.ar    1  UNL1        0.0293
      2 C         -27.0636   -0.1189   28.6079 C.ar    1  UNL1       -0.0017
      3 C         -25.7923   -0.4302   29.0761 C.ar    1  UNL1       -0.0189
      4 C         -25.5756   -1.5654   29.9363 C.ar    1  UNL1       -0.0017
      5 C         -26.7354   -2.3004   30.2173 C.ar    1  UNL1        0.0293
      6 C         -27.9184   -1.9537   29.7629 C.ar    1  UNL1        0.1401
      7 F         -28.9649   -2.6957   30.0722 F       1  UNL1       -0.2042
      8 C         -24.6808    0.5315   28.7646 C.3     1  UNL1        0.0377
      9 C         -24.6691    1.7998   29.3181 C.ar    1  UNL1       -0.0230
     10 C         -25.1496    2.0384   30.4117 C.ar    1  UNL1       -0.0043
     11 C         -25.2218    3.4285   30.9586 C.ar    1  UNL1       -0.0003
     12 C         -25.6339    4.4386   30.0966 C.ar    1  UNL1       -0.0003
     13 C         -25.2363    4.1952   28.7510 C.ar    1  UNL1       -0.0046
     14 C         -25.2291    2.8343   28.2529 C.ar    1  UNL1       -0.0258
     15 C         -23.3080   -0.1021   29.3580 C.3     1  UNL1        0.0088
     16 C         -24.5314    0.5815   27.2581 C.3     1  UNL1        0.0128
     17 C         -24.7602    2.4502   26.9761 C.3     1  UNL1        0.0267
@<TRIPOS>BOND
     1     6     7    1
     2     3     8    1
     3     8     9    1
     4     8    15    1
     5     8    16    1
     6    14    17    1
     7    16    17    1
     8     1     2   ar
     9     2     3   ar
    10     3     4   ar
    11     4     5   ar
    12     5     6   ar
    13     6     1   ar
    14     9    10   ar
    15    10    11   ar
    16    11    12   ar
    17    12    13   ar
    18    13    14   ar
    19    14     9   ar
