@<TRIPOS>MOLECULE
No_4782-gen_results/8p0m/2024-11-26-14-13-15/
 13 14 0 0 0
SMALL
GASTEIGER

@<TRIPOS>ATOM
      1 C         -28.0162   -0.8135   28.8779 C.ar    1  UNL1       -0.0039
      2 C         -28.4690   -0.7850   29.8287 C.ar    1  UNL1       -0.0003
      3 C         -26.5455   -0.8762   28.8500 C.ar    1  UNL1       -0.0178
      4 C         -25.6825   -0.7773   27.6829 C.3     1  UNL1        0.0526
      5 C         -27.9181   -1.0034   31.1877 C.ar    1  UNL1       -0.0000
      6 C         -26.5308   -1.0794   31.2463 C.ar    1  UNL1       -0.0003
      7 C         -25.7798   -1.0462   30.0905 C.ar    1  UNL1       -0.0039
      8 C         -25.2322    0.5793   27.3292 C.ar    1  UNL1       -0.0178
      9 C         -23.9816    0.8698   27.7676 C.ar    1  UNL1       -0.0039
     10 C         -23.4121    2.1477   27.3881 C.ar    1  UNL1       -0.0003
     11 C         -24.0639    2.9854   26.5439 C.ar    1  UNL1       -0.0000
     12 C         -25.8821    1.3934   26.4161 C.ar    1  UNL1       -0.0039
     13 C         -25.3273    2.5768   26.0292 C.ar    1  UNL1       -0.0003
@<TRIPOS>BOND
     1     3     4    1
     2     4     8    1
     3     1     2   ar
     4     2     5   ar
     5     5     6   ar
     6     6     7   ar
     7     7     3   ar
     8     3     1   ar
     9     8     9   ar
    10     9    10   ar
    11    10    11   ar
    12    11    13   ar
    13    13    12   ar
    14    12     8   ar
