@<TRIPOS>MOLECULE
No_4783-gen_results/8p0m/2024-11-26-14-13-15/
 15 16 0 0 0
SMALL
GASTEIGER

@<TRIPOS>ATOM
      1 C         -28.0162   -0.8135   28.8779 C.ar    1  UNL1        0.0000
      2 C         -28.4690   -0.7850   29.8287 C.ar    1  UNL1        0.0000
      3 C         -27.1356    0.2359   28.5352 C.ar    1  UNL1        0.0005
      4 C         -26.8745    1.2825   29.3982 C.ar    1  UNL1        0.0000
      5 C         -27.5070    1.2380   30.6295 C.ar    1  UNL1        0.0000
      6 C         -28.3269    0.1637   30.9240 C.ar    1  UNL1        0.0000
      7 C         -26.4007    0.2985   27.2217 C.2     1  UNL1        0.0067
      8 C         -26.6927    0.8617   26.3033 C.2     1  UNL1        0.0346
      9 C         -27.8889    1.7130   26.3140 C.ar    1  UNL1        0.0062
     10 C         -28.1176    2.4355   27.1531 C.ar    1  UNL1        0.0005
     11 C         -29.3693    3.1586   27.1039 C.ar    1  UNL1        0.0000
     12 C         -30.1130    3.1469   25.9263 C.ar    1  UNL1        0.0000
     13 C         -28.7207    1.6565   25.0923 C.ar    1  UNL1        0.0005
     14 C         -29.7839    2.3446   24.9350 C.ar    1  UNL1        0.0000
     15 BR        -25.7225    0.5982   24.6442 Br      1  UNL1       -0.0490
@<TRIPOS>BOND
     1     3     7    1
     2     7     8    2
     3     8     9    1
     4     8    15    1
     5     1     2   ar
     6     2     6   ar
     7     6     5   ar
     8     5     4   ar
     9     4     3   ar
    10     3     1   ar
    11     9    10   ar
    12    10    11   ar
    13    11    12   ar
    14    12    14   ar
    15    14    13   ar
    16    13     9   ar
