@<TRIPOS>MOLECULE
No_4784-gen_results/8p0m/2024-11-26-14-13-15/
 19 20 0 0 0
SMALL
GASTEIGER

@<TRIPOS>ATOM
      1 C         -28.0162   -0.8135   28.8779 C.2     1  UNL1        0.0935
      2 C         -27.0636   -0.1190   28.6079 C.ar    1  UNL1        0.0187
      3 C         -26.9716    0.7139   27.5060 C.ar    1  UNL1        0.0016
      4 C         -25.8205    1.4909   27.1160 C.ar    1  UNL1        0.0014
      5 C         -24.6562    1.4242   27.9180 C.ar    1  UNL1        0.0179
      6 C         -24.6847    0.5901   29.0659 C.ar    1  UNL1        0.0014
      7 C         -25.8099   -0.1265   29.3338 C.ar    1  UNL1        0.0016
      8 N         -27.9680   -1.6901   30.0059 N.2     1  UNL1       -0.2641
      9 CA        -23.4770    2.1906   27.6036 C.2     1  UNL1        0.1136
     10 N         -23.4101    2.7471   26.3916 N.2     1  UNL1       -0.1500
     11 C         -22.2048    1.9405   28.2418 C.3     1  UNL1        0.2292
     12 C         -29.0577   -2.4158   30.3883 C.3     1  UNL1        0.1519
     13 O         -22.1862    1.3528   29.3378 O.3     1  UNL1       -0.2134
     14 C         -30.2288   -2.0416   29.9097 C.ar    1  UNL1        0.0020
     15 C         -31.3143   -2.8603   30.2460 C.ar    1  UNL1       -0.0023
     16 C         -32.5726   -2.5792   29.6579 C.ar    1  UNL1       -0.0003
     17 C         -32.6555   -1.4490   28.8041 C.ar    1  UNL1       -0.0000
     18 C         -31.5922   -0.6877   28.5166 C.ar    1  UNL1       -0.0003
     19 C         -30.3364   -1.0126   29.0757 C.ar    1  UNL1       -0.0023
@<TRIPOS>BOND
     1     1     8    2
     2     5     9    1
     3     9    10    2
     4     9    11    1
     5     8    12    1
     6    11    13    1
     7    12    14    1
     8     1     2    1
     9     2     3   ar
    10     3     4   ar
    11     4     5   ar
    12     5     6   ar
    13     6     7   ar
    14     7     2   ar
    15    14    15   ar
    16    15    16   ar
    17    16    17   ar
    18    17    18   ar
    19    18    19   ar
    20    19    14   ar
