@<TRIPOS>MOLECULE
No_4785-gen_results/8p0m/2024-11-26-14-13-15/
 13 13 0 0 0
SMALL
GASTEIGER

@<TRIPOS>ATOM
      1 C         -28.0162   -0.8135   28.8779 C.ar    1  UNL1       -0.0031
      2 C         -28.4690   -0.7850   29.8287 C.ar    1  UNL1       -0.0003
      3 C         -27.0871    0.2903   28.6377 C.ar    1  UNL1       -0.0079
      4 C         -26.8317    1.2487   29.5869 C.ar    1  UNL1       -0.0031
      5 C         -28.3914    0.0801   31.0065 C.ar    1  UNL1       -0.0000
      6 C         -27.4940    1.1521   30.7841 C.ar    1  UNL1       -0.0003
      7 C         -26.3844    0.1867   27.3577 C.3     1  UNL1        0.1011
      8 BR        -24.6518    0.0557   27.3041 Br      1  UNL1       -0.0720
      9 C         -27.0171    0.4552   26.0907 C.2     1  UNL1       -0.0107
     10 C         -27.0575    1.4724   25.5719 C.2     1  UNL1       -0.0037
     11 C         -27.8352    2.2537   25.3785 C.2     1  UNL1       -0.0049
     12 C         -29.2186    2.0509   25.5012 C.2     1  UNL1       -0.0258
     13 C         -29.5143    0.6876   25.5545 C.3     1  UNL1        0.0307
@<TRIPOS>BOND
     1     3     7    1
     2     7     8    1
     3     7     9    1
     4     9    10    2
     5    10    11    1
     6    11    12    2
     7    12    13    1
     8     1     2   ar
     9     2     5   ar
    10     5     6   ar
    11     6     4   ar
    12     4     3   ar
    13     3     1   ar
