@<TRIPOS>MOLECULE
No_4786-gen_results/8p0m/2024-11-26-14-13-15/
 16 17 0 0 0
SMALL
GASTEIGER

@<TRIPOS>ATOM
      1 C         -28.0162   -0.8135   28.8779 C.ar    1  UNL1        0.0016
      2 C         -27.0636   -0.1189   28.6079 C.ar    1  UNL1        0.0177
      3 C         -26.9716    0.7139   27.5060 C.ar    1  UNL1        0.0016
      4 C         -28.1053    0.7744   26.6421 C.ar    1  UNL1        0.0046
      5 C         -29.2008    0.1044   27.0527 C.ar    1  UNL1        0.0550
      6 C         -29.2096   -0.6029   28.1853 C.ar    1  UNL1        0.0046
      7 C         -30.3702    0.2264   26.1604 C.2     1  UNL1        0.2648
      8 O         -30.3387    0.2161   24.9661 O.2     1  UNL1       -0.2684
      9 N         -31.5967   -0.2850   26.7546 N.am    1  UNL1       -0.1998
     10 C         -32.7227   -0.4164   25.9287 C.3     1  UNL1        0.1388
     11 C         -25.7085   -0.2217   29.4293 C.ar    1  UNL1        0.0813
     12 N         -24.8786   -1.1855   29.1854 N.ar    1  UNL1       -0.2438
     13 C         -23.7082   -1.3473   29.4057 C.ar    1  UNL1        0.0988
     14 C         -22.9592   -0.1878   29.7887 C.ar    1  UNL1        0.0207
     15 C         -23.7184    0.9562   30.2304 C.ar    1  UNL1        0.0031
     16 C         -25.1014    1.0091   29.8570 C.ar    1  UNL1        0.0191
@<TRIPOS>BOND
     1     5     7    1
     2     7     8    2
     3     7     9   am
     4     9    10    1
     5     2    11    1
     6    11    12   ar
     7    12    13   ar
     8    13    14   ar
     9    14    15   ar
    10    15    16   ar
    11    16    11   ar
    12     1     2   ar
    13     2     3   ar
    14     3     4   ar
    15     4     5   ar
    16     5     6   ar
    17     6     1   ar
