@<TRIPOS>MOLECULE
No_4787-gen_results/8p0m/2024-11-26-14-13-15/
 35 38 0 0 0
SMALL
GASTEIGER

@<TRIPOS>ATOM
      1 C         -28.0162   -0.8135   28.8779 C.3     1  UNL1        0.2643
      2 C         -27.0636   -0.1190   28.6079 C.ar    1  UNL1        0.0296
      3 C         -27.0010    0.6913   27.4910 C.ar    1  UNL1        0.0000
      4 C         -25.8548    1.4825   27.0830 C.ar    1  UNL1        0.0037
      5 C         -24.6901    1.4526   27.8807 C.ar    1  UNL1        0.0714
      6 C         -24.7379    0.6010   29.0416 C.ar    1  UNL1        0.0037
      7 C         -25.8234   -0.1688   29.3887 C.ar    1  UNL1        0.0000
      8 N         -29.2150   -0.1726   29.0132 N.pl3   1  UNL1       -0.2571
      9 C         -29.7200    0.5474   28.3236 C.ar    1  UNL1        0.0540
     10 C         -30.5805    0.3315   27.5838 C.ar    1  UNL1        0.0149
     11 C         -31.0431    1.1004   26.4559 C.ar    1  UNL1        0.0013
     12 C         -30.4958    2.4244   26.4358 C.ar    1  UNL1        0.0001
     13 C         -29.5250    2.8237   27.2761 C.ar    1  UNL1        0.0012
     14 C         -29.0593    1.9193   28.1730 C.ar    1  UNL1        0.0149
     15 F         -27.9579   -2.0423   29.0186 F       1  UNL1       -0.2093
     16 C         -30.0179   -0.5676   30.2851 C.ar    1  UNL1        0.0540
     17 C         -23.5029    2.1395   27.5137 C.3     1  UNL1        0.4186
     18 F         -23.5355    2.8490   26.5707 F       1  UNL1       -0.1659
     19 F         -22.9789    2.8656   28.5421 F       1  UNL1       -0.1659
     20 F         -22.4840    1.1820   27.3126 F       1  UNL1       -0.1659
     21 C         -30.9379   -1.4452   30.1586 C.ar    1  UNL1        0.0149
     22 C         -31.3970   -1.9364   31.2611 C.ar    1  UNL1        0.0013
     23 C         -29.6334    0.0213   31.4387 C.ar    1  UNL1        0.0149
     24 C         -30.1504   -0.3439   32.5975 C.ar    1  UNL1        0.0013
     25 C         -31.1160   -1.3828   32.5462 C.ar    1  UNL1        0.0001
     26 C         -28.9762    4.1921   27.1992 C.2     1  UNL1        0.0000
     27 C         -27.6671    4.3431   27.4106 C.2     1  UNL1        0.0000
     28 C         -27.0394    5.6780   27.3744 C.ar    1  UNL1        0.0000
     29 C         -25.6434    5.8741   27.6229 C.ar    1  UNL1        0.0000
     30 C         -25.0614    7.1331   27.5694 C.ar    1  UNL1        0.0000
     31 C         -25.8841    8.2420   27.2256 C.ar    1  UNL1        0.0000
     32 C         -27.2056    8.0303   26.9724 C.ar    1  UNL1        0.0000
     33 C         -27.7697    6.8119   26.9991 C.ar    1  UNL1        0.0000
     34 C         -29.7181    5.2260   28.0491 C.2     1  UNL1        0.0000
     35 C         -30.8126    5.1830   28.4008 C.2     1  UNL1        0.0000
@<TRIPOS>BOND
     1     1     2    1
     2     1     8    1
     3     8     9    1
     4     1    15    1
     5     8    16    1
     6     5    17    1
     7    17    18    1
     8    17    19    1
     9    17    20    1
    10    13    26    1
    11    26    27    2
    12    27    28    1
    13    26    34    1
    14    34    35    2
    15    28    29   ar
    16    29    30   ar
    17    30    31   ar
    18    31    32   ar
    19    32    33   ar
    20    33    28   ar
    21     2     3   ar
    22     3     4   ar
    23     4     5   ar
    24     5     6   ar
    25     6     7   ar
    26     7     2   ar
    27    16    21   ar
    28    21    22   ar
    29    22    25   ar
    30    25    24   ar
    31    24    23   ar
    32    23    16   ar
    33     9    10   ar
    34    10    11   ar
    35    11    12   ar
    36    12    13   ar
    37    13    14   ar
    38    14     9   ar
