@<TRIPOS>MOLECULE
No_4788-gen_results/8p0m/2024-11-26-14-13-15/
 15 16 0 0 0
SMALL
GASTEIGER

@<TRIPOS>ATOM
      1 C         -28.0162   -0.8135   28.8779 C.ar    1  UNL1        0.0115
      2 C         -28.4690   -0.7850   29.8287 C.ar    1  UNL1        0.0577
      3 C         -27.1356    0.2359   28.5352 C.ar    1  UNL1        0.0038
      4 C         -26.8745    1.2825   29.3982 C.ar    1  UNL1        0.0002
      5 C         -28.3613    0.1987   30.9244 C.ar    1  UNL1        0.0114
      6 C         -27.5277    1.2234   30.6356 C.ar    1  UNL1        0.0009
      7 C         -26.3987    0.2949   27.2279 C.ar    1  UNL1        0.0381
      8 C         -26.9022    0.7280   26.2134 C.ar    1  UNL1        0.1409
      9 C         -26.1747    0.6364   24.9259 C.ar    1  UNL1        0.0297
     10 C         -25.0769   -0.2068   27.2393 C.ar    1  UNL1        0.0598
     11 C         -24.2655   -0.1217   26.1499 C.ar    1  UNL1        0.0115
     12 C         -24.8746    0.2819   24.9272 C.ar    1  UNL1        0.0032
     13 CL        -24.2918   -0.7123   28.7049 Cl      1  UNL1       -0.0822
     14 F         -28.1860    1.0557   26.0481 F       1  UNL1       -0.2041
     15 CL        -29.5872   -2.1275   30.3193 Cl      1  UNL1       -0.0822
@<TRIPOS>BOND
     1     3     7    1
     2    10    13    1
     3     8    14    1
     4     2    15    1
     5     1     2   ar
     6     2     5   ar
     7     5     6   ar
     8     6     4   ar
     9     4     3   ar
    10     3     1   ar
    11     7     8   ar
    12     8     9   ar
    13     9    12   ar
    14    12    11   ar
    15    11    10   ar
    16    10     7   ar
