@<TRIPOS>MOLECULE
No_4789-gen_results/8p0m/2024-11-26-14-13-15/
 26 28 0 0 0
SMALL
GASTEIGER

@<TRIPOS>ATOM
      1 C         -28.0162   -0.8135   28.8779 C.ar    1  UNL1        0.0175
      2 C         -28.4690   -0.7850   29.8287 C.ar    1  UNL1        0.0769
      3 C         -26.5042   -0.7777   28.8766 C.ar    1  UNL1        0.0539
      4 C         -25.8103   -0.8531   30.1028 C.ar    1  UNL1       -0.0122
      5 C         -27.9906   -0.8916   31.2257 C.ar    1  UNL1        0.0062
      6 C         -26.6042   -0.8676   31.2652 C.ar    1  UNL1       -0.0032
      7 C         -24.3894   -0.8049   30.1638 C.3     1  UNL1        0.0197
      8 C         -23.8172    0.4762   29.9118 C.3     1  UNL1        0.0041
      9 C         -22.5010    0.5449   29.4097 C.3     1  UNL1        0.0003
     10 C         -21.7696   -0.6524   29.2129 C.3     1  UNL1        0.0000
     11 C         -23.6939   -1.8206   29.2518 C.3     1  UNL1        0.0041
     12 C         -22.5825   -1.5695   28.7088 C.3     1  UNL1        0.0003
     13 C         -23.8663   -1.2152   31.6719 C.3     1  UNL1        0.0044
     14 CL        -25.6063   -0.7213   27.4368 Cl      1  UNL1       -0.0826
     15 C         -30.0766   -0.8321   29.8190 C.2     1  UNL1        0.3459
     16 O         -30.7639   -1.6365   30.2835 O.2     1  UNL1       -0.2445
     17 O         -30.5973    0.3331   29.4780 O.3     1  UNL1       -0.4155
     18 C         -31.7447    0.4223   28.7613 C.2     1  UNL1        0.2125
     19 C         -31.6281    0.4075   27.4488 C.2     1  UNL1        0.1776
     20 C         -30.5791    1.0420   26.8437 C.ar    1  UNL1        0.0306
     21 C         -30.2362    0.8199   25.4228 C.ar    1  UNL1        0.0023
     22 C         -29.0573    1.3663   24.8751 C.ar    1  UNL1        0.0001
     23 C         -28.2021    1.7863   25.5713 C.ar    1  UNL1        0.0000
     24 C         -28.3626    2.1032   26.9860 C.ar    1  UNL1        0.0001
     25 C         -29.5103    1.5798   27.5611 C.ar    1  UNL1        0.0023
     26 F         -31.7330   -0.9533   27.0242 F       1  UNL1       -0.2008
@<TRIPOS>BOND
     1     4     7    1
     2     7     8    1
     3     9    10    1
     4     7    11    1
     5    10    12    1
     6     7    13    1
     7     3    14    1
     8     2    15    1
     9    15    16    2
    10    15    17    1
    11    17    18    1
    12    18    19    2
    13    19    20    1
    14    19    26    1
    15     8     9    1
    16    12    11    1
    17     1     2   ar
    18     2     5   ar
    19     5     6   ar
    20     6     4   ar
    21     4     3   ar
    22     3     1   ar
    23    20    21   ar
    24    21    22   ar
    25    22    23   ar
    26    23    24   ar
    27    24    25   ar
    28    25    20   ar
