@<TRIPOS>MOLECULE
No_479-gen_results/8p0m/2024-11-26-14-13-15/
 15 15 0 0 0
SMALL
GASTEIGER

@<TRIPOS>ATOM
      1 C         -28.0162   -0.8135   28.8779 C.ar    1  UNL1        0.0152
      2 C         -28.4690   -0.7850   29.8287 C.ar    1  UNL1        0.0576
      3 C         -27.0871    0.2903   28.6377 C.ar    1  UNL1        0.0722
      4 C         -26.7676    1.0274   29.4716 C.ar    1  UNL1        0.0078
      5 C         -28.2764    0.0268   31.0145 C.ar    1  UNL1        0.0152
      6 C         -27.3287    1.0538   30.7535 C.ar    1  UNL1        0.0722
      7 C         -26.3859    0.3011   27.2661 C.3     1  UNL1        0.4186
      8 F         -25.3222   -0.3039   27.2856 F       1  UNL1       -0.1659
      9 F         -27.1898   -0.2398   26.2911 F       1  UNL1       -0.1659
     10 F         -26.0828    1.5894   26.8448 F       1  UNL1       -0.1659
     11 CL        -29.6633   -2.1114   30.3905 Cl      1  UNL1       -0.0823
     12 C         -26.9891    2.0787   31.7670 C.3     1  UNL1        0.4186
     13 F         -26.0219    1.9520   32.3352 F       1  UNL1       -0.1659
     14 F         -27.9948    2.0953   32.6543 F       1  UNL1       -0.1659
     15 F         -27.0733    3.2926   31.1082 F       1  UNL1       -0.1659
@<TRIPOS>BOND
     1     3     7    1
     2     7     8    1
     3     7     9    1
     4     7    10    1
     5     2    11    1
     6     6    12    1
     7    12    13    1
     8    12    14    1
     9    12    15    1
    10     1     2   ar
    11     2     5   ar
    12     5     6   ar
    13     6     4   ar
    14     4     3   ar
    15     3     1   ar
