@<TRIPOS>MOLECULE
No_4790-gen_results/8p0m/2024-11-26-14-13-15/
 15 15 0 0 0
SMALL
GASTEIGER

@<TRIPOS>ATOM
      1 C         -28.0162   -0.8135   28.8779 C.ar    1  UNL1       -0.0027
      2 C         -27.0636   -0.1190   28.6079 C.ar    1  UNL1       -0.0048
      3 C         -26.9716    0.7139   27.5060 C.ar    1  UNL1       -0.0027
      4 C         -28.1053    0.7744   26.6421 C.ar    1  UNL1        0.0063
      5 C         -29.2008    0.1044   27.0527 C.ar    1  UNL1        0.0798
      6 C         -29.2096   -0.6029   28.1853 C.ar    1  UNL1        0.0063
      7 C         -30.3702    0.2264   26.1604 C.2     1  UNL1        0.3878
      8 O         -31.2210   -0.4630   26.3096 O.co2   1  UNL1       -0.2406
      9 O         -30.3688    1.0652   25.1324 O.co2   1  UNL1       -0.2406
     10 C         -25.8667   -0.3076   29.6044 C.3     1  UNL1        0.1150
     11 N         -25.4472   -1.3211   30.1003 N.3     1  UNL1       -0.2132
     12 C         -24.6565   -2.0551   29.5992 C.3     1  UNL1        0.0922
     13 C         -23.3022   -1.5712   29.3509 C.3     1  UNL1        0.0204
     14 C         -24.8995   -3.4336   29.2007 C.3     1  UNL1        0.1266
     15 N         -26.0681   -3.9355   29.4938 N.3     1  UNL1       -0.1299
@<TRIPOS>BOND
     1     5     7    1
     2     7     8   ar
     3     7     9   ar
     4     2    10    1
     5    10    11    1
     6    11    12    1
     7    12    13    1
     8    12    14    1
     9    14    15    1
    10     1     2   ar
    11     2     3   ar
    12     3     4   ar
    13     4     5   ar
    14     5     6   ar
    15     6     1   ar
