@<TRIPOS>MOLECULE
No_4791-gen_results/8p0m/2024-11-26-14-13-15/
 6 5 0 0 0
SMALL
GASTEIGER

@<TRIPOS>ATOM
      1 C         -28.0162   -0.8135   28.8779 C.1     1  UNL1       -0.0092
      2 C         -27.0636   -0.1189   28.6079 C.1     1  UNL1       -0.0506
      3 C         -26.7751    0.5580   27.4144 C.2     1  UNL1        0.0502
      4 C         -25.5784    1.2379   27.0887 C.2     1  UNL1        0.0089
      5 C         -24.5214    1.2423   28.0467 C.2     1  UNL1        0.0006
      6 C         -24.7440    0.5657   29.2646 C.2     1  UNL1        0.0000
@<TRIPOS>BOND
     1     1     2    3
     2     2     3    1
     3     3     4    2
     4     4     5    1
     5     5     6    2
