@<TRIPOS>MOLECULE
No_4792-gen_results/8p0m/2024-11-26-14-13-15/
 10 9 0 0 0
SMALL
GASTEIGER

@<TRIPOS>ATOM
      1 P         -27.9505   -0.5786   29.0402 P.3     1  UNL1        0.5282
      2 O         -27.2401    0.0613   28.4283 O.3     1  UNL1       -0.0815
      3 O         -27.9314    0.0857   30.5132 O.3     1  UNL1       -0.1149
      4 O         -29.2596   -0.9083   29.1458 O.3     1  UNL1       -0.1149
      5 O         -27.1547   -1.9214   29.5823 O.2     1  UNL1       -0.3996
      6 F         -26.0066    0.1145   28.4418 F       1  UNL1       -0.0372
      7 C         -25.8229   -1.9129   29.6060 C.2     1  UNL1        0.2549
      8 C         -25.2090   -0.9714   28.7385 C.2     1  UNL1        0.3706
      9 O         -23.9672   -0.4172   29.2708 O.2     1  UNL1       -0.2506
     10 F         -24.9376   -1.4269   27.4575 F       1  UNL1       -0.1551
@<TRIPOS>BOND
     1     1     2    1
     2     1     3    1
     3     1     4    1
     4     1     5    1
     5     2     6    1
     6     5     7    1
     7     7     8    2
     8     8     9    1
     9     8    10    1
