@<TRIPOS>MOLECULE
No_4793-gen_results/8p0m/2024-11-26-14-13-15/
 23 25 0 0 0
SMALL
GASTEIGER

@<TRIPOS>ATOM
      1 C         -28.0162   -0.8135   28.8779 C.3     1  UNL1        0.0991
      2 C         -27.0636   -0.1189   28.6079 C.ar    1  UNL1       -0.0061
      3 C         -27.0010    0.6913   27.4910 C.ar    1  UNL1       -0.0027
      4 C         -25.8548    1.4825   27.0830 C.ar    1  UNL1        0.0036
      5 C         -24.6901    1.4526   27.8807 C.ar    1  UNL1        0.0714
      6 C         -24.7379    0.6010   29.0416 C.ar    1  UNL1        0.0036
      7 C         -25.8234   -0.1688   29.3887 C.ar    1  UNL1       -0.0030
      8 N         -28.7568   -0.5479   30.0191 N.3     1  UNL1       -0.2690
      9 C         -29.7597   -1.3260   30.5171 C.3     1  UNL1        0.0724
     10 C         -30.3964   -0.9170   31.6880 C.3     1  UNL1        0.0174
     11 C         -28.5369    0.6053   30.8302 C.3     1  UNL1        0.0724
     12 C         -29.1462    0.9775   31.9134 C.3     1  UNL1        0.0174
     13 C         -30.1143    0.2013   32.3866 C.3     1  UNL1        0.0029
     14 C         -23.4890    2.1544   27.5405 C.3     1  UNL1        0.4186
     15 F         -22.8603    2.5847   28.4949 F       1  UNL1       -0.1659
     16 F         -23.7277    3.1928   26.6778 F       1  UNL1       -0.1659
     17 F         -22.5856    1.3060   26.8521 F       1  UNL1       -0.1659
     18 C         -28.1508    0.8725   26.6221 C.ar    1  UNL1       -0.0003
     19 C         -28.5361    1.7744   26.1481 C.ar    1  UNL1       -0.0000
     20 C         -29.7299    1.8954   25.2496 C.ar    1  UNL1       -0.0000
     21 C         -30.4308    0.7601   24.9878 C.ar    1  UNL1       -0.0000
     22 C         -29.9689   -0.4286   25.5580 C.ar    1  UNL1       -0.0000
     23 C         -28.8796   -0.4472   26.3955 C.ar    1  UNL1       -0.0000
@<TRIPOS>BOND
     1     1     2    1
     2     1     8    1
     3     8     9    1
     4     8    11    1
     5    10    13    1
     6    12    13    1
     7     5    14    1
     8    14    15    1
     9    14    16    1
    10    14    17    1
    11     3    18    1
    12     9    10    1
    13    12    11    1
    14    18    19   ar
    15    19    20   ar
    16    20    21   ar
    17    21    22   ar
    18    22    23   ar
    19    23    18   ar
    20     2     3   ar
    21     3     4   ar
    22     4     5   ar
    23     5     6   ar
    24     6     7   ar
    25     7     2   ar
