@<TRIPOS>MOLECULE
No_4795-gen_results/8p0m/2024-11-26-14-13-15/
 18 18 0 0 0
SMALL
GASTEIGER

@<TRIPOS>ATOM
      1 C         -28.0162   -0.8135   28.8779 C.ar    1  UNL1        0.0104
      2 C         -28.4690   -0.7850   29.8287 C.ar    1  UNL1        0.0795
      3 C         -27.1356    0.2359   28.5352 C.ar    1  UNL1        0.0714
      4 C         -26.8745    1.2825   29.3982 C.ar    1  UNL1        0.0011
      5 C         -28.3613    0.1987   30.9244 C.ar    1  UNL1        0.0038
      6 C         -27.5277    1.2234   30.6356 C.ar    1  UNL1       -0.0032
      7 C         -26.3879    0.2914   27.2334 C.3     1  UNL1        0.4186
      8 F         -25.7787   -0.5228   27.0339 F       1  UNL1       -0.1659
      9 F         -25.6033    1.4597   27.1041 F       1  UNL1       -0.1659
     10 F         -27.3759    0.5235   26.2013 F       1  UNL1       -0.1659
     11 C         -29.3958   -2.0216   30.3203 C.2     1  UNL1        0.3877
     12 O         -28.9734   -3.0971   30.3865 O.co2   1  UNL1       -0.2406
     13 O         -30.5211   -1.7651   30.7070 O.co2   1  UNL1       -0.2406
     14 C         -27.2876    2.3351   31.6074 C.3     1  UNL1        0.1237
     15 CL        -26.2970    3.2555   31.7432 Cl      1  UNL1       -0.1054
     16 C         -28.4754    2.5571   32.5377 C.2     1  UNL1       -0.0104
     17 C         -28.3855    3.3371   33.3326 C.2     1  UNL1       -0.0288
     18 C         -27.4663    4.3295   33.5426 C.3     1  UNL1        0.0304
@<TRIPOS>BOND
     1     3     7    1
     2     7     8    1
     3     7     9    1
     4     7    10    1
     5     2    11    1
     6    11    12   ar
     7    11    13   ar
     8     6    14    1
     9    14    15    1
    10    14    16    1
    11    16    17    2
    12    17    18    1
    13     1     2   ar
    14     2     5   ar
    15     5     6   ar
    16     6     4   ar
    17     4     3   ar
    18     3     1   ar
