@<TRIPOS>MOLECULE
No_4796-gen_results/8p0m/2024-11-26-14-13-15/
 25 26 0 0 0
SMALL
GASTEIGER

@<TRIPOS>ATOM
      1 C         -28.0162   -0.8135   28.8779 C.3     1  UNL1        0.0539
      2 C         -27.0636   -0.1190   28.6079 C.ar    1  UNL1       -0.0026
      3 C         -26.9716    0.7139   27.5060 C.ar    1  UNL1        0.0668
      4 C         -25.8205    1.4909   27.1160 C.ar    1  UNL1        0.0200
      5 C         -24.6562    1.4242   27.9180 C.ar    1  UNL1        0.0727
      6 C         -24.6847    0.5901   29.0659 C.ar    1  UNL1        0.0036
      7 C         -25.8099   -0.1266   29.3338 C.ar    1  UNL1       -0.0027
      8 C         -28.6943   -0.4734   30.1587 C.ar    1  UNL1       -0.0177
      9 C         -29.7865   -1.3251   30.6371 C.ar    1  UNL1       -0.0039
     10 C         -23.4524    2.1889   27.6083 C.3     1  UNL1        0.4186
     11 F         -22.6065    1.6632   27.1176 F       1  UNL1       -0.1659
     12 F         -23.0196    2.8600   28.7436 F       1  UNL1       -0.1659
     13 F         -23.8540    3.2990   26.8508 F       1  UNL1       -0.1659
     14 C         -28.3563    0.6264   30.9463 C.ar    1  UNL1       -0.0039
     15 C         -28.9646    0.9010   32.0896 C.ar    1  UNL1       -0.0003
     16 C         -30.4231   -0.9974   31.8733 C.ar    1  UNL1       -0.0003
     17 C         -30.0043    0.1176   32.6036 C.ar    1  UNL1       -0.0000
     18 N         -28.0604    0.8980   26.6862 N.pl3   1  UNL1       -0.2115
     19 C         -28.1216    1.1105   25.4034 C.2     1  UNL1        0.0856
     20 C         -28.9062    1.0020   24.7067 C.2     1  UNL1        0.0178
     21 C         -29.7343    0.1728   24.9244 C.2     1  UNL1        0.0014
     22 C         -30.7573    0.0992   25.2077 C.2     1  UNL1       -0.0003
     23 C         -31.4215    1.3573   25.5402 C.2     1  UNL1       -0.0046
     24 C         -31.1010    2.4776   24.7815 C.2     1  UNL1       -0.0258
     25 C         -29.9285    2.8803   24.2387 C.3     1  UNL1        0.0307
@<TRIPOS>BOND
     1     1     8    1
     2     5    10    1
     3    10    11    1
     4    10    12    1
     5    10    13    1
     6     3    18    1
     7    18    19    1
     8    19    20    2
     9    20    21    1
    10    21    22    2
    11    22    23    1
    12    23    24    2
    13    24    25    1
    14     1     2    1
    15     2     3   ar
    16     3     4   ar
    17     4     5   ar
    18     5     6   ar
    19     6     7   ar
    20     7     2   ar
    21     8     9   ar
    22     9    16   ar
    23    16    17   ar
    24    17    15   ar
    25    15    14   ar
    26    14     8   ar
