@<TRIPOS>MOLECULE
No_4797-gen_results/8p0m/2024-11-26-14-13-15/
 16 17 0 0 0
SMALL
GASTEIGER

@<TRIPOS>ATOM
      1 C         -28.0162   -0.8135   28.8779 C.ar    1  UNL1        0.0164
      2 C         -27.0636   -0.1190   28.6079 C.ar    1  UNL1       -0.0193
      3 C         -25.7647   -0.3897   29.0360 C.ar    1  UNL1       -0.0061
      4 C         -24.5516    0.4058   28.7646 C.3     1  UNL1        0.0389
      5 C         -24.6957    1.4480   27.7988 C.3     1  UNL1        0.1084
      6 C         -25.9755    1.7250   27.3077 C.3     1  UNL1        0.0203
      7 C         -27.0718    1.0134   27.6535 C.3     1  UNL1        0.0443
      8 C         -27.9852   -1.5947   30.1522 C.ar    1  UNL1        0.0985
      9 N         -26.7609   -2.1317   30.4947 N.ar    1  UNL1       -0.2427
     10 C         -25.7488   -1.7402   29.8633 C.ar    1  UNL1        0.0943
     11 C         -23.4779    2.2386   27.5322 C.2     1  UNL1        0.3647
     12 O         -23.5894    3.2016   26.7821 O.co2   1  UNL1       -0.2457
     13 O         -22.3102    1.9133   27.9325 O.co2   1  UNL1       -0.2457
     14 C         -28.3500    1.3052   26.9913 C.2     1  UNL1       -0.0266
     15 C         -29.0071    0.8236   26.3483 C.2     1  UNL1       -0.0300
     16 C         -30.2497    1.2078   25.7700 C.3     1  UNL1        0.0304
@<TRIPOS>BOND
     1     3     4    1
     2     4     5    1
     3     5     6    1
     4     2     7    1
     5     6     7    1
     6     5    11    1
     7    11    12   ar
     8    11    13   ar
     9     7    14    1
    10    14    15    2
    11    15    16    1
    12     1     2   ar
    13     2     3   ar
    14     3    10   ar
    15    10     9   ar
    16     9     8   ar
    17     8     1   ar
