@<TRIPOS>MOLECULE
No_4798-gen_results/8p0m/2024-11-26-14-13-15/
 23 25 0 0 0
SMALL
GASTEIGER

@<TRIPOS>ATOM
      1 C         -28.0162   -0.8135   28.8779 C.ar    1  UNL1        0.0046
      2 C         -27.0636   -0.1189   28.6079 C.ar    1  UNL1        0.0001
      3 C         -25.7923   -0.4302   29.0761 C.ar    1  UNL1        0.0001
      4 C         -24.5456    0.3494   28.8225 C.ar    1  UNL1        0.0032
      5 C         -23.2409    0.0217   29.3323 C.ar    1  UNL1        0.0002
      6 C         -27.8820   -1.8995   29.8633 C.ar    1  UNL1        0.0550
      7 C         -26.6706   -2.3272   30.3212 C.ar    1  UNL1        0.0046
      8 C         -25.5433   -1.5852   29.9316 C.ar    1  UNL1        0.0001
      9 C         -22.1918    0.8302   29.0004 C.ar    1  UNL1        0.0033
     10 C         -22.1472    1.7783   28.0287 C.ar    1  UNL1        0.0420
     11 C         -24.3170    1.1382   27.6172 C.ar    1  UNL1        0.0420
     12 C         -23.2808    1.9246   27.3468 C.ar    1  UNL1        0.1957
     13 C         -29.0712   -2.7146   30.3011 C.2     1  UNL1        0.2648
     14 O         -30.1328   -2.3214   30.1750 O.2     1  UNL1       -0.2684
     15 N         -28.7771   -3.9191   30.9038 N.am    1  UNL1       -0.2000
     16 C         -29.8392   -4.8304   31.2786 C.3     1  UNL1        0.1368
     17 O         -23.3767    2.8029   26.3086 O.3     1  UNL1       -0.2866
     18 C         -29.5783   -5.4551   32.4350 C.3     1  UNL1        0.2210
     19 C         -30.3834   -6.7229   32.4699 C.2     1  UNL1        0.1454
     20 C         -30.9104   -7.1098   31.2576 C.2     1  UNL1        0.0035
     21 C         -29.9904   -5.9681   30.2461 C.3     1  UNL1        0.0528
     22 O         -29.8197   -4.7268   33.5969 O.3     1  UNL1       -0.2140
     23 F         -29.6765   -7.8397   33.0274 F       1  UNL1       -0.2065
@<TRIPOS>BOND
     1     3     4    1
     2     6    13    1
     3    13    14    2
     4    13    15   am
     5    15    16    1
     6    12    17    1
     7    16    18    1
     8    18    19    1
     9    19    20    2
    10    16    21    1
    11    20    21    1
    12    18    22    1
    13    19    23    1
    14     1     2   ar
    15     2     3   ar
    16     3     8   ar
    17     8     7   ar
    18     7     6   ar
    19     6     1   ar
    20     4     5   ar
    21     5     9   ar
    22     9    10   ar
    23    10    12   ar
    24    12    11   ar
    25    11     4   ar
