@<TRIPOS>MOLECULE
No_4799-gen_results/8p0m/2024-11-26-14-13-15/
 13 13 0 0 0
SMALL
GASTEIGER

@<TRIPOS>ATOM
      1 O         -28.1229   -1.3353   28.4874 O.2     1  UNL1       -0.2539
      2 C         -27.4806   -0.4044   28.7094 C.2     1  UNL1        0.3379
      3 C         -26.3804   -0.0867   27.9394 C.ar    1  UNL1        0.1255
      4 F         -27.7306    0.3455   29.8481 F       1  UNL1       -0.1584
      5 C         -26.5062    0.7764   26.8083 C.ar    1  UNL1        0.1479
      6 C         -25.3148    1.0991   26.0539 C.ar    1  UNL1        0.0331
      7 C         -24.0577    0.8290   26.5651 C.ar    1  UNL1        0.0415
      8 C         -23.9569    0.1737   27.7860 C.ar    1  UNL1        0.1663
      9 C         -25.0447   -0.2619   28.4722 C.ar    1  UNL1        0.1813
     10 O         -22.7007   -0.0122   28.3094 O.3     1  UNL1       -0.4692
     11 C         -22.2754    0.6654   29.4896 C.3     1  UNL1        0.2526
     12 F         -27.6358    0.8320   26.2094 F       1  UNL1       -0.2039
     13 F         -24.8598   -0.9878   29.5542 F       1  UNL1       -0.2007
@<TRIPOS>BOND
     1     1     2    2
     2     2     3    1
     3     2     4    1
     4     8    10    1
     5    10    11    1
     6     5    12    1
     7     9    13    1
     8     3     5   ar
     9     5     6   ar
    10     6     7   ar
    11     7     8   ar
    12     8     9   ar
    13     9     3   ar
