@<TRIPOS>MOLECULE
No_480-gen_results/8p0m/2024-11-26-14-13-15/
 12 12 0 0 0
SMALL
GASTEIGER

@<TRIPOS>ATOM
      1 C         -28.0162   -0.8135   28.8779 C.ar    1  UNL1        0.0082
      2 C         -28.4690   -0.7850   29.8287 C.ar    1  UNL1        0.0006
      3 C         -27.0871    0.2903   28.6377 C.ar    1  UNL1        0.0420
      4 C         -26.8317    1.2487   29.5869 C.ar    1  UNL1        0.0082
      5 C         -28.3292   -0.0397   30.8362 C.ar    1  UNL1        0.0000
      6 C         -27.4945    1.0625   30.7933 C.ar    1  UNL1        0.0006
      7 C         -26.3268    0.4372   27.3447 C.1     1  UNL1       -0.0597
      8 C         -25.4303    0.8264   26.9028 C.1     1  UNL1       -0.0591
      9 C         -24.2988    1.3350   27.7126 C.2     1  UNL1        0.0496
     10 C         -23.4785    2.0553   27.5805 C.2     1  UNL1        0.0089
     11 C         -23.2077    2.3663   26.1384 C.2     1  UNL1        0.0006
     12 C         -24.1051    1.9348   25.1983 C.2     1  UNL1        0.0000
@<TRIPOS>BOND
     1     3     7    1
     2     7     8    3
     3     8     9    1
     4     9    10    2
     5    10    11    1
     6    11    12    2
     7     1     2   ar
     8     2     5   ar
     9     5     6   ar
    10     6     4   ar
    11     4     3   ar
    12     3     1   ar
