@<TRIPOS>MOLECULE
No_4800-gen_results/8p0m/2024-11-26-14-13-15/
 25 27 0 0 0
SMALL
GASTEIGER

@<TRIPOS>ATOM
      1 C         -28.0162   -0.8135   28.8779 C.ar    1  UNL1        0.0566
      2 C         -27.0636   -0.1190   28.6079 C.ar    1  UNL1        0.0841
      3 C         -26.9287    1.1713   29.0083 C.ar    1  UNL1        0.0147
      4 C         -27.9560    1.7411   29.7840 C.ar    1  UNL1        0.0043
      5 C         -29.0569   -0.3271   29.7466 C.ar    1  UNL1        0.1469
      6 C         -28.9828    0.9722   30.1516 C.ar    1  UNL1        0.0376
      7 N         -25.9739   -0.5937   27.8380 N.ar    1  UNL1       -0.2435
      8 C         -24.6428   -0.1049   28.0009 C.ar    1  UNL1        0.1051
      9 C         -24.5090    1.2057   27.9289 C.ar    1  UNL1        0.0955
     10 C         -23.2331    1.8652   27.8841 C.2     1  UNL1        0.3890
     11 C         -25.6767    2.0335   28.5637 C.ar    1  UNL1       -0.0016
     12 O         -23.0066    2.8080   27.1682 O.co2   1  UNL1       -0.2405
     13 O         -22.1852    1.3415   28.5617 O.co2   1  UNL1       -0.2405
     14 O         -30.0687   -1.1688   30.0804 O.3     1  UNL1       -0.4518
     15 C         -29.8732   -2.3105   30.7503 C.ar    1  UNL1        0.1652
     16 C         -25.4898    3.3648   28.9691 C.3     1  UNL1        0.1407
     17 C         -26.1732    4.3185   28.2218 C.2     1  UNL1        0.3692
     18 O         -27.1860    4.6280   28.5348 O.co2   1  UNL1       -0.2453
     19 O         -25.4689    4.8792   27.2338 O.co2   1  UNL1       -0.2453
     20 C         -28.8213   -2.5722   31.3569 C.ar    1  UNL1        0.1363
     21 C         -30.9701   -3.3015   30.6093 C.ar    1  UNL1        0.0521
     22 N         -28.6760   -3.9250   31.8489 N.ar    1  UNL1       -0.2382
     23 C         -30.7817   -4.5839   31.1287 C.ar    1  UNL1        0.0798
     24 C         -29.5676   -4.8548   31.8099 C.ar    1  UNL1        0.1104
     25 CL        -31.9961   -5.7613   31.0223 Cl      1  UNL1       -0.0805
@<TRIPOS>BOND
     1     9    10    1
     2    10    12   ar
     3    10    13   ar
     4     5    14    1
     5    14    15    1
     6    11    16    1
     7    16    17    1
     8    17    18   ar
     9    17    19   ar
    10    23    25    1
    11     3    11   ar
    12    11     9   ar
    13     9     8   ar
    14     8     7   ar
    15     7     2   ar
    16    15    20   ar
    17    20    22   ar
    18    22    24   ar
    19    24    23   ar
    20    23    21   ar
    21    21    15   ar
    22     1     2   ar
    23     2     3   ar
    24     3     4   ar
    25     4     6   ar
    26     6     5   ar
    27     5     1   ar
