@<TRIPOS>MOLECULE
No_4801-gen_results/8p0m/2024-11-26-14-13-15/
 16 17 0 0 0
SMALL
GASTEIGER

@<TRIPOS>ATOM
      1 C         -28.0162   -0.8135   28.8779 C.ar    1  UNL1        0.0016
      2 C         -28.4690   -0.7850   29.8287 C.ar    1  UNL1        0.0675
      3 C         -26.5042   -0.7777   28.8766 C.ar    1  UNL1       -0.0176
      4 C         -25.6540   -0.6597   27.7191 C.3     1  UNL1        0.0526
      5 C         -27.9180   -0.9374   31.1824 C.ar    1  UNL1        0.0055
      6 C         -26.5423   -0.9399   31.2606 C.ar    1  UNL1       -0.0001
      7 C         -25.7832   -0.8935   30.1201 C.ar    1  UNL1       -0.0039
      8 C         -25.2204    0.6866   27.3939 C.ar    1  UNL1       -0.0178
      9 C         -23.9014    0.8981   27.7598 C.ar    1  UNL1       -0.0039
     10 C         -23.2620    2.1173   27.2513 C.ar    1  UNL1       -0.0003
     11 C         -23.9515    2.9749   26.4625 C.ar    1  UNL1       -0.0000
     12 C         -25.8717    1.4893   26.4729 C.ar    1  UNL1       -0.0039
     13 C         -25.2452    2.6238   26.0239 C.ar    1  UNL1       -0.0003
     14 C         -30.0430   -0.8492   30.0299 C.2     1  UNL1        0.3334
     15 O         -30.6531   -0.2003   29.3030 O.2     1  UNL1       -0.2541
     16 F         -30.6324   -1.6117   30.8597 F       1  UNL1       -0.1586
@<TRIPOS>BOND
     1     3     4    1
     2     4     8    1
     3     2    14    1
     4    14    15    2
     5    14    16    1
     6     1     2   ar
     7     2     5   ar
     8     5     6   ar
     9     6     7   ar
    10     7     3   ar
    11     3     1   ar
    12     8     9   ar
    13     9    10   ar
    14    10    11   ar
    15    11    13   ar
    16    13    12   ar
    17    12     8   ar
