@<TRIPOS>MOLECULE
No_4802-gen_results/8p0m/2024-11-26-14-13-15/
 21 23 0 0 0
SMALL
GASTEIGER

@<TRIPOS>ATOM
      1 C         -28.0162   -0.8135   28.8779 C.3     1  UNL1        0.1403
      2 C         -27.0636   -0.1190   28.6079 C.ar    1  UNL1       -0.0112
      3 C         -25.7923   -0.4302   29.0761 C.ar    1  UNL1       -0.0078
      4 C         -24.5456    0.3494   28.8225 C.ar    1  UNL1       -0.0163
      5 C         -24.6586    1.4196   27.8878 C.ar    1  UNL1        0.0511
      6 C         -25.9471    1.6811   27.3792 C.ar    1  UNL1        0.0039
      7 C         -27.0439    0.9739   27.6871 C.ar    1  UNL1       -0.0033
      8 C         -28.6597   -0.4600   30.2006 C.2     1  UNL1        0.3692
      9 O         -29.6386   -1.2518   30.6446 O.co2   1  UNL1       -0.2453
     10 C         -23.4477    2.1436   27.5883 C.2     1  UNL1        0.2645
     11 N         -22.2631    1.7459   28.0914 N.am    1  UNL1       -0.2013
     12 O         -23.4877    3.0106   26.6634 O.2     1  UNL1       -0.2684
     13 O         -28.4777    0.5773   30.8278 O.co2   1  UNL1       -0.2453
     14 C         -22.0279    0.8184   29.0070 C.3     1  UNL1        0.1201
     15 C         -23.1818   -0.0365   29.3854 C.3     1  UNL1        0.0499
     16 C         -28.3315    1.3522   27.0443 C.ar    1  UNL1       -0.0003
     17 C         -28.2652    1.9279   25.8064 C.ar    1  UNL1       -0.0000
     18 C         -29.5502    1.1669   27.6445 C.ar    1  UNL1       -0.0000
     19 C         -30.7371    1.5132   26.9172 C.ar    1  UNL1       -0.0000
     20 C         -29.4103    2.2770   25.0796 C.ar    1  UNL1       -0.0000
     21 C         -30.6313    2.1176   25.6760 C.ar    1  UNL1       -0.0000
@<TRIPOS>BOND
     1     1     2    1
     2     1     8    1
     3     8     9   ar
     4     5    10    1
     5    10    11   am
     6    10    12    2
     7     8    13   ar
     8    11    14    1
     9     4    15    1
    10     7    16    1
    11    15    14    1
    12     2     3   ar
    13     3     4   ar
    14     4     5   ar
    15     5     6   ar
    16     6     7   ar
    17     7     2   ar
    18    16    17   ar
    19    17    20   ar
    20    20    21   ar
    21    21    19   ar
    22    19    18   ar
    23    18    16   ar
