@<TRIPOS>MOLECULE
No_4805-gen_results/8p0m/2024-11-26-14-13-15/
 17 18 0 0 0
SMALL
GASTEIGER

@<TRIPOS>ATOM
      1 C         -28.0162   -0.8135   28.8779 C.ar    1  UNL1        0.0148
      2 C         -27.0636   -0.1189   28.6079 C.ar    1  UNL1        0.0519
      3 C         -26.9287    1.1713   29.0083 C.ar    1  UNL1        0.0148
      4 C         -27.9560    1.7411   29.7840 C.ar    1  UNL1        0.0013
      5 C         -29.0569   -0.3271   29.7466 C.ar    1  UNL1        0.0013
      6 C         -28.9828    0.9722   30.1516 C.ar    1  UNL1        0.0001
      7 N         -25.9663   -0.5923   27.8447 N.pl3   1  UNL1       -0.2818
      8 C         -25.3293    0.0812   26.8669 C.2     1  UNL1        0.0610
      9 C         -25.1772   -1.7279   28.2922 C.3     1  UNL1        0.1221
     10 C         -24.4941   -1.6397   29.5531 C.ar    1  UNL1       -0.0021
     11 C         -23.5531   -0.8095   29.6678 C.ar    1  UNL1       -0.0026
     12 C         -22.8034   -0.6507   30.9098 C.ar    1  UNL1       -0.0003
     13 C         -23.4047   -1.2709   32.0225 C.ar    1  UNL1       -0.0000
     14 C         -24.6042   -1.9040   31.9579 C.ar    1  UNL1       -0.0003
     15 C         -25.1480   -2.1483   30.6749 C.ar    1  UNL1       -0.0026
     16 C         -24.5927    1.2378   27.0973 C.2     1  UNL1       -0.0097
     17 C         -23.9812    1.9674   26.0228 C.3     1  UNL1        0.0321
@<TRIPOS>BOND
     1     2     7    1
     2     7     8    1
     3     7     9    1
     4     9    10    1
     5     8    16    2
     6    16    17    1
     7     1     2   ar
     8     2     3   ar
     9     3     4   ar
    10     4     6   ar
    11     6     5   ar
    12     5     1   ar
    13    10    11   ar
    14    11    12   ar
    15    12    13   ar
    16    13    14   ar
    17    14    15   ar
    18    15    10   ar
