@<TRIPOS>MOLECULE
No_4807-gen_results/8p0m/2024-11-26-14-13-15/
 19 20 0 0 0
SMALL
GASTEIGER

@<TRIPOS>ATOM
      1 C         -28.0162   -0.8135   28.8779 C.ar    1  UNL1        0.0066
      2 C         -28.4690   -0.7850   29.8287 C.ar    1  UNL1        0.0798
      3 C         -26.5042   -0.7777   28.8766 C.ar    1  UNL1        0.0004
      4 C         -25.6540   -0.6597   27.7191 C.ar    1  UNL1        0.0002
      5 C         -27.9180   -0.9374   31.1824 C.ar    1  UNL1        0.0066
      6 C         -26.5423   -0.9399   31.2606 C.ar    1  UNL1        0.0004
      7 C         -25.7832   -0.8935   30.1201 C.ar    1  UNL1        0.0066
      8 C         -24.3096   -0.3015   27.8531 C.ar    1  UNL1        0.0068
      9 C         -23.8453    0.0829   28.8629 C.ar    1  UNL1        0.0861
     10 C         -22.4111    0.5409   29.0484 C.2     1  UNL1        0.3880
     11 C         -24.4763   -0.2605   30.2936 C.ar    1  UNL1        0.0861
     12 O         -21.5392   -0.0746   29.5277 O.co2   1  UNL1       -0.2405
     13 O         -22.2101    1.7539   28.4361 O.co2   1  UNL1       -0.2405
     14 C         -30.0623   -0.9852   29.8596 C.2     1  UNL1        0.3878
     15 O         -30.7358   -0.1848   30.5959 O.co2   1  UNL1       -0.2406
     16 O         -30.5968   -1.7571   29.1011 O.co2   1  UNL1       -0.2406
     17 C         -23.7518   -0.1487   31.5036 C.2     1  UNL1        0.3880
     18 O         -23.6929    0.9447   32.0776 O.co2   1  UNL1       -0.2405
     19 O         -23.3243   -1.2526   32.0590 O.co2   1  UNL1       -0.2405
@<TRIPOS>BOND
     1     9    10    1
     2    10    12   ar
     3    10    13   ar
     4     2    14    1
     5    14    15   ar
     6    14    16   ar
     7    11    17    1
     8    17    18   ar
     9    17    19   ar
    10     3     4   ar
    11     4     8   ar
    12     8     9   ar
    13     9    11   ar
    14    11     7   ar
    15     1     2   ar
    16     2     5   ar
    17     5     6   ar
    18     6     7   ar
    19     7     3   ar
    20     3     1   ar
