@<TRIPOS>MOLECULE
No_4808-gen_results/8p0m/2024-11-26-14-13-15/
 13 14 0 0 0
SMALL
GASTEIGER

@<TRIPOS>ATOM
      1 C         -28.0162   -0.8135   28.8779 C.ar    1  UNL1        0.0001
      2 C         -27.0636   -0.1189   28.6079 C.ar    1  UNL1        0.0000
      3 C         -26.9716    0.7139   27.5060 C.ar    1  UNL1        0.0001
      4 C         -28.1053    0.7744   26.6421 C.ar    1  UNL1        0.0045
      5 C         -29.2041    0.1179   27.0477 C.ar    1  UNL1        0.0539
      6 C         -30.3488    0.2568   26.2203 C.2     1  UNL1        0.2527
      7 C         -29.1817   -0.6758   28.1173 C.ar    1  UNL1        0.0045
      8 O         -30.3285   -0.0553   25.0162 O.2     1  UNL1       -0.2696
      9 N         -31.5920    0.4926   26.7622 N.am    1  UNL1       -0.2540
     10 C         -31.7619    0.8337   28.1498 C.2     1  UNL1        0.0632
     11 C         -33.1056    0.8821   28.4426 C.2     1  UNL1       -0.0082
     12 C         -32.7645    0.3935   25.9752 C.3     1  UNL1        0.1032
     13 C         -33.7688    0.7270   27.1990 C.3     1  UNL1        0.0493
@<TRIPOS>BOND
     1     5     6    1
     2     6     8    2
     3     6     9   am
     4     9    10    1
     5    10    11    2
     6     9    12    1
     7    11    13    1
     8    12    13    1
     9     1     2   ar
    10     2     3   ar
    11     3     4   ar
    12     4     5   ar
    13     5     7   ar
    14     7     1   ar
