@<TRIPOS>MOLECULE
No_4809-gen_results/8p0m/2024-11-26-14-13-15/
 15 15 0 0 0
SMALL
GASTEIGER

@<TRIPOS>ATOM
      1 C         -28.0162   -0.8135   28.8779 C.ar    1  UNL1        0.0044
      2 C         -28.4690   -0.7850   29.8287 C.ar    1  UNL1        0.0554
      3 C         -26.5455   -0.8762   28.8500 C.ar    1  UNL1        0.0013
      4 C         -25.8041   -1.0324   30.0571 C.ar    1  UNL1        0.0436
      5 C         -24.3697   -1.0998   30.0718 C.3     1  UNL1        0.3410
      6 C         -27.9902   -1.0051   31.2092 C.ar    1  UNL1        0.0044
      7 C         -26.5616   -1.1368   31.2600 C.ar    1  UNL1        0.0013
      8 F         -23.9575   -1.9461   30.7459 F       1  UNL1       -0.1933
      9 F         -23.6785   -0.5997   29.1990 F       1  UNL1       -0.1933
     10 C         -30.0866   -0.6884   29.9193 C.2     1  UNL1        0.2690
     11 O         -30.5295   -0.1775   29.0333 O.2     1  UNL1       -0.2680
     12 N         -30.7642   -1.1541   30.9853 N.am    1  UNL1       -0.1745
     13 C         -32.2046   -1.0381   31.0081 C.2     1  UNL1        0.0844
     14 C         -32.8876   -0.3711   30.6062 C.2     1  UNL1       -0.0079
     15 C         -34.3407   -0.3280   30.6964 C.3     1  UNL1        0.0321
@<TRIPOS>BOND
     1     4     5    1
     2     5     8    1
     3     5     9    1
     4     2    10    1
     5    10    11    2
     6    10    12   am
     7    12    13    1
     8    13    14    2
     9    14    15    1
    10     1     2   ar
    11     2     6   ar
    12     6     7   ar
    13     7     4   ar
    14     4     3   ar
    15     3     1   ar
