@<TRIPOS>MOLECULE
No_481-gen_results/8p0m/2024-11-26-14-13-15/
 11 12 0 0 0
SMALL
GASTEIGER

@<TRIPOS>ATOM
      1 O         -28.1229   -1.3353   28.4874 O.2     1  UNL1       -0.2730
      2 C         -27.4806   -0.4044   28.7094 C.2     1  UNL1        0.2461
      3 N         -27.2411    0.3910   29.5098 N.am    1  UNL1       -0.2003
      4 C         -26.4066   -0.1069   27.4496 C.3     1  UNL1        0.1128
      5 C         -25.4358    0.8473   27.6341 C.ar    1  UNL1       -0.0153
      6 C         -24.3969    1.1078   26.6806 C.ar    1  UNL1       -0.0040
      7 C         -26.3629    1.4022   29.7984 C.3     1  UNL1        0.1412
      8 C         -25.3950    1.6671   28.8472 C.ar    1  UNL1       -0.0040
      9 C         -23.3391    2.0038   27.0406 C.ar    1  UNL1       -0.0003
     10 C         -23.3279    2.6478   28.2634 C.ar    1  UNL1       -0.0003
     11 C         -24.3126    2.5042   29.1137 C.ar    1  UNL1       -0.0029
@<TRIPOS>BOND
     1     1     2    2
     2     2     3   am
     3     2     4    1
     4     7     8    1
     5     3     7    1
     6     5     4    1
     7     5     6   ar
     8     6     9   ar
     9     9    10   ar
    10    10    11   ar
    11    11     8   ar
    12     8     5   ar
