@<TRIPOS>MOLECULE
No_4810-gen_results/8p0m/2024-11-26-14-13-15/
 28 29 0 0 0
SMALL
GASTEIGER

@<TRIPOS>ATOM
      1 C         -28.0162   -0.8135   28.8779 C.2     1  UNL1        0.0594
      2 C         -27.0636   -0.1189   28.6079 C.2     1  UNL1       -0.0293
      3 C         -26.8756    1.1325   28.9134 C.3     1  UNL1        0.0238
      4 C         -25.6883    1.9515   28.5672 C.3     1  UNL1        0.0135
      5 C         -24.6394    1.2834   27.8753 C.3     1  UNL1        0.0792
      6 C         -24.8068   -0.0513   27.6040 C.3     1  UNL1        0.0135
      7 C         -25.9020   -0.7670   27.9511 C.3     1  UNL1        0.0238
      8 N         -27.9893   -1.5850   30.1056 N.am    1  UNL1       -0.2491
      9 C         -23.4455    1.9845   27.4704 C.2     1  UNL1        0.2448
     10 N         -22.2764    1.5556   27.5019 N.am    1  UNL1       -0.1836
     11 O         -23.6426    3.1587   26.9326 O.2     1  UNL1       -0.2730
     12 C         -26.9063   -2.0085   30.5196 C.3     1  UNL1        0.1205
     13 C         -29.1800   -1.9873   30.8044 C.2     1  UNL1        0.3082
     14 C         -30.0942   -2.7241   30.4141 C.2     1  UNL1        0.3190
     15 O         -30.1056   -3.1942   29.4252 O.2     1  UNL1       -0.2634
     16 N         -31.1481   -3.0712   31.3211 N.am    1  UNL1       -0.1959
     17 O         -28.9495   -1.6281   32.1191 O.2     1  UNL1       -0.2645
     18 C         -32.2543   -3.9071   30.9261 C.3     1  UNL1        0.1390
     19 C         -21.8114    0.5344   28.3754 C.2     1  UNL1        0.0511
     20 C         -20.4600    0.1448   28.3001 C.2     1  UNL1        0.0132
     21 C         -22.6184    0.0440   29.4620 C.3     1  UNL1        0.0448
     22 C         -22.1251   -1.0356   30.2450 C.3     1  UNL1        0.0066
     23 C         -23.0094   -1.3959   31.2510 C.3     1  UNL1        0.0081
     24 C         -24.1625   -0.5403   31.6127 C.3     1  UNL1        0.0645
     25 C         -24.4315    0.6285   30.9656 C.2     1  UNL1        0.1506
     26 C         -23.6387    0.9298   29.9265 C.3     1  UNL1        0.0629
     27 C         -22.7169    1.9497   30.9985 C.3     1  UNL1        0.0081
     28 O         -25.5458    1.2449   31.3302 O.2     1  UNL1       -0.2961
@<TRIPOS>BOND
     1     1     2    2
     2     2     3    1
     3     3     4    1
     4     4     5    1
     5     5     6    1
     6     2     7    1
     7     6     7    1
     8     1     8    1
     9     5     9    1
    10     9    10   am
    11     9    11    2
    12     8    12    1
    13     8    13   am
    14    13    14    1
    15    14    15    2
    16    14    16   am
    17    13    17    2
    18    16    18    1
    19    10    19    1
    20    19    20    2
    21    19    21    1
    22    22    23    1
    23    24    25    1
    24    21    26    1
    25    25    26    1
    26    26    27    1
    27    25    28    2
    28    24    23    1
    29    22    21    1
