@<TRIPOS>MOLECULE
No_4813-gen_results/8p0m/2024-11-26-14-13-15/
 35 38 0 0 0
SMALL
GASTEIGER

@<TRIPOS>ATOM
      1 C         -28.0162   -0.8135   28.8779 C.2     1  UNL1        0.2507
      2 C         -27.0636   -0.1190   28.6079 C.ar    1  UNL1        0.0536
      3 C         -26.9287    1.1713   29.0083 C.ar    1  UNL1        0.0047
      4 C         -25.7702    2.0341   28.6884 C.ar    1  UNL1        0.0048
      5 C         -24.7141    1.4431   27.9188 C.ar    1  UNL1        0.0565
      6 C         -24.8590    0.0783   27.5836 C.ar    1  UNL1        0.0048
      7 C         -25.9647   -0.6606   27.9164 C.ar    1  UNL1        0.0047
      8 N         -27.9820   -1.6112   30.1028 N.am    1  UNL1       -0.2518
      9 C         -23.5351    2.1704   27.5550 C.2     1  UNL1        0.2822
     10 N         -22.3779    2.1928   27.8323 N.am    1  UNL1       -0.0886
     11 O         -23.8224    2.9736   26.4404 O.2     1  UNL1       -0.2669
     12 O         -29.2085   -0.6065   28.4878 O.2     1  UNL1       -0.2698
     13 C         -29.0541   -2.4968   30.5743 C.3     1  UNL1        0.2028
     14 C         -26.6958   -1.8760   30.7901 C.3     1  UNL1        0.1174
     15 C         -29.4121   -2.1686   31.8796 C.3     1  UNL1        0.0913
     16 C         -30.2422   -3.0820   32.4711 C.ar    1  UNL1       -0.0130
     17 C         -30.9121   -3.0425   33.5269 C.ar    1  UNL1       -0.0039
     18 C         -31.7755   -4.0390   33.9949 C.ar    1  UNL1        0.0028
     19 C         -31.8890   -5.2039   33.2227 C.ar    1  UNL1        0.0367
     20 C         -31.1859   -5.3442   32.0609 C.ar    1  UNL1        0.1374
     21 C         -30.3756   -4.3550   31.6814 C.ar    1  UNL1        0.0378
     22 C         -29.6591   -4.4789   30.4243 C.3     1  UNL1        0.1732
     23 O         -29.3141   -3.3660   29.7916 O.3     1  UNL1       -0.3320
     24 N         -22.0090    1.3392   28.8440 N.3     1  UNL1        0.0074
     25 O         -31.2934   -6.4999   31.4302 O.3     1  UNL1       -0.4640
     26 C         -31.7608   -6.6186   30.2551 C.3     1  UNL1        0.3186
     27 C         -32.9626   -7.2721   30.1803 C.2     1  UNL1        0.4084
     28 O         -33.6089   -7.2297   29.1533 O.co2   1  UNL1       -0.2415
     29 O         -33.1796   -8.3432   30.9514 O.co2   1  UNL1       -0.2415
     30 C         -29.1794   -0.8774   32.5436 C.ar    1  UNL1       -0.0144
     31 C         -30.1328    0.1164   32.3751 C.ar    1  UNL1       -0.0038
     32 C         -29.8941    1.3546   32.9150 C.ar    1  UNL1       -0.0003
     33 C         -28.7406    1.6005   33.6659 C.ar    1  UNL1       -0.0000
     34 C         -27.8026    0.5530   33.8640 C.ar    1  UNL1       -0.0003
     35 C         -28.0534   -0.6738   33.2608 C.ar    1  UNL1       -0.0038
@<TRIPOS>BOND
     1     1     2    1
     2     1     8   am
     3     5     9    1
     4     9    10   am
     5     9    11    2
     6     1    12    2
     7     8    13    1
     8     8    14    1
     9    13    15    1
    10    15    16    1
    11    21    22    1
    12    13    23    1
    13    22    23    1
    14    10    24    1
    15    20    25    1
    16    25    26    1
    17    26    27    1
    18    27    28   ar
    19    27    29   ar
    20    15    30    1
    21     2     3   ar
    22     3     4   ar
    23     4     5   ar
    24     5     6   ar
    25     6     7   ar
    26     7     2   ar
    27    30    31   ar
    28    31    32   ar
    29    32    33   ar
    30    33    34   ar
    31    34    35   ar
    32    35    30   ar
    33    16    17   ar
    34    17    18   ar
    35    18    19   ar
    36    19    20   ar
    37    20    21   ar
    38    21    16   ar
