@<TRIPOS>MOLECULE
No_4814-gen_results/8p0m/2024-11-26-14-13-15/
 22 24 0 0 0
SMALL
GASTEIGER

@<TRIPOS>ATOM
      1 C         -28.0162   -0.8135   28.8779 C.ar    1  UNL1        0.0039
      2 C         -28.4690   -0.7850   29.8287 C.ar    1  UNL1       -0.0001
      3 C         -28.1960    0.3478   28.0550 C.ar    1  UNL1       -0.0000
      4 C         -27.4421    0.5100   26.7946 C.ar    1  UNL1       -0.0000
      5 C         -26.1689   -0.0794   26.6787 C.ar    1  UNL1       -0.0001
      6 C         -25.7312   -0.9607   27.6875 C.ar    1  UNL1        0.0039
      7 C         -26.5043   -1.2222   28.7582 C.ar    1  UNL1        0.0714
      8 C         -29.6530   -0.2892   30.1660 C.ar    1  UNL1       -0.0000
      9 C         -30.0958    0.7019   29.2325 C.ar    1  UNL1       -0.0000
     10 C         -29.3946    1.0067   28.0841 C.ar    1  UNL1       -0.0000
     11 C         -25.9323   -2.2672   29.7020 C.3     1  UNL1        0.4186
     12 F         -26.8364   -2.8783   30.1975 F       1  UNL1       -0.1659
     13 F         -25.2596   -1.6206   30.6811 F       1  UNL1       -0.1659
     14 F         -24.9675   -2.9783   29.1237 F       1  UNL1       -0.1659
     15 C         -29.8630    1.9352   27.1363 C.2     1  UNL1       -0.0000
     16 C         -29.6596    3.1602   27.2863 C.2     1  UNL1       -0.0000
     17 C         -30.5002    1.3812   25.9986 C.ar    1  UNL1       -0.0000
     18 C         -30.9008    0.0883   25.8280 C.ar    1  UNL1        0.0000
     19 C         -31.2910   -0.4192   24.6045 C.ar    1  UNL1        0.0000
     20 C         -31.3649    0.4141   23.5319 C.ar    1  UNL1        0.0000
     21 C         -30.5374    2.1688   24.8064 C.ar    1  UNL1        0.0000
     22 C         -30.9854    1.7090   23.5865 C.ar    1  UNL1        0.0000
@<TRIPOS>BOND
     1     7    11    1
     2    11    12    1
     3    11    13    1
     4    11    14    1
     5    10    15    1
     6    15    16    2
     7    15    17    1
     8    17    18   ar
     9    18    19   ar
    10    19    20   ar
    11    20    22   ar
    12    22    21   ar
    13    21    17   ar
    14     1     2   ar
    15     2     8   ar
    16     8     9   ar
    17     9    10   ar
    18    10     3   ar
    19     1     3   ar
    20     3     4   ar
    21     4     5   ar
    22     5     6   ar
    23     6     7   ar
    24     7     1   ar
