@<TRIPOS>MOLECULE
No_4816-gen_results/8p0m/2024-11-26-14-13-15/
 18 20 0 0 0
SMALL
GASTEIGER

@<TRIPOS>ATOM
      1 C         -28.0162   -0.8135   28.8779 C.ar    1  UNL1        0.0022
      2 C         -28.4690   -0.7850   29.8287 C.ar    1  UNL1        0.0001
      3 C         -28.1960    0.3478   28.0550 C.ar    1  UNL1        0.0275
      4 C         -27.4421    0.5100   26.7947 C.ar    1  UNL1        0.1401
      5 C         -27.8427    1.3330   25.8056 C.ar    1  UNL1        0.0296
      6 C         -29.4716    0.1210   30.3515 C.ar    1  UNL1        0.0001
      7 C         -29.7075    1.1848   29.5963 C.ar    1  UNL1        0.0022
      8 C         -29.0356    1.3672   28.4021 C.ar    1  UNL1        0.0022
      9 C         -28.8078    2.3943   26.1524 C.ar    1  UNL1        0.0023
     10 C         -29.3448    2.3671   27.4295 C.ar    1  UNL1        0.0001
     11 F         -26.5529   -0.4194   26.4343 F       1  UNL1       -0.2042
     12 C         -30.6835    2.2323   30.0269 C.ar    1  UNL1        0.0275
     13 C         -30.2010    3.3287   30.6775 C.ar    1  UNL1        0.1401
     14 C         -31.1051    4.3466   31.1087 C.ar    1  UNL1        0.0296
     15 C         -32.4516    4.1940   30.7993 C.ar    1  UNL1        0.0023
     16 C         -32.0182    2.0902   29.7500 C.ar    1  UNL1        0.0022
     17 C         -32.9044    3.0713   30.1265 C.ar    1  UNL1        0.0001
     18 F         -28.9539    3.5441   30.9463 F       1  UNL1       -0.2042
@<TRIPOS>BOND
     1     4    11    1
     2     7    12    1
     3    13    18    1
     4    12    13   ar
     5    13    14   ar
     6    14    15   ar
     7    15    17   ar
     8    17    16   ar
     9    16    12   ar
    10     3     4   ar
    11     4     5   ar
    12     5     9   ar
    13     9    10   ar
    14    10     8   ar
    15     1     2   ar
    16     2     6   ar
    17     6     7   ar
    18     7     8   ar
    19     8     3   ar
    20     3     1   ar
