@<TRIPOS>MOLECULE
No_4817-gen_results/8p0m/2024-11-26-14-13-15/
 7 7 0 0 0
SMALL
GASTEIGER

@<TRIPOS>ATOM
      1 O         -28.1229   -1.3353   28.4874 O.2     1  UNL1       -0.2718
      2 C         -28.5208   -0.4363   29.0779 C.2     1  UNL1        0.2592
      3 C         -29.6977    0.0507   28.9764 C.3     1  UNL1        0.1753
      4 N         -27.5405    0.1756   30.0054 N.am    1  UNL1       -0.2027
      5 C         -27.8890    1.2664   30.8176 C.3     1  UNL1        0.1339
      6 N         -30.0489    1.1130   29.8183 N.3     1  UNL1       -0.2066
      7 C         -29.1790    1.7145   30.6670 C.3     1  UNL1        0.1126
@<TRIPOS>BOND
     1     1     2    2
     2     2     3    1
     3     2     4   am
     4     4     5    1
     5     6     7    1
     6     3     6    1
     7     7     5    1
