@<TRIPOS>MOLECULE
No_4818-gen_results/8p0m/2024-11-26-14-13-15/
 11 11 0 0 0
SMALL
GASTEIGER

@<TRIPOS>ATOM
      1 C         -28.0162   -0.8135   28.8779 C.ar    1  UNL1        0.0578
      2 C         -27.0636   -0.1190   28.6079 C.ar    1  UNL1        0.0114
      3 C         -27.0010    0.6913   27.4910 C.ar    1  UNL1        0.0010
      4 C         -28.1373    0.7363   26.6350 C.ar    1  UNL1        0.0046
      5 C         -29.2360    0.0765   27.0690 C.ar    1  UNL1        0.0559
      6 C         -29.2177   -0.6429   28.1747 C.ar    1  UNL1        0.0160
      7 C         -30.4152    0.1590   26.1819 C.2     1  UNL1        0.2649
      8 N         -31.0232    1.1188   26.0346 N.am    1  UNL1       -0.1998
      9 O         -30.8241   -0.9325   25.6274 O.2     1  UNL1       -0.2684
     10 C         -32.2346    1.2918   25.1677 C.3     1  UNL1        0.1388
     11 CL        -28.0218   -1.7954   30.3424 Cl      1  UNL1       -0.0822
@<TRIPOS>BOND
     1     5     7    1
     2     7     8   am
     3     7     9    2
     4     8    10    1
     5     1    11    1
     6     1     2   ar
     7     2     3   ar
     8     3     4   ar
     9     4     5   ar
    10     5     6   ar
    11     6     1   ar
