@<TRIPOS>MOLECULE
No_482-gen_results/8p0m/2024-11-26-14-13-15/
 29 31 0 0 0
SMALL
GASTEIGER

@<TRIPOS>ATOM
      1 C         -28.0162   -0.8135   28.8779 C.ar    1  UNL1        0.0046
      2 C         -27.0636   -0.1189   28.6079 C.ar    1  UNL1        0.0001
      3 C         -25.7923   -0.4302   29.0761 C.ar    1  UNL1        0.0000
      4 C         -25.5756   -1.5654   29.9363 C.ar    1  UNL1        0.0001
      5 C         -26.7354   -2.3004   30.2173 C.ar    1  UNL1        0.0046
      6 C         -27.9184   -1.9537   29.7629 C.ar    1  UNL1        0.0555
      7 C         -27.1057    1.1023   27.7593 C.ar    1  UNL1       -0.0003
      8 C         -26.7157    2.2350   27.9945 C.ar    1  UNL1       -0.0000
      9 C         -27.6806    0.8547   26.4259 C.ar    1  UNL1       -0.0039
     10 C         -26.6450    3.3558   27.2180 C.ar    1  UNL1       -0.0003
     11 C         -27.7440    1.9438   25.5228 C.ar    1  UNL1       -0.0178
     12 C         -27.2247    3.2210   25.9315 C.ar    1  UNL1       -0.0039
     13 C         -29.0600   -2.7834   30.2120 C.2     1  UNL1        0.2716
     14 N         -28.9532   -4.0630   30.5310 N.am    1  UNL1       -0.1371
     15 O         -30.2105   -2.2853   30.2071 O.2     1  UNL1       -0.2679
     16 C         -30.0480   -4.9580   30.8519 C.2     1  UNL1        0.2716
     17 C         -29.8776   -5.6302   31.9924 C.ar    1  UNL1        0.0555
     18 C         -29.5505   -5.1062   33.0790 C.ar    1  UNL1        0.0046
     19 C         -29.5342   -5.8606   34.3573 C.ar    1  UNL1        0.0001
     20 C         -29.7051   -7.2355   34.2971 C.ar    1  UNL1        0.0000
     21 C         -30.2719   -7.0804   32.0612 C.ar    1  UNL1        0.0046
     22 C         -30.1448   -7.8031   33.1544 C.ar    1  UNL1        0.0001
     23 O         -30.7755   -5.1646   29.8980 O.2     1  UNL1       -0.2679
     24 C         -28.3030    1.7726   24.2160 C.3     1  UNL1        0.0523
     25 C         -29.5662    2.3428   24.0045 C.2     1  UNL1       -0.0214
     26 C         -30.0151    3.3666   24.7726 C.2     1  UNL1       -0.0046
     27 C         -31.3166    3.9313   24.5281 C.2     1  UNL1       -0.0049
     28 C         -32.0374    3.4076   23.4472 C.2     1  UNL1       -0.0258
     29 C         -33.3204    3.8543   23.1230 C.3     1  UNL1        0.0307
@<TRIPOS>BOND
     1     2     7    1
     2     6    13    1
     3    13    14   am
     4    13    15    2
     5    14    16   am
     6    16    17    1
     7    16    23    2
     8    11    24    1
     9    24    25    1
    10    25    26    2
    11    26    27    1
    12    27    28    2
    13    28    29    1
    14     1     2   ar
    15     2     3   ar
    16     3     4   ar
    17     4     5   ar
    18     5     6   ar
    19     6     1   ar
    20    17    18   ar
    21    18    19   ar
    22    19    20   ar
    23    20    22   ar
    24    22    21   ar
    25    21    17   ar
    26     7     8   ar
    27     8    10   ar
    28    10    12   ar
    29    12    11   ar
    30    11     9   ar
    31     9     7   ar
