@<TRIPOS>MOLECULE
No_4820-gen_results/8p0m/2024-11-26-14-13-15/
 11 11 0 0 0
SMALL
GASTEIGER

@<TRIPOS>ATOM
      1 C         -28.0162   -0.8135   28.8779 C.ar    1  UNL1        0.0047
      2 C         -27.0636   -0.1189   28.6079 C.ar    1  UNL1        0.0113
      3 C         -26.8756    1.1325   28.9134 C.ar    1  UNL1        0.0577
      4 C         -27.9014    1.8066   29.6436 C.ar    1  UNL1        0.0113
      5 C         -28.9449    1.0388   30.0360 C.ar    1  UNL1        0.0047
      6 C         -29.0273   -0.2890   29.7051 C.ar    1  UNL1        0.0715
      7 CL        -25.4194    1.8534   28.4752 Cl      1  UNL1       -0.0822
      8 C         -30.1715   -1.1765   30.0876 C.3     1  UNL1        0.4186
      9 F         -30.6972   -0.7479   31.2020 F       1  UNL1       -0.1659
     10 F         -31.1089   -1.1530   29.1916 F       1  UNL1       -0.1659
     11 F         -29.7671   -2.4400   30.2803 F       1  UNL1       -0.1659
@<TRIPOS>BOND
     1     3     7    1
     2     6     8    1
     3     8     9    1
     4     8    10    1
     5     8    11    1
     6     1     2   ar
     7     2     3   ar
     8     3     4   ar
     9     4     5   ar
    10     5     6   ar
    11     6     1   ar
