@<TRIPOS>MOLECULE
No_4821-gen_results/8p0m/2024-11-26-14-13-15/
 16 17 0 0 0
SMALL
GASTEIGER

@<TRIPOS>ATOM
      1 C         -28.0162   -0.8135   28.8779 C.ar    1  UNL1        0.0054
      2 C         -28.4690   -0.7850   29.8287 C.ar    1  UNL1        0.0554
      3 C         -26.5455   -0.8762   28.8500 C.ar    1  UNL1        0.0115
      4 C         -25.8041   -1.0324   30.0571 C.ar    1  UNL1        0.0577
      5 C         -27.9437   -0.9869   31.2075 C.ar    1  UNL1        0.0054
      6 C         -26.5825   -1.0386   31.2231 C.ar    1  UNL1        0.0115
      7 C         -30.0606   -0.7371   29.9024 C.2     1  UNL1        0.2690
      8 O         -30.5524   -0.2769   29.0111 O.2     1  UNL1       -0.2680
      9 N         -30.7104   -0.9342   31.1151 N.am    1  UNL1       -0.1754
     10 C         -32.1406   -0.8305   31.1405 C.ar    1  UNL1        0.0737
     11 CL        -24.1336   -1.2283   30.2536 Cl      1  UNL1       -0.0822
     12 C         -32.8479   -0.2573   30.6485 C.ar    1  UNL1        0.0166
     13 C         -33.8219    0.1240   30.5837 C.ar    1  UNL1        0.0013
     14 C         -32.5872   -1.7151   32.3118 C.ar    1  UNL1        0.0166
     15 C         -34.0166   -1.5253   32.5106 C.ar    1  UNL1        0.0013
     16 C         -34.6888   -0.6057   31.6836 C.ar    1  UNL1        0.0001
@<TRIPOS>BOND
     1     2     7    1
     2     7     8    2
     3     7     9   am
     4     9    10    1
     5     4    11    1
     6    10    12   ar
     7    12    13   ar
     8    13    16   ar
     9    16    15   ar
    10    15    14   ar
    11    14    10   ar
    12     1     2   ar
    13     2     5   ar
    14     5     6   ar
    15     6     4   ar
    16     4     3   ar
    17     3     1   ar
