@<TRIPOS>MOLECULE
No_4823-gen_results/8p0m/2024-11-26-14-13-15/
 21 22 0 0 0
SMALL
GASTEIGER

@<TRIPOS>ATOM
      1 C         -28.0162   -0.8135   28.8779 C.ar    1  UNL1       -0.0026
      2 C         -27.0636   -0.1189   28.6079 C.ar    1  UNL1       -0.0003
      3 C         -25.7923   -0.4302   29.0761 C.ar    1  UNL1       -0.0000
      4 C         -24.5456    0.3494   28.8225 C.ar    1  UNL1       -0.0000
      5 C         -24.6586    1.4196   27.8878 C.ar    1  UNL1       -0.0000
      6 C         -23.5403    2.1791   27.5500 C.ar    1  UNL1        0.0000
      7 C         -22.2925    1.7428   28.0473 C.ar    1  UNL1        0.0000
      8 C         -22.1712    0.7079   28.9284 C.ar    1  UNL1        0.0000
      9 C         -23.3345   -0.0624   29.3081 C.ar    1  UNL1       -0.0000
     10 C         -27.9466   -1.8823   29.8708 C.ar    1  UNL1       -0.0007
     11 C         -26.7159   -2.3287   30.3060 C.ar    1  UNL1       -0.0026
     12 C         -25.5921   -1.5643   29.9672 C.ar    1  UNL1       -0.0003
     13 C         -29.0314   -2.7998   30.3259 C.3     1  UNL1        0.1386
     14 N         -29.5379   -2.6329   31.2697 N.pl3   1  UNL1       -0.2315
     15 C         -29.6162   -1.5263   31.9381 C.2     1  UNL1        0.0805
     16 C         -29.7686   -0.4349   31.4537 C.2     1  UNL1        0.0174
     17 C         -30.0189    0.5817   31.9276 C.2     1  UNL1        0.0014
     18 C         -30.1071    1.9392   31.2829 C.2     1  UNL1       -0.0003
     19 C         -30.1899    3.1548   31.8830 C.2     1  UNL1       -0.0046
     20 C         -30.3680    3.1518   33.2924 C.2     1  UNL1       -0.0258
     21 C         -30.3155    2.0070   33.9981 C.3     1  UNL1        0.0307
@<TRIPOS>BOND
     1     3     4    1
     2    10    13    1
     3    13    14    1
     4    14    15    1
     5    15    16    2
     6    16    17    1
     7    17    18    2
     8    18    19    1
     9    19    20    2
    10    20    21    1
    11     1     2   ar
    12     2     3   ar
    13     3    12   ar
    14    12    11   ar
    15    11    10   ar
    16    10     1   ar
    17     4     5   ar
    18     5     6   ar
    19     6     7   ar
    20     7     8   ar
    21     8     9   ar
    22     9     4   ar
