@<TRIPOS>MOLECULE
No_4824-gen_results/8p0m/2024-11-26-14-13-15/
 25 26 0 0 0
SMALL
GASTEIGER

@<TRIPOS>ATOM
      1 C         -28.0162   -0.8135   28.8779 C.ar    1  UNL1        0.0178
      2 C         -28.4690   -0.7850   29.8287 C.ar    1  UNL1        0.0765
      3 C         -27.1356    0.2359   28.5352 C.ar    1  UNL1        0.0579
      4 C         -26.8745    1.2825   29.3982 C.ar    1  UNL1        0.0106
      5 C         -28.3613    0.1987   30.9244 C.ar    1  UNL1        0.0065
      6 C         -25.9723    2.3852   29.1040 C.ar    1  UNL1        0.0008
      7 C         -27.5118    1.2316   30.6323 C.ar    1  UNL1        0.0010
      8 C         -25.4925    3.0751   29.8094 C.ar    1  UNL1        0.0000
      9 C         -25.7569    2.5727   27.6354 C.ar    1  UNL1        0.0000
     10 C         -24.7898    3.4591   27.2105 C.ar    1  UNL1        0.0000
     11 C         -24.6091    4.2803   29.4971 C.ar    1  UNL1        0.0000
     12 C         -24.2924    4.4195   28.1199 C.ar    1  UNL1        0.0000
     13 CL        -26.3398    0.1748   26.9767 Cl      1  UNL1       -0.0822
     14 C         -29.3593   -2.0813   30.1509 C.2     1  UNL1        0.3416
     15 O         -29.0212   -3.2573   30.4099 O.2     1  UNL1       -0.2449
     16 O         -30.5560   -1.8463   30.7319 O.3     1  UNL1       -0.4391
     17 C         -31.4889   -2.7939   30.7040 C.3     1  UNL1        0.2572
     18 C         -32.6378   -2.5287   31.1489 C.2     1  UNL1        0.2823
     19 O         -32.9861   -1.4943   31.5267 O.2     1  UNL1       -0.2694
     20 N         -33.6519   -3.5524   31.1382 N.am    1  UNL1       -0.2005
     21 C         -33.3923   -4.8581   30.7675 C.3     1  UNL1        0.1386
     22 C         -31.2241   -4.1660   30.2821 C.3     1  UNL1        0.1671
     23 C         -29.9816   -4.5003   29.6993 C.2     1  UNL1        0.3691
     24 O         -29.3930   -5.2993   29.1609 O.co2   1  UNL1       -0.2455
     25 O         -29.9486   -3.8322   28.8921 O.co2   1  UNL1       -0.2455
@<TRIPOS>BOND
     1     4     6    1
     2     3    13    1
     3     2    14    1
     4    14    15    2
     5    14    16    1
     6    16    17    1
     7    17    18    1
     8    18    19    2
     9    18    20   am
    10    20    21    1
    11    17    22    1
    12    22    23    1
    13    23    24   ar
    14    23    25   ar
    15     6     8   ar
    16     8    11   ar
    17    11    12   ar
    18    12    10   ar
    19    10     9   ar
    20     9     6   ar
    21     1     2   ar
    22     2     5   ar
    23     5     7   ar
    24     7     4   ar
    25     4     3   ar
    26     3     1   ar
