@<TRIPOS>MOLECULE
No_4825-gen_results/8p0m/2024-11-26-14-13-15/
 17 17 0 0 0
SMALL
GASTEIGER

@<TRIPOS>ATOM
      1 O         -28.1229   -1.3353   28.4874 O.2     1  UNL1       -0.2643
      2 C         -28.5208   -0.4363   29.0779 C.2     1  UNL1        0.3128
      3 C         -29.6977    0.0507   28.9764 C.2     1  UNL1        0.3049
      4 N         -27.5405    0.1756   30.0054 N.am    1  UNL1       -0.1726
      5 C         -26.2376   -0.0526   30.0396 C.ar    1  UNL1        0.0738
      6 C         -25.5912   -0.7002   30.5795 C.ar    1  UNL1        0.0166
      7 C         -24.3887   -1.0633   30.5514 C.ar    1  UNL1        0.0014
      8 C         -23.4957   -0.4468   29.5429 C.ar    1  UNL1        0.0017
      9 C         -24.2508    0.3832   28.6458 C.ar    1  UNL1        0.0222
     10 C         -25.6007    0.6031   28.8256 C.ar    1  UNL1        0.0182
     11 C         -30.7070   -0.4987   29.6134 C.2     1  UNL1        0.3087
     12 O         -31.8800   -0.2622   29.4208 O.2     1  UNL1       -0.2647
     13 N         -30.4987   -1.5315   30.5435 N.am    1  UNL1       -0.1969
     14 C         -31.5306   -2.2795   31.2394 C.3     1  UNL1        0.1389
     15 O         -29.8657    1.0901   28.1829 O.2     1  UNL1       -0.2767
     16 C         -23.4520    1.0309   27.6001 C.2     1  UNL1        0.1221
     17 N         -23.0610    2.1465   27.5606 N.2     1  UNL1       -0.1464
@<TRIPOS>BOND
     1     1     2    2
     2     2     3    1
     3     2     4   am
     4     4     5    1
     5     3    11    1
     6    11    12    2
     7    11    13   am
     8    13    14    1
     9     3    15    2
    10     9    16    1
    11    16    17    2
    12     5     6   ar
    13     6     7   ar
    14     7     8   ar
    15     8     9   ar
    16     9    10   ar
    17    10     5   ar
