@<TRIPOS>MOLECULE
No_4826-gen_results/8p0m/2024-11-26-14-13-15/
 17 19 0 0 0
SMALL
GASTEIGER

@<TRIPOS>ATOM
      1 C         -28.0162   -0.8135   28.8779 C.ar    1  UNL1        0.0111
      2 C         -28.4690   -0.7850   29.8287 C.ar    1  UNL1       -0.0021
      3 C         -28.1960    0.3478   28.0550 C.ar    1  UNL1        0.0577
      4 C         -29.0191    1.3501   28.3782 C.ar    1  UNL1        0.0111
      5 C         -29.4107    0.1803   30.3782 C.ar    1  UNL1       -0.0077
      6 C         -29.6059    1.2495   29.6193 C.ar    1  UNL1       -0.0021
      7 CL        -27.3362    0.3775   26.5214 Cl      1  UNL1       -0.0822
      8 C         -30.0314   -0.0282   31.7602 C.3     1  UNL1        0.0800
      9 N         -29.8856    0.8011   32.6349 N.3     1  UNL1       -0.2716
     10 C         -29.3116    1.9457   32.5224 C.3     1  UNL1        0.0723
     11 C         -28.6450    2.6036   33.0908 C.3     1  UNL1        0.0174
     12 C         -28.2033    2.1994   34.4571 C.3     1  UNL1        0.0028
     13 C         -28.7702    1.0765   34.9047 C.3     1  UNL1        0.0160
     14 C         -29.5390    0.2106   33.9818 C.3     1  UNL1        0.0577
     15 C         -30.9757   -1.0713   31.7592 C.3     1  UNL1        0.0205
     16 C         -30.0137   -1.0202   34.4011 C.3     1  UNL1        0.0160
     17 C         -30.7445   -1.7452   33.1831 C.3     1  UNL1        0.0031
@<TRIPOS>BOND
     1     3     7    1
     2     5     8    1
     3     8     9    1
     4     9    10    1
     5    11    12    1
     6     9    14    1
     7    13    14    1
     8     8    15    1
     9    14    16    1
    10    15    17    1
    11    17    16    1
    12    10    11    1
    13    12    13    1
    14     1     2   ar
    15     2     5   ar
    16     5     6   ar
    17     6     4   ar
    18     4     3   ar
    19     3     1   ar
