@<TRIPOS>MOLECULE
No_4827-gen_results/8p0m/2024-11-26-14-13-15/
 28 31 0 0 0
SMALL
GASTEIGER

@<TRIPOS>ATOM
      1 C         -28.0162   -0.8135   28.8779 C.ar    1  UNL1        0.0448
      2 C         -28.4690   -0.7850   29.8287 C.ar    1  UNL1        0.0578
      3 C         -26.5042   -0.7777   28.8766 C.ar    1  UNL1        0.1414
      4 C         -25.8103   -0.8531   30.1028 C.ar    1  UNL1        0.0297
      5 C         -27.9906   -0.8916   31.2257 C.ar    1  UNL1        0.0153
      6 C         -26.6042   -0.8676   31.2652 C.ar    1  UNL1        0.0036
      7 N         -29.9808   -0.8491   30.0372 N.pl3   1  UNL1       -0.2655
      8 C         -30.7032   -0.0242   29.3095 C.ar    1  UNL1        0.0556
      9 C         -30.3328    0.9349   28.7702 C.ar    1  UNL1        0.0151
     10 C         -31.2226    1.7766   27.8574 C.ar    1  UNL1        0.0013
     11 C         -32.5162    1.3193   27.7464 C.ar    1  UNL1        0.0001
     12 C         -32.0792   -0.4710   29.1143 C.ar    1  UNL1        0.0151
     13 C         -32.9216    0.2060   28.3751 C.ar    1  UNL1        0.0013
     14 C         -30.5050   -1.9159   30.8687 C.ar    1  UNL1        0.0555
     15 C         -30.7998   -1.6259   32.1609 C.ar    1  UNL1        0.0151
     16 C         -31.3782   -2.6043   32.9495 C.ar    1  UNL1        0.0013
     17 C         -31.6358   -3.8643   32.3687 C.ar    1  UNL1        0.0001
     18 C         -31.3685   -4.1111   31.0596 C.ar    1  UNL1        0.0013
     19 C         -30.8077   -3.0983   30.2865 C.ar    1  UNL1        0.0139
     20 F         -25.7591   -0.7346   27.7718 F       1  UNL1       -0.2041
     21 C         -31.6729   -5.3973   30.4819 C.ar    1  UNL1        0.0016
     22 C         -31.4433   -5.5415   29.1480 C.ar    1  UNL1        0.0187
     23 C         -30.8557   -4.5453   28.3906 C.ar    1  UNL1        0.0016
     24 C         -30.5679   -3.3051   28.9439 C.ar    1  UNL1        0.0013
     25 C         -31.7000   -6.8697   28.4828 C.2     1  UNL1        0.0931
     26 N         -31.4978   -7.0279   27.2069 N.2     1  UNL1       -0.2689
     27 C         -31.6081   -8.2438   26.6123 C.3     1  UNL1        0.1256
     28 C         -31.2211   -8.3120   25.2219 C.3     1  UNL1        0.0283
@<TRIPOS>BOND
     1     2     7    1
     2     7     8    1
     3     7    14    1
     4     3    20    1
     5    22    25    1
     6    25    26    2
     7    26    27    1
     8    27    28    1
     9    14    15   ar
    10    15    16   ar
    11    16    17   ar
    12    17    18   ar
    13    19    14   ar
    14    18    19   ar
    15    19    24   ar
    16    24    23   ar
    17    23    22   ar
    18    22    21   ar
    19    21    18   ar
    20     1     2   ar
    21     2     5   ar
    22     5     6   ar
    23     6     4   ar
    24     4     3   ar
    25     3     1   ar
    26     8     9   ar
    27     9    10   ar
    28    10    11   ar
    29    11    13   ar
    30    13    12   ar
    31    12     8   ar
