@<TRIPOS>MOLECULE
No_4828-gen_results/8p0m/2024-11-26-14-13-15/
 16 17 0 0 0
SMALL
GASTEIGER

@<TRIPOS>ATOM
      1 C         -28.0162   -0.8135   28.8779 C.ar    1  UNL1       -0.0000
      2 C         -28.4690   -0.7850   29.8287 C.ar    1  UNL1       -0.0000
      3 C         -28.1816    0.4277   28.1134 C.ar    1  UNL1       -0.0000
      4 C         -29.3519    0.6041   27.4037 C.ar    1  UNL1       -0.0000
      5 C         -29.4078    1.3882   26.3585 C.ar    1  UNL1       -0.0000
      6 C         -28.3732   -1.9693   30.7332 C.ar    1  UNL1        0.0000
      7 C         -27.5159   -3.0218   30.3018 C.ar    1  UNL1        0.0000
      8 C         -26.6379   -2.7983   29.3154 C.ar    1  UNL1        0.0000
      9 C         -26.7819   -1.5953   28.6133 C.ar    1  UNL1       -0.0000
     10 C         -27.0820    1.2295   27.6534 C.ar    1  UNL1       -0.0003
     11 C         -25.7114    1.0483   28.2985 C.2     1  UNL1       -0.0046
     12 C         -27.1568    2.2458   26.7483 C.ar    1  UNL1       -0.0000
     13 C         -28.4374    2.4471   26.1388 C.ar    1  UNL1       -0.0000
     14 C         -24.5799    0.9225   27.4895 C.2     1  UNL1       -0.0261
     15 C         -23.3531    0.8879   28.1008 C.3     1  UNL1        0.0260
     16 C         -22.1139    1.0127   27.3756 C.3     1  UNL1        0.0050
@<TRIPOS>BOND
     1     1     3    1
     2    10    11    1
     3    11    14    2
     4    14    15    1
     5    15    16    1
     6     3     4   ar
     7     4     5   ar
     8     5    13   ar
     9    13    12   ar
    10    12    10   ar
    11    10     3   ar
    12     1     2   ar
    13     2     6   ar
    14     6     7   ar
    15     7     8   ar
    16     8     9   ar
    17     9     1   ar
