@<TRIPOS>MOLECULE
No_483-gen_results/8p0m/2024-11-26-14-13-15/
 23 25 0 0 0
SMALL
GASTEIGER

@<TRIPOS>ATOM
      1 C         -28.0162   -0.8135   28.8779 C.ar    1  UNL1        0.0031
      2 C         -27.0636   -0.1189   28.6079 C.ar    1  UNL1        0.0104
      3 C         -26.9716    0.7139   27.5060 C.ar    1  UNL1        0.0558
      4 C         -28.1053    0.7744   26.6421 C.ar    1  UNL1        0.0158
      5 C         -29.2041    0.1179   27.0477 C.ar    1  UNL1        0.1369
      6 C         -29.2127   -0.6088   28.1281 C.ar    1  UNL1        0.0294
      7 CL        -25.5373    1.5799   27.0783 Cl      1  UNL1       -0.0825
      8 F         -30.2623    0.2199   26.2435 F       1  UNL1       -0.2045
      9 C         -25.8356   -0.2344   29.6062 C.ar    1  UNL1        0.0008
     10 C         -25.2737   -1.3869   29.7982 C.ar    1  UNL1        0.0000
     11 C         -24.1339   -1.5071   30.6206 C.ar    1  UNL1        0.0000
     12 C         -23.5733   -0.3352   31.2108 C.ar    1  UNL1        0.0000
     13 C         -24.1281    0.9004   30.8829 C.ar    1  UNL1        0.0000
     14 C         -25.2874    0.9544   30.0475 C.ar    1  UNL1        0.0000
     15 C         -28.2014    1.6346   25.4674 C.3     1  UNL1        0.0297
     16 C         -27.8096    2.7752   25.5228 C.3     1  UNL1        0.0308
     17 C         -28.4665    1.0038   24.2677 C.3     1  UNL1        0.0051
     18 C         -28.3681    3.8687   25.9042 C.ar    1  UNL1       -0.0219
     19 C         -29.7933    3.9806   26.0722 C.ar    1  UNL1       -0.0043
     20 C         -30.4127    5.1752   26.4934 C.ar    1  UNL1       -0.0003
     21 C         -29.5965    6.2103   26.9594 C.ar    1  UNL1       -0.0000
     22 C         -28.2259    6.2200   26.8696 C.ar    1  UNL1       -0.0003
     23 C         -27.6476    5.1243   26.4033 C.ar    1  UNL1       -0.0043
@<TRIPOS>BOND
     1     3     7    1
     2     5     8    1
     3     2     9    1
     4     4    15    1
     5    15    16    1
     6    15    17    1
     7    16    18    1
     8    18    19   ar
     9    19    20   ar
    10    20    21   ar
    11    21    22   ar
    12    22    23   ar
    13    23    18   ar
    14     1     2   ar
    15     2     3   ar
    16     3     4   ar
    17     4     5   ar
    18     5     6   ar
    19     6     1   ar
    20     9    10   ar
    21    10    11   ar
    22    11    12   ar
    23    12    13   ar
    24    13    14   ar
    25    14     9   ar
