@<TRIPOS>MOLECULE
No_4830-gen_results/8p0m/2024-11-26-14-13-15/
 18 19 0 0 0
SMALL
GASTEIGER

@<TRIPOS>ATOM
      1 C         -28.0162   -0.8135   28.8779 C.ar    1  UNL1        0.0136
      2 C         -28.4690   -0.7850   29.8287 C.ar    1  UNL1        0.0721
      3 C         -26.5042   -0.7777   28.8766 C.ar    1  UNL1        0.0690
      4 C         -25.8103   -0.8531   30.1028 C.ar    1  UNL1        0.1514
      5 C         -27.9906   -0.8916   31.2257 C.ar    1  UNL1        0.0070
      6 C         -26.6042   -0.8676   31.2652 C.ar    1  UNL1        0.0379
      7 C         -30.0739   -0.8360   29.8615 C.3     1  UNL1        0.4186
      8 F         -30.5916   -1.8281   30.0957 F       1  UNL1       -0.1659
      9 F         -30.4130   -0.3874   28.6120 F       1  UNL1       -0.1659
     10 F         -30.5350    0.1554   30.6423 F       1  UNL1       -0.1659
     11 BR        -25.4148   -0.7039   27.3441 Br      1  UNL1       -0.0458
     12 O         -24.4969   -0.7862   30.2043 O.3     1  UNL1       -0.4530
     13 C         -23.7666    0.0301   29.4904 C.ar    1  UNL1        0.1453
     14 C         -22.3653   -0.5354   29.3850 C.ar    1  UNL1        0.0375
     15 C         -21.4296    0.1385   28.5033 C.ar    1  UNL1        0.0031
     16 C         -21.8395    1.3552   27.9985 C.ar    1  UNL1        0.0002
     17 C         -23.1058    1.9575   28.1797 C.ar    1  UNL1        0.0031
     18 C         -24.0338    1.2416   29.0119 C.ar    1  UNL1        0.0375
@<TRIPOS>BOND
     1     2     7    1
     2     7     8    1
     3     7     9    1
     4     7    10    1
     5     3    11    1
     6     4    12    1
     7    12    13    1
     8    13    14   ar
     9    14    15   ar
    10    15    16   ar
    11    16    17   ar
    12    17    18   ar
    13    18    13   ar
    14     1     2   ar
    15     2     5   ar
    16     5     6   ar
    17     6     4   ar
    18     4     3   ar
    19     3     1   ar
