@<TRIPOS>MOLECULE
No_4831-gen_results/8p0m/2024-11-26-14-13-15/
 25 27 0 0 0
SMALL
GASTEIGER

@<TRIPOS>ATOM
      1 N         -28.0544   -1.0498   28.7246 N.am    1  UNL1       -0.2560
      2 C         -26.9659   -0.4722   28.7709 C.2     1  UNL1        0.2293
      3 C         -25.9289   -1.0196   29.5059 C.3     1  UNL1        0.0828
      4 C         -26.0392   -2.3100   29.9652 C.3     1  UNL1        0.0112
      5 C         -27.3097   -2.8081   30.1726 C.3     1  UNL1        0.0224
      6 C         -28.3055   -2.2717   29.3674 C.3     1  UNL1        0.0983
      7 O         -26.7897    0.7257   28.1988 O.2     1  UNL1       -0.2745
      8 C         -29.2526   -0.3735   28.1735 C.ar    1  UNL1        0.0886
      9 C         -30.3416   -0.1894   28.9776 C.ar    1  UNL1        0.1589
     10 C         -31.4848   -0.0058   28.3484 C.ar    1  UNL1        0.0388
     11 C         -31.4636    0.0991   26.9803 C.ar    1  UNL1        0.0032
     12 C         -30.3596    0.2055   26.4044 C.ar    1  UNL1        0.0015
     13 C         -29.1792   -0.2378   26.8214 C.ar    1  UNL1        0.0180
     14 C         -24.5033   -0.4740   29.3929 C.3     1  UNL1        0.0533
     15 C         -24.0595    0.0992   28.5861 C.2     1  UNL1       -0.0100
     16 C         -22.7092    0.6153   28.5580 C.2     1  UNL1        0.0685
     17 N         -22.0801   -0.1564   29.5256 N.pl3   1  UNL1       -0.2394
     18 C         -23.3641   -0.9888   30.1981 C.3     1  UNL1        0.1167
     19 C         -21.8702    1.4237   27.8074 C.3     1  UNL1        0.1843
     20 O         -22.3791    1.8795   26.6740 O.3     1  UNL1       -0.3450
     21 C         -23.6530    1.9776   26.5027 C.3     1  UNL1        0.1746
     22 O         -30.2773   -0.4925   30.3094 O.3     1  UNL1       -0.4495
     23 C         -30.0312    0.5521   31.1224 C.2     1  UNL1        0.1750
     24 C         -30.4964    1.5738   31.0999 C.2     1  UNL1        0.0148
     25 C         -30.1630    2.6478   31.9873 C.3     1  UNL1        0.0341
@<TRIPOS>BOND
     1     1     2   am
     2     2     3    1
     3     3     4    1
     4     4     5    1
     5     1     6    1
     6     5     6    1
     7     2     7    2
     8     1     8    1
     9     3    14    1
    10    14    15    1
    11    15    16    2
    12    16    17    1
    13    14    18    1
    14    17    18    1
    15    16    19    1
    16    19    20    1
    17    20    21    1
    18     9    22    1
    19    22    23    1
    20    23    24    2
    21    24    25    1
    22     8     9   ar
    23     9    10   ar
    24    10    11   ar
    25    11    12   ar
    26    12    13   ar
    27    13     8   ar
