@<TRIPOS>MOLECULE
No_4832-gen_results/8p0m/2024-11-26-14-13-15/
 11 11 0 0 0
SMALL
GASTEIGER

@<TRIPOS>ATOM
      1 C         -28.0162   -0.8135   28.8779 C.ar    1  UNL1        0.0001
      2 C         -27.0636   -0.1189   28.6079 C.ar    1  UNL1        0.0000
      3 C         -27.0010    0.6913   27.4910 C.ar    1  UNL1        0.0001
      4 C         -28.1373    0.7363   26.6350 C.ar    1  UNL1        0.0046
      5 C         -29.2360    0.0765   27.0690 C.ar    1  UNL1        0.0554
      6 C         -29.2177   -0.6429   28.1747 C.ar    1  UNL1        0.0046
      7 C         -30.4152    0.1590   26.1820 C.2     1  UNL1        0.2687
      8 N         -31.3727   -0.5052   26.4854 N.am    1  UNL1       -0.1788
      9 O         -30.2154    0.5174   24.9703 O.2     1  UNL1       -0.2680
     10 C         -32.3158   -0.7224   26.1276 C.2     1  UNL1        0.0629
     11 C         -33.4111   -1.5730   26.6988 C.3     1  UNL1        0.0504
@<TRIPOS>BOND
     1     5     7    1
     2     7     8    1
     3     7     9    2
     4     8    10    2
     5    10    11    1
     6     1     2   ar
     7     2     3   ar
     8     3     4   ar
     9     4     5   ar
    10     5     6   ar
    11     6     1   ar
