@<TRIPOS>MOLECULE
No_4833-gen_results/8p0m/2024-11-26-14-13-15/
 27 29 0 0 0
SMALL
GASTEIGER

@<TRIPOS>ATOM
      1 C         -28.0162   -0.8135   28.8779 C.ar    1  UNL1        0.0384
      2 C         -28.4690   -0.7850   29.8287 C.ar    1  UNL1        0.0784
      3 C         -26.5455   -0.8762   28.8500 C.ar    1  UNL1        0.1676
      4 C         -25.8041   -1.0324   30.0571 C.ar    1  UNL1        0.1674
      5 C         -27.9437   -0.9869   31.2075 C.ar    1  UNL1        0.0089
      6 C         -26.5825   -1.0386   31.2231 C.ar    1  UNL1        0.0322
      7 F         -24.5402   -1.0840   30.0699 F       1  UNL1       -0.2018
      8 C         -30.0923   -0.7274   29.8886 C.2     1  UNL1        0.3458
      9 O         -30.6771   -0.1372   30.8139 O.3     1  UNL1       -0.4210
     10 O         -30.5978   -1.0733   28.8753 O.2     1  UNL1       -0.2445
     11 F         -25.7738   -0.8613   27.7440 F       1  UNL1       -0.2018
     12 C         -31.9681   -0.1556   31.0416 C.ar    1  UNL1        0.1488
     13 C         -32.8132    0.7723   30.7659 C.ar    1  UNL1        0.0377
     14 C         -34.1320    0.6939   30.8551 C.ar    1  UNL1        0.0046
     15 C         -32.4402   -1.3758   31.5863 C.ar    1  UNL1        0.0377
     16 C         -33.8291   -1.5320   31.7455 C.ar    1  UNL1        0.0046
     17 C         -34.6528   -0.4804   31.4455 C.ar    1  UNL1        0.0178
     18 C         -36.1048   -0.6514   31.6627 C.ar    1  UNL1        0.0813
     19 N         -36.8065   -1.0989   31.1024 N.ar    1  UNL1       -0.2439
     20 C         -38.1285   -1.1966   31.3756 C.ar    1  UNL1        0.0988
     21 C         -36.4377    0.1285   32.8903 C.ar    1  UNL1        0.0230
     22 C         -37.7507    0.1192   33.2683 C.ar    1  UNL1        0.0745
     23 C         -38.1833    0.8003   34.4643 C.3     1  UNL1        0.4187
     24 C         -38.5767   -0.5820   32.4550 C.ar    1  UNL1        0.0245
     25 F         -39.1584    0.7457   34.8078 F       1  UNL1       -0.1659
     26 F         -37.7640    2.1566   34.4001 F       1  UNL1       -0.1659
     27 F         -37.2361    0.3548   35.4676 F       1  UNL1       -0.1659
@<TRIPOS>BOND
     1     4     7    1
     2     2     8    1
     3     8     9    1
     4     8    10    2
     5     3    11    1
     6     9    12    1
     7    17    18    1
     8    22    23    1
     9    23    25    1
    10    23    26    1
    11    23    27    1
    12    12    13   ar
    13    13    14   ar
    14    14    17   ar
    15    17    16   ar
    16    16    15   ar
    17    15    12   ar
    18    18    19   ar
    19    19    20   ar
    20    20    24   ar
    21    24    22   ar
    22    22    21   ar
    23    21    18   ar
    24     1     2   ar
    25     2     5   ar
    26     5     6   ar
    27     6     4   ar
    28     4     3   ar
    29     3     1   ar
