@<TRIPOS>MOLECULE
No_4834-gen_results/8p0m/2024-11-26-14-13-15/
 16 16 0 0 0
SMALL
GASTEIGER

@<TRIPOS>ATOM
      1 C         -28.0162   -0.8135   28.8779 C.ar    1  UNL1       -0.0026
      2 C         -28.4690   -0.7850   29.8287 C.ar    1  UNL1        0.0002
      3 C         -28.1960    0.3478   28.0550 C.ar    1  UNL1       -0.0019
      4 C         -29.0191    1.3501   28.3782 C.ar    1  UNL1        0.0041
      5 C         -29.4107    0.1803   30.3782 C.ar    1  UNL1        0.0067
      6 C         -29.6059    1.2495   29.6193 C.ar    1  UNL1        0.0343
      7 C         -27.4478    0.3799   26.7122 C.3     1  UNL1        0.1178
      8 N         -26.6377    1.4000   26.5197 N.pl3   1  UNL1       -0.3011
      9 C         -25.3413    1.1683   26.1893 C.2     1  UNL1        0.0575
     10 C         -24.3803    2.2433   26.2180 C.2     1  UNL1       -0.0007
     11 C         -23.0146    1.9924   26.3332 C.3     1  UNL1        0.1158
     12 C         -22.3126    1.9050   27.5357 C.2     1  UNL1        0.2652
     13 N         -20.9942    1.4438   27.4552 N.am    1  UNL1       -0.0875
     14 O         -22.9537    1.9219   28.6612 O.2     1  UNL1       -0.2713
     15 C         -27.1623    2.7081   26.4638 C.3     1  UNL1        0.1125
     16 BR        -30.6259    2.7510   30.0726 Br      1  UNL1       -0.0490
@<TRIPOS>BOND
     1     3     7    1
     2     7     8    1
     3     8     9    1
     4     9    10    2
     5    10    11    1
     6    11    12    1
     7    12    13   am
     8    12    14    2
     9     8    15    1
    10     6    16    1
    11     1     2   ar
    12     2     5   ar
    13     5     6   ar
    14     6     4   ar
    15     4     3   ar
    16     3     1   ar
