@<TRIPOS>MOLECULE
No_4835-gen_results/8p0m/2024-11-26-14-13-15/
 15 15 0 0 0
SMALL
GASTEIGER

@<TRIPOS>ATOM
      1 F         -28.0727   -1.2542   28.5316 F       1  UNL1       -0.2007
      2 C         -27.3591   -0.3792   28.7224 C.ar    1  UNL1        0.1802
      3 C         -26.3323   -0.6441   29.4520 C.ar    1  UNL1        0.1115
      4 C         -27.5334    0.8592   28.0521 C.ar    1  UNL1        0.1673
      5 C         -26.4657    1.8236   28.0839 C.ar    1  UNL1        0.0573
      6 C         -25.1944    0.4069   29.6280 C.ar    1  UNL1        0.0271
      7 C         -25.3539    1.6402   28.9685 C.ar    1  UNL1        0.0925
      8 O         -28.5242    1.0651   27.2642 O.3     1  UNL1       -0.4731
      9 N         -24.3617    2.5380   29.1349 N.pl3   1  UNL1       -0.1279
     10 C         -28.3844    0.9850   25.9292 C.3     1  UNL1        0.2055
     11 C         -26.0203   -1.8599   30.2553 C.2     1  UNL1        0.3901
     12 O         -25.9317   -2.0497   31.3088 O.co2   1  UNL1       -0.2405
     13 O         -26.4299   -3.0222   29.4960 O.co2   1  UNL1       -0.2405
     14 C         -29.2720    1.7242   25.2335 C.3     1  UNL1        0.0473
     15 C         -30.5534    1.5345   25.6352 C.3     1  UNL1        0.0040
@<TRIPOS>BOND
     1     1     2    1
     2     4     8    1
     3     7     9    1
     4     8    10    1
     5     3    11    1
     6    11    12   ar
     7    11    13   ar
     8    10    14    1
     9    14    15    1
    10     2     3   ar
    11     3     6   ar
    12     6     7   ar
    13     7     5   ar
    14     5     4   ar
    15     4     2   ar
