@<TRIPOS>MOLECULE
No_4836-gen_results/8p0m/2024-11-26-14-13-15/
 17 18 0 0 0
SMALL
GASTEIGER

@<TRIPOS>ATOM
      1 C         -28.0162   -0.8135   28.8779 C.ar    1  UNL1        0.0145
      2 C         -27.0636   -0.1189   28.6079 C.ar    1  UNL1        0.0579
      3 C         -26.8756    1.1325   28.9134 C.ar    1  UNL1        0.0145
      4 C         -27.9014    1.8066   29.6436 C.ar    1  UNL1        0.0384
      5 C         -29.0458   -0.2316   29.7181 C.ar    1  UNL1        0.0384
      6 C         -28.9402    1.0517   30.0597 C.ar    1  UNL1        0.1454
      7 CL        -25.6771   -0.6845   27.6168 Cl      1  UNL1       -0.0822
      8 O         -29.9376    1.6015   30.8383 O.3     1  UNL1       -0.4535
      9 C         -31.0124    1.3822   30.9283 C.ar    1  UNL1        0.1453
     10 C         -32.0703    2.4300   30.9340 C.ar    1  UNL1        0.0375
     11 C         -33.4181    2.1332   30.9284 C.ar    1  UNL1        0.0031
     12 C         -31.6264    0.0885   31.0242 C.ar    1  UNL1        0.0375
     13 C         -32.9766   -0.2059   31.0577 C.ar    1  UNL1        0.0031
     14 C         -33.8603    0.8544   31.0627 C.ar    1  UNL1       -0.0001
     15 C         -35.2828    0.5348   31.1284 C.2     1  UNL1       -0.0046
     16 C         -35.9861    1.0080   32.2045 C.2     1  UNL1       -0.0258
     17 C         -37.3920    0.7387   32.3062 C.3     1  UNL1        0.0307
@<TRIPOS>BOND
     1     2     7    1
     2     6     8    1
     3     8     9    1
     4    14    15    1
     5    15    16    2
     6    16    17    1
     7     9    10   ar
     8    10    11   ar
     9    11    14   ar
    10    14    13   ar
    11    13    12   ar
    12    12     9   ar
    13     1     2   ar
    14     2     3   ar
    15     3     4   ar
    16     4     6   ar
    17     6     5   ar
    18     5     1   ar
