@<TRIPOS>MOLECULE
No_4837-gen_results/8p0m/2024-11-26-14-13-15/
 31 34 0 0 0
SMALL
GASTEIGER

@<TRIPOS>ATOM
      1 C         -28.0162   -0.8135   28.8779 C.ar    1  UNL1        0.0152
      2 C         -28.4690   -0.7850   29.8287 C.ar    1  UNL1        0.0581
      3 C         -26.5042   -0.7777   28.8766 C.ar    1  UNL1        0.0013
      4 C         -25.8103   -0.8531   30.1028 C.ar    1  UNL1        0.0001
      5 C         -27.9906   -0.8916   31.2257 C.ar    1  UNL1        0.0152
      6 C         -26.6042   -0.8676   31.2652 C.ar    1  UNL1        0.0013
      7 N         -29.9765   -0.8288   29.8497 N.am    1  UNL1       -0.2373
      8 C         -30.5795   -0.1232   28.9820 C.ar    1  UNL1        0.0581
      9 C         -31.8655   -0.6748   28.4847 C.ar    1  UNL1        0.0152
     10 C         -30.7114   -1.7353   30.6572 C.2     1  UNL1        0.2333
     11 C         -30.1954   -2.5383   31.5034 C.3     1  UNL1        0.0857
     12 C         -32.5075    0.0393   27.5089 C.ar    1  UNL1        0.0013
     13 C         -31.9447    1.2224   26.9891 C.ar    1  UNL1        0.0001
     14 C         -30.7663    1.7038   27.4100 C.ar    1  UNL1        0.0013
     15 C         -30.0650    1.0408   28.3767 C.ar    1  UNL1        0.0152
     16 O         -31.9386   -1.7381   30.5790 O.2     1  UNL1       -0.2742
     17 C         -30.3914   -2.3342   32.9406 C.3     1  UNL1        0.0313
     18 C         -29.5051   -3.7305   31.0912 C.3     1  UNL1        0.0358
     19 C         -30.1974   -4.8659   30.6673 C.ar    1  UNL1       -0.0217
     20 C         -30.8401   -5.4679   31.2512 C.ar    1  UNL1       -0.0043
     21 C         -31.5760   -6.7202   30.6808 C.ar    1  UNL1       -0.0003
     22 C         -31.3744   -6.9500   29.3163 C.ar    1  UNL1       -0.0000
     23 C         -30.6015   -6.0593   28.5397 C.ar    1  UNL1       -0.0003
     24 C         -29.9455   -4.9688   29.1679 C.ar    1  UNL1       -0.0043
     25 C         -31.1882   -1.4297   33.4324 C.ar    1  UNL1       -0.0220
     26 C         -32.0231   -0.8581   33.1951 C.ar    1  UNL1       -0.0043
     27 C         -32.7285    0.1856   33.9388 C.ar    1  UNL1       -0.0003
     28 C         -32.2727    0.4140   35.1978 C.ar    1  UNL1       -0.0000
     29 C         -31.1912   -0.2522   35.6643 C.ar    1  UNL1       -0.0003
     30 C         -30.5415   -1.1770   34.9069 C.ar    1  UNL1       -0.0043
     31 C         -29.6425   -3.3227   33.8463 C.3     1  UNL1        0.0052
@<TRIPOS>BOND
     1     2     7    1
     2     7     8    1
     3     7    10   am
     4    10    11    1
     5    10    16    2
     6    11    17    1
     7    11    18    1
     8    17    25    1
     9    17    31    1
    10    18    19    1
    11    25    26   ar
    12    26    27   ar
    13    27    28   ar
    14    28    29   ar
    15    29    30   ar
    16    30    25   ar
    17     8     9   ar
    18     9    12   ar
    19    12    13   ar
    20    13    14   ar
    21    14    15   ar
    22    15     8   ar
    23     1     2   ar
    24     2     5   ar
    25     5     6   ar
    26     6     4   ar
    27     4     3   ar
    28     3     1   ar
    29    19    20   ar
    30    20    21   ar
    31    21    22   ar
    32    22    23   ar
    33    23    24   ar
    34    24    19   ar
