@<TRIPOS>MOLECULE
No_4838-gen_results/8p0m/2024-11-26-14-13-15/
 19 20 0 0 0
SMALL
GASTEIGER

@<TRIPOS>ATOM
      1 O         -28.1229   -1.3353   28.4874 O.2     1  UNL1       -0.2730
      2 C         -27.0637   -0.8242   28.8687 C.2     1  UNL1        0.2450
      3 C         -26.9592    0.0926   29.7582 C.3     1  UNL1        0.1010
      4 N         -25.8012   -1.3566   28.3971 N.am    1  UNL1       -0.2046
      5 C         -27.8641    0.8180   30.2806 C.ar    1  UNL1       -0.0138
      6 C         -24.5359   -0.9360   28.7790 C.3     1  UNL1        0.1264
      7 C         -24.4578    0.1103   29.6230 C.3     1  UNL1        0.1258
      8 C         -25.5652    0.6747   30.1471 C.3     1  UNL1        0.0266
      9 C         -28.8130    1.3484   29.6187 C.ar    1  UNL1       -0.0036
     10 C         -29.9484    2.0060   30.1316 C.ar    1  UNL1        0.0063
     11 C         -28.0605    0.7848   31.7499 C.ar    1  UNL1       -0.0036
     12 C         -29.1505    1.4338   32.3831 C.ar    1  UNL1        0.0063
     13 C         -30.0688    2.0643   31.5391 C.ar    1  UNL1        0.0798
     14 C         -23.0487    0.5247   30.0066 C.2     1  UNL1        0.3661
     15 O         -22.0037   -0.0390   29.6418 O.co2   1  UNL1       -0.2456
     16 O         -22.9583    1.5912   30.8857 O.co2   1  UNL1       -0.2456
     17 C         -31.2222    2.7824   32.1357 C.2     1  UNL1        0.3878
     18 O         -31.0445    3.6401   32.9054 O.co2   1  UNL1       -0.2406
     19 O         -32.3564    2.1629   31.9515 O.co2   1  UNL1       -0.2406
@<TRIPOS>BOND
     1     1     2    2
     2     2     3    1
     3     2     4   am
     4     3     5    1
     5     6     7    1
     6     3     8    1
     7     7     8    1
     8     7    14    1
     9    14    15   ar
    10    14    16   ar
    11    13    17    1
    12    17    18   ar
    13    17    19   ar
    14     6     4    1
    15     5     9   ar
    16     9    10   ar
    17    10    13   ar
    18    13    12   ar
    19    12    11   ar
    20    11     5   ar
