@<TRIPOS>MOLECULE
No_4839-gen_results/8p0m/2024-11-26-14-13-15/
 35 37 0 0 0
SMALL
GASTEIGER

@<TRIPOS>ATOM
      1 C         -28.0162   -0.8135   28.8779 C.ar    1  UNL1        0.0030
      2 C         -28.4690   -0.7850   29.8287 C.ar    1  UNL1        0.0756
      3 C         -28.1960    0.3478   28.0550 C.ar    1  UNL1       -0.0073
      4 C         -29.0191    1.3501   28.3782 C.ar    1  UNL1        0.0032
      5 C         -29.4107    0.1803   30.3782 C.ar    1  UNL1        0.0130
      6 C         -29.6059    1.2495   29.6193 C.ar    1  UNL1        0.0797
      7 C         -27.4478    0.3799   26.7122 C.3     1  UNL1        0.1478
      8 C         -25.9806    0.2548   26.7837 C.ar    1  UNL1       -0.0075
      9 C         -25.1964    1.0470   25.9940 C.ar    1  UNL1       -0.0034
     10 C         -23.8162    1.1039   26.1817 C.ar    1  UNL1       -0.0001
     11 C         -23.2215    0.6281   27.3851 C.ar    1  UNL1        0.0066
     12 C         -24.0826   -0.0651   28.2761 C.ar    1  UNL1        0.0795
     13 C         -25.4322   -0.1919   28.0477 C.ar    1  UNL1        0.0032
     14 C         -23.4437   -0.5525   29.5238 C.2     1  UNL1        0.3877
     15 O         -23.5040   -1.7814   29.6615 O.co2   1  UNL1       -0.2406
     16 O         -22.4447    0.1549   30.0171 O.co2   1  UNL1       -0.2406
     17 C         -28.1066    0.3834   25.5292 C.2     1  UNL1        0.3724
     18 O         -28.5895   -0.3080   24.8739 O.co2   1  UNL1       -0.2449
     19 O         -27.9266    1.7579   24.9365 O.co2   1  UNL1       -0.2449
     20 C         -30.6872    2.1904   30.0760 C.2     1  UNL1        0.3877
     21 O         -30.6475    3.3449   29.8991 O.co2   1  UNL1       -0.2406
     22 O         -31.4696    1.7187   30.9811 O.co2   1  UNL1       -0.2406
     23 C         -28.3011   -1.9894   30.9022 C.2     1  UNL1        0.3411
     24 O         -27.9547   -1.7914   31.9513 O.2     1  UNL1       -0.2449
     25 O         -28.4945   -3.1651   30.3582 O.3     1  UNL1       -0.4474
     26 C         -29.3746   -3.9941   30.7608 C.3     1  UNL1        0.1888
     27 C         -30.2106   -4.4817   29.7069 C.3     1  UNL1        0.1347
     28 N         -30.8569   -5.6393   30.0169 N.pl3   1  UNL1       -0.3033
     29 C         -31.5902   -6.2615   29.1168 C.2     1  UNL1        0.0614
     30 C         -30.8648   -6.2126   31.3160 C.3     1  UNL1        0.0911
     31 C         -30.0116   -5.7740   32.3273 C.3     1  UNL1        0.0252
     32 C         -29.1965   -4.6518   32.0209 C.3     1  UNL1        0.0472
     33 C         -31.8051   -7.5777   28.9385 C.2     1  UNL1        0.0158
     34 C         -32.4393   -8.1734   27.8435 C.2     1  UNL1        0.0013
     35 C         -32.7439   -7.3415   26.7298 C.2     1  UNL1        0.0000
@<TRIPOS>BOND
     1     3     7    1
     2     7     8    1
     3    12    14    1
     4    14    15   ar
     5    14    16   ar
     6     7    17    1
     7    17    18   ar
     8    17    19   ar
     9     6    20    1
    10    20    21   ar
    11    20    22   ar
    12     2    23    1
    13    23    24    2
    14    23    25    1
    15    25    26    1
    16    26    27    1
    17    27    28    1
    18    28    29    1
    19    28    30    1
    20    26    32    1
    21    31    32    1
    22    29    33    2
    23    33    34    1
    24    34    35    2
    25    31    30    1
    26     8     9   ar
    27     9    10   ar
    28    10    11   ar
    29    11    12   ar
    30    12    13   ar
    31    13     8   ar
    32     1     2   ar
    33     2     5   ar
    34     5     6   ar
    35     6     4   ar
    36     4     3   ar
    37     3     1   ar
