@<TRIPOS>MOLECULE
No_484-gen_results/8p0m/2024-11-26-14-13-15/
 18 20 0 0 0
SMALL
GASTEIGER

@<TRIPOS>ATOM
      1 C         -28.0162   -0.8135   28.8779 C.ar    1  UNL1        0.0000
      2 C         -27.0636   -0.1189   28.6079 C.ar    1  UNL1        0.0000
      3 C         -25.7923   -0.4302   29.0761 C.ar    1  UNL1        0.0000
      4 C         -25.5756   -1.5654   29.9363 C.ar    1  UNL1        0.0000
      5 C         -26.7354   -2.3004   30.2173 C.ar    1  UNL1        0.0000
      6 C         -27.9184   -1.9537   29.7629 C.ar    1  UNL1        0.0000
      7 C         -27.1057    1.1023   27.7593 C.ar    1  UNL1        0.0000
      8 C         -26.7157    2.2350   27.9945 C.ar    1  UNL1        0.0000
      9 C         -27.6806    0.8547   26.4259 C.ar    1  UNL1        0.0000
     10 C         -26.0318    2.5935   29.1910 C.ar    1  UNL1        0.0000
     11 C         -26.8615    3.3798   27.0755 C.ar    1  UNL1        0.0000
     12 C         -27.4568    3.2690   25.8921 C.ar    1  UNL1        0.0000
     13 C         -27.8759    1.9029   25.5140 C.ar    1  UNL1        0.0000
     14 C         -24.6288    2.4459   29.3090 C.ar    1  UNL1        0.0000
     15 C         -26.7758    2.8501   30.4049 C.ar    1  UNL1        0.0000
     16 C         -26.2388    2.6327   31.6617 C.ar    1  UNL1        0.0000
     17 C         -23.9762    2.4936   30.6348 C.ar    1  UNL1        0.0000
     18 C         -24.7937    2.6144   31.7993 C.ar    1  UNL1        0.0000
@<TRIPOS>BOND
     1     2     7    1
     2     8    10    1
     3     1     2   ar
     4     2     3   ar
     5     3     4   ar
     6     4     5   ar
     7     5     6   ar
     8     6     1   ar
     9     7     8   ar
    10     8    11   ar
    11    11    12   ar
    12    12    13   ar
    13    13     9   ar
    14     9     7   ar
    15    10    14   ar
    16    14    17   ar
    17    17    18   ar
    18    18    16   ar
    19    16    15   ar
    20    15    10   ar
