@<TRIPOS>MOLECULE
No_4840-gen_results/8p0m/2024-11-26-14-13-15/
 28 29 0 0 0
SMALL
GASTEIGER

@<TRIPOS>ATOM
      1 C         -28.0162   -0.8135   28.8779 C.ar    1  UNL1        0.0066
      2 C         -27.0636   -0.1189   28.6079 C.ar    1  UNL1        0.0004
      3 C         -26.9287    1.1713   29.0083 C.ar    1  UNL1        0.0064
      4 C         -25.7702    2.0341   28.6884 C.ar    1  UNL1        0.0019
      5 C         -24.7141    1.4431   27.9188 C.ar    1  UNL1        0.0240
      6 C         -24.8590    0.0783   27.5836 C.ar    1  UNL1        0.0017
      7 C         -25.9647   -0.6606   27.9164 C.ar    1  UNL1        0.0001
      8 C         -28.6510   -0.6086   30.2543 C.ar    1  UNL1        0.0800
      9 C         -28.9359    0.6863   30.5312 C.ar    1  UNL1        0.0132
     10 C         -27.8080    1.6040   30.1303 C.ar    1  UNL1        0.0800
     11 C         -23.5671    2.1807   27.4594 C.2     1  UNL1        0.1576
     12 N         -23.3876    2.8613   26.5538 N.2     1  UNL1       -0.1432
     13 C         -22.2713    1.8663   28.2590 C.2     1  UNL1        0.2843
     14 N         -22.2429    1.0819   29.2810 N.am    1  UNL1       -0.2003
     15 O         -21.1717    2.3937   27.9052 O.2     1  UNL1       -0.2666
     16 C         -27.7608    2.9807   30.6336 C.2     1  UNL1        0.3878
     17 O         -28.5898    3.2913   31.4222 O.co2   1  UNL1       -0.2406
     18 O         -26.6072    3.6078   30.5682 O.co2   1  UNL1       -0.2406
     19 C         -23.3531    0.4127   29.9260 C.3     1  UNL1        0.1157
     20 C         -22.8453   -0.9204   30.6511 C.3     1  UNL1        0.0290
     21 C         -23.9605   -1.6458   31.0799 C.3     1  UNL1        0.0684
     22 C         -25.2513   -1.6248   30.2241 C.3     1  UNL1        0.2642
     23 C         -26.1586   -2.3308   31.2227 C.3     1  UNL1        0.0722
     24 C         -29.6155   -1.6164   30.7568 C.2     1  UNL1        0.3878
     25 O         -30.7258   -1.7442   30.4591 O.co2   1  UNL1       -0.2406
     26 O         -29.0610   -2.4203   31.7140 O.co2   1  UNL1       -0.2406
     27 F         -25.5915   -0.3165   30.3501 F       1  UNL1       -0.2043
     28 F         -25.0229   -2.1353   29.2069 F       1  UNL1       -0.2043
@<TRIPOS>BOND
     1     5    11    1
     2    11    12    2
     3    11    13    1
     4    13    14   am
     5    13    15    2
     6    10    16    1
     7    16    17   ar
     8    16    18   ar
     9    14    19    1
    10    19    20    1
    11    20    21    1
    12    21    22    1
    13    22    23    1
    14     8    24    1
    15    24    25   ar
    16    24    26   ar
    17    22    27    1
    18    22    28    1
    19     3     4   ar
    20     4     5   ar
    21     5     6   ar
    22     6     7   ar
    23     7     2   ar
    24     1     2   ar
    25     2     3   ar
    26     3    10   ar
    27    10     9   ar
    28     9     8   ar
    29     8     1   ar
