@<TRIPOS>MOLECULE
No_4841-gen_results/8p0m/2024-11-26-14-13-15/
 16 17 0 0 0
SMALL
GASTEIGER

@<TRIPOS>ATOM
      1 C         -28.0162   -0.8135   28.8779 C.ar    1  UNL1        0.0020
      2 C         -27.0636   -0.1189   28.6079 C.ar    1  UNL1        0.0063
      3 C         -26.9716    0.7139   27.5060 C.ar    1  UNL1        0.0360
      4 C         -28.1053    0.7744   26.6421 C.ar    1  UNL1        0.0258
      5 C         -29.2041    0.1179   27.0477 C.ar    1  UNL1        0.0815
      6 C         -29.2127   -0.6088   28.1281 C.ar    1  UNL1        0.0191
      7 BR        -25.3933    1.6614   27.0324 Br      1  UNL1       -0.0489
      8 N         -30.3087    0.2217   26.2043 N.2     1  UNL1       -0.2485
      9 C         -25.6697   -0.1995   29.4219 C.ar    1  UNL1        0.0005
     10 C         -25.0982   -1.3758   29.5337 C.ar    1  UNL1        0.0000
     11 C         -24.0400   -1.5285   29.6836 C.ar    1  UNL1        0.0000
     12 C         -23.0002   -0.5341   29.9857 C.ar    1  UNL1        0.0000
     13 C         -23.5535    0.7737   29.8672 C.ar    1  UNL1        0.0000
     14 C         -24.9113    0.9231   29.4872 C.ar    1  UNL1        0.0000
     15 C         -31.4707   -0.1545   26.5184 C.2     1  UNL1        0.0728
     16 C         -32.5168   -0.1690   25.4971 C.3     1  UNL1        0.0534
@<TRIPOS>BOND
     1     3     7    1
     2     5     8    1
     3     2     9    1
     4     8    15    2
     5    15    16    1
     6     1     2   ar
     7     2     3   ar
     8     3     4   ar
     9     4     5   ar
    10     5     6   ar
    11     6     1   ar
    12     9    10   ar
    13    10    11   ar
    14    11    12   ar
    15    12    13   ar
    16    13    14   ar
    17    14     9   ar
