@<TRIPOS>MOLECULE
No_4842-gen_results/8p0m/2024-11-26-14-13-15/
 23 25 0 0 0
SMALL
GASTEIGER

@<TRIPOS>ATOM
      1 C         -28.0162   -0.8135   28.8779 C.ar    1  UNL1        0.0236
      2 C         -27.0636   -0.1189   28.6079 C.ar    1  UNL1        0.0690
      3 C         -26.8756    1.1325   28.9134 C.ar    1  UNL1        0.0683
      4 C         -27.9014    1.8066   29.6436 C.ar    1  UNL1        0.0152
      5 C         -29.0458   -0.2316   29.7181 C.ar    1  UNL1        0.0586
      6 C         -27.7521    3.2005   30.0171 C.ar    1  UNL1        0.0355
      7 C         -28.9510    1.0411   30.0482 C.ar    1  UNL1        0.0124
      8 C         -27.7772    3.6042   31.1953 C.ar    1  UNL1        0.1461
      9 C         -27.6009    5.0205   31.5876 C.ar    1  UNL1        0.0489
     10 C         -27.3419    5.9399   30.5544 C.ar    1  UNL1        0.0607
     11 C         -27.4217    4.1417   28.9540 C.ar    1  UNL1        0.0039
     12 C         -27.2153    5.4967   29.2451 C.ar    1  UNL1        0.0116
     13 CL        -25.7130   -0.8558   27.6587 Cl      1  UNL1       -0.0813
     14 CL        -30.3397   -1.2176   30.2262 Cl      1  UNL1       -0.0822
     15 CL        -27.0748    7.5871   30.9320 Cl      1  UNL1       -0.0821
     16 CL        -25.4889    2.1044   28.3738 Cl      1  UNL1       -0.0814
     17 O         -28.0397    2.8308   32.2667 O.3     1  UNL1       -0.4535
     18 C         -28.8229    3.1556   33.2521 C.ar    1  UNL1        0.1453
     19 C         -29.1083    1.9652   34.0350 C.ar    1  UNL1        0.0375
     20 C         -30.2365    1.9671   34.6829 C.ar    1  UNL1        0.0031
     21 C         -31.1948    2.2121   34.2156 C.ar    1  UNL1        0.0002
     22 C         -31.3042    3.4388   33.3304 C.ar    1  UNL1        0.0031
     23 C         -30.2522    3.4711   32.6464 C.ar    1  UNL1        0.0375
@<TRIPOS>BOND
     1     4     6    1
     2     2    13    1
     3     5    14    1
     4    10    15    1
     5     3    16    1
     6     8    17    1
     7    17    18    1
     8    18    19   ar
     9    19    20   ar
    10    20    21   ar
    11    21    22   ar
    12    22    23   ar
    13    23    18   ar
    14     1     2   ar
    15     2     3   ar
    16     3     4   ar
    17     4     7   ar
    18     7     5   ar
    19     5     1   ar
    20     6     8   ar
    21     8     9   ar
    22     9    10   ar
    23    10    12   ar
    24    12    11   ar
    25    11     6   ar
