@<TRIPOS>MOLECULE
No_4844-gen_results/8p0m/2024-11-26-14-13-15/
 7 6 0 0 0
SMALL
GASTEIGER

@<TRIPOS>ATOM
      1 O         -28.1229   -1.3353   28.4874 O.2     1  UNL1       -0.2541
      2 C         -27.0637   -0.8242   28.8687 C.2     1  UNL1        0.3333
      3 C         -26.4017   -0.0623   28.6224 C.2     1  UNL1        0.0686
      4 F         -26.4746   -1.7566   29.9709 F       1  UNL1       -0.1586
      5 C         -24.9388    0.1669   28.8608 C.2     1  UNL1       -0.0204
      6 C         -24.4472   -0.8731   29.8270 C.3     1  UNL1        0.0262
      7 C         -23.0505   -0.8144   30.2049 C.3     1  UNL1        0.0050
@<TRIPOS>BOND
     1     1     2    2
     2     2     3    1
     3     2     4    1
     4     3     5    2
     5     5     6    1
     6     6     7    1
