@<TRIPOS>MOLECULE
No_4845-gen_results/8p0m/2024-11-26-14-13-15/
 22 23 0 0 0
SMALL
GASTEIGER

@<TRIPOS>ATOM
      1 CL        -28.1493   -0.8198   28.9079 Cl      1  UNL1       -0.0469
      2 C         -27.8339    0.4961   29.0598 C.3     1  UNL1        0.3301
      3 F         -27.7903    1.1418   28.0451 F       1  UNL1       -0.1867
      4 C         -26.4542    0.6687   29.7268 C.3     1  UNL1        0.0821
      5 F         -28.6845    1.1302   29.8976 F       1  UNL1       -0.1867
      6 C         -25.3924    0.0136   29.1732 C.3     1  UNL1        0.0487
      7 C         -24.5761    0.6032   28.3274 C.ar    1  UNL1       -0.0227
      8 C         -23.1642    0.5473   28.5851 C.ar    1  UNL1        0.0014
      9 C         -22.2201    1.3735   27.9344 C.ar    1  UNL1        0.1358
     10 C         -22.6653    2.1417   26.8628 C.ar    1  UNL1        0.0293
     11 C         -24.0597    2.1125   26.5045 C.ar    1  UNL1        0.0020
     12 C         -24.9294    1.3578   27.2201 C.ar    1  UNL1       -0.0044
     13 C         -22.5944   -0.1524   29.7427 C.3     1  UNL1        0.0284
     14 C         -22.6547   -1.5487   29.5604 C.3     1  UNL1        0.0062
     15 C         -24.6785   -0.9052   30.1753 C.3     1  UNL1        0.1452
     16 C         -23.9075   -2.0278   30.0530 C.3     1  UNL1        0.0221
     17 C         -25.3475   -0.8857   31.5941 C.2     1  UNL1        0.3738
     18 O         -24.7128   -0.5301   32.5325 O.co2   1  UNL1       -0.2447
     19 O         -26.5690   -1.3459   31.7466 O.co2   1  UNL1       -0.2447
     20 F         -20.9561    1.4121   28.1506 F       1  UNL1       -0.2045
     21 BR        -25.2586   -0.1118   30.8458 Br      1  UNL1       -0.0707
     22 C         -26.3355    2.2623   30.1458 C.3     1  UNL1        0.0074
@<TRIPOS>BOND
     1     1     2    1
     2     2     3    1
     3     2     4    1
     4     2     5    1
     5     4     6    1
     6     6     7    1
     7     8    13    1
     8    13    14    1
     9     6    15    1
    10    14    16    1
    11    15    16    1
    12    15    17    1
    13    17    18   ar
    14    17    19   ar
    15     9    20    1
    16    15    21    1
    17     4    22    1
    18     7     8   ar
    19     8     9   ar
    20     9    10   ar
    21    10    11   ar
    22    11    12   ar
    23    12     7   ar
