@<TRIPOS>MOLECULE
No_4846-gen_results/8p0m/2024-11-26-14-13-15/
 18 19 0 0 0
SMALL
GASTEIGER

@<TRIPOS>ATOM
      1 C         -28.0162   -0.8135   28.8779 C.ar    1  UNL1       -0.0181
      2 C         -28.4690   -0.7850   29.8287 C.ar    1  UNL1       -0.0039
      3 C         -28.1816    0.4277   28.1134 C.3     1  UNL1        0.0480
      4 C         -27.4498    0.6435   26.8500 C.2     1  UNL1       -0.0438
      5 C         -26.4529    0.9939   26.6681 C.2     1  UNL1       -0.0294
      6 C         -25.1812    0.8624   26.8165 C.ar    1  UNL1       -0.0045
      7 C         -24.5152    0.1165   27.8118 C.ar    1  UNL1       -0.0003
      8 C         -23.1977    0.2649   28.2065 C.ar    1  UNL1       -0.0000
      9 C         -28.2893   -2.0095   30.8342 C.ar    1  UNL1       -0.0003
     10 C         -27.4463   -2.9880   30.3255 C.ar    1  UNL1       -0.0000
     11 C         -26.6003   -2.7617   29.2952 C.ar    1  UNL1       -0.0003
     12 C         -26.8204   -1.5439   28.5437 C.ar    1  UNL1       -0.0039
     13 C         -22.4367    1.2055   27.5641 C.ar    1  UNL1       -0.0000
     14 C         -22.9375    2.0319   26.5626 C.ar    1  UNL1       -0.0000
     15 C         -24.2713    1.9017   26.2641 C.ar    1  UNL1       -0.0003
     16 C         -26.3963    1.4720   25.1319 C.3     1  UNL1        0.0304
     17 C         -28.5448    0.1548   25.8517 C.3     1  UNL1        0.0220
     18 C         -29.9074    0.1898   26.1108 C.3     1  UNL1        0.0047
@<TRIPOS>BOND
     1     3     4    1
     2     4     5    2
     3     5     6    1
     4     5    16    1
     5     4    17    1
     6    17    18    1
     7     3     1    1
     8     1     2   ar
     9     2     9   ar
    10     9    10   ar
    11    10    11   ar
    12    11    12   ar
    13    12     1   ar
    14     6     7   ar
    15     7     8   ar
    16     8    13   ar
    17    13    14   ar
    18    14    15   ar
    19    15     6   ar
