@<TRIPOS>MOLECULE
No_4848-gen_results/8p0m/2024-11-26-14-13-15/
 14 15 0 0 0
SMALL
GASTEIGER

@<TRIPOS>ATOM
      1 C         -28.0162   -0.8135   28.8779 C.ar    1  UNL1        0.0111
      2 C         -28.4690   -0.7850   29.8287 C.ar    1  UNL1        0.0577
      3 C         -26.5042   -0.7777   28.8766 C.ar    1  UNL1       -0.0031
      4 C         -25.8103   -0.8531   30.1028 C.ar    1  UNL1       -0.0177
      5 C         -27.9906   -0.8916   31.2257 C.ar    1  UNL1        0.0111
      6 C         -26.6042   -0.8676   31.2652 C.ar    1  UNL1       -0.0031
      7 CL        -30.2656   -0.7636   29.6521 Cl      1  UNL1       -0.0822
      8 C         -24.3701   -0.8360   30.1525 C.3     1  UNL1        0.0526
      9 C         -23.6242   -0.3909   29.1138 C.ar    1  UNL1       -0.0178
     10 C         -22.1739   -0.3695   29.2775 C.ar    1  UNL1       -0.0039
     11 C         -24.1802    0.2674   28.0253 C.ar    1  UNL1       -0.0039
     12 C         -23.3084    1.1261   27.2425 C.ar    1  UNL1       -0.0003
     13 C         -21.3663    0.3244   28.3944 C.ar    1  UNL1       -0.0003
     14 C         -21.8957    1.0941   27.4076 C.ar    1  UNL1       -0.0000
@<TRIPOS>BOND
     1     2     7    1
     2     4     8    1
     3     8     9    1
     4     9    10   ar
     5    10    13   ar
     6    13    14   ar
     7    14    12   ar
     8    12    11   ar
     9    11     9   ar
    10     1     2   ar
    11     2     5   ar
    12     5     6   ar
    13     6     4   ar
    14     4     3   ar
    15     3     1   ar
