@<TRIPOS>MOLECULE
No_4849-gen_results/8p0m/2024-11-26-14-13-15/
 15 15 0 0 0
SMALL
GASTEIGER

@<TRIPOS>ATOM
      1 C         -28.0162   -0.8135   28.8779 C.ar    1  UNL1        0.0159
      2 C         -27.0636   -0.1190   28.6079 C.ar    1  UNL1        0.0544
      3 C         -25.7923   -0.4302   29.0761 C.ar    1  UNL1        0.0046
      4 C         -25.5756   -1.5654   29.9363 C.ar    1  UNL1        0.0010
      5 C         -26.7354   -2.3004   30.2173 C.ar    1  UNL1        0.0114
      6 C         -27.9184   -1.9537   29.7629 C.ar    1  UNL1        0.0578
      7 CL        -29.2678   -2.8890   30.2152 Cl      1  UNL1       -0.0822
      8 C         -27.1068    1.1096   27.7591 C.2     1  UNL1        0.2493
      9 N         -26.3762    1.3266   26.8343 N.am    1  UNL1       -0.2702
     10 O         -28.1094    1.8803   27.9077 O.2     1  UNL1       -0.2699
     11 C         -26.3710    2.5066   25.9132 C.3     1  UNL1        0.1155
     12 C         -25.1586    0.5241   26.5176 C.3     1  UNL1        0.1199
     13 C         -23.9224    1.2450   26.8259 C.2     1  UNL1       -0.0092
     14 C         -23.2906    1.4179   28.1165 C.2     1  UNL1       -0.0287
     15 C         -22.0681    2.1479   28.1563 C.3     1  UNL1        0.0304
@<TRIPOS>BOND
     1     6     7    1
     2     2     8    1
     3     8     9   am
     4     8    10    2
     5     9    11    1
     6     9    12    1
     7    12    13    1
     8    13    14    2
     9    14    15    1
    10     1     2   ar
    11     2     3   ar
    12     3     4   ar
    13     4     5   ar
    14     5     6   ar
    15     6     1   ar
