@<TRIPOS>MOLECULE
No_485-gen_results/8p0m/2024-11-26-14-13-15/
 10 10 0 0 0
SMALL
GASTEIGER

@<TRIPOS>ATOM
      1 C         -28.0162   -0.8135   28.8779 C.3     1  UNL1        0.1515
      2 C         -27.0636   -0.1189   28.6079 C.ar    1  UNL1        0.0020
      3 C         -25.7923   -0.4302   29.0761 C.ar    1  UNL1       -0.0023
      4 C         -24.5456    0.3494   28.8225 C.ar    1  UNL1       -0.0003
      5 C         -24.6586    1.4196   27.8878 C.ar    1  UNL1       -0.0000
      6 C         -25.9471    1.6811   27.3792 C.ar    1  UNL1       -0.0003
      7 C         -27.0439    0.9739   27.6871 C.ar    1  UNL1       -0.0023
      8 N         -28.6643   -0.5274   30.1017 N.2     1  UNL1       -0.2687
      9 C         -29.6646   -0.3963   30.4406 C.2     1  UNL1        0.0675
     10 C         -30.0669   -0.1286   31.8541 C.3     1  UNL1        0.0529
@<TRIPOS>BOND
     1     1     2    1
     2     1     8    1
     3     8     9    2
     4     9    10    1
     5     2     3   ar
     6     3     4   ar
     7     4     5   ar
     8     5     6   ar
     9     6     7   ar
    10     7     2   ar
