@<TRIPOS>MOLECULE
No_4851-gen_results/8p0m/2024-11-26-14-13-15/
 7 6 0 0 0
SMALL
GASTEIGER

@<TRIPOS>ATOM
      1 C         -28.0162   -0.8135   28.8779 C.2     1  UNL1       -0.0003
      2 C         -28.4690   -0.7850   29.8287 C.2     1  UNL1       -0.0000
      3 C         -28.1960    0.3478   28.0550 C.2     1  UNL1       -0.0046
      4 C         -29.0191    1.3501   28.3782 C.2     1  UNL1       -0.0258
      5 C         -29.4107    0.1803   30.3782 C.2     1  UNL1       -0.0000
      6 C         -29.6059    1.2495   29.6193 C.2     1  UNL1       -0.0000
      7 C         -29.1871    2.4596   27.4935 C.3     1  UNL1        0.0307
@<TRIPOS>BOND
     1     1     2    2
     2     1     3    1
     3     3     4    2
     4     2     5    1
     5     5     6    2
     6     4     7    1
