@<TRIPOS>MOLECULE
No_4853-gen_results/8p0m/2024-11-26-14-13-15/
 8 8 0 0 0
SMALL
GASTEIGER

@<TRIPOS>ATOM
      1 O         -28.1229   -1.3353   28.4874 O.2     1  UNL1       -0.2585
      2 C         -27.4806   -0.4044   28.7094 C.2     1  UNL1        0.3123
      3 C         -27.1904    0.2460   29.5268 C.1     1  UNL1       -0.0050
      4 N         -26.8157    0.1371   27.4262 N.am    1  UNL1       -0.1673
      5 C         -26.5177    0.6156   30.2044 C.1     1  UNL1       -0.0772
      6 C         -25.8264    1.1138   27.5377 C.2     1  UNL1        0.0860
      7 C         -25.1983    1.7151   28.5729 C.2     1  UNL1        0.0058
      8 C         -25.5095    1.5754   29.8966 C.3     1  UNL1        0.1038
@<TRIPOS>BOND
     1     1     2    2
     2     2     3    1
     3     2     4   am
     4     3     5    3
     5     4     6    1
     6     6     7    2
     7     5     8    1
     8     7     8    1
