@<TRIPOS>MOLECULE
No_4854-gen_results/8p0m/2024-11-26-14-13-15/
 22 24 0 0 0
SMALL
GASTEIGER

@<TRIPOS>ATOM
      1 C         -28.0162   -0.8135   28.8779 C.ar    1  UNL1       -0.0001
      2 C         -27.0636   -0.1189   28.6079 C.ar    1  UNL1       -0.0043
      3 C         -26.9716    0.7139   27.5060 C.ar    1  UNL1       -0.0223
      4 C         -28.1053    0.7744   26.6421 C.ar    1  UNL1        0.0023
      5 C         -29.2041    0.1179   27.0477 C.ar    1  UNL1        0.0795
      6 C         -29.2127   -0.6088   28.1281 C.ar    1  UNL1        0.0066
      7 C         -30.2643    0.2460   25.9920 C.2     1  UNL1        0.3877
      8 O         -30.1855    0.4120   24.8591 O.co2   1  UNL1       -0.2406
      9 O         -31.5214   -0.0856   26.4645 O.co2   1  UNL1       -0.2406
     10 C         -25.6583    1.4063   27.1423 C.3     1  UNL1        0.0226
     11 C         -25.1248    2.3052   28.1575 C.3     1  UNL1        0.0260
     12 C         -24.0241    2.3903   28.6056 C.3     1  UNL1        0.0047
     13 C         -22.9267    1.6287   27.8690 C.3     1  UNL1        0.0004
     14 C         -23.3118    0.8900   26.8009 C.3     1  UNL1        0.0003
     15 C         -24.5465    0.3335   26.9465 C.3     1  UNL1        0.0044
     16 C         -25.8055    2.1975   25.8100 C.3     1  UNL1        0.0047
     17 C         -26.1871    3.3104   28.7612 C.ar    1  UNL1       -0.0222
     18 C         -26.1680    3.5599   30.0307 C.ar    1  UNL1       -0.0043
     19 C         -27.1007    4.4605   30.6154 C.ar    1  UNL1       -0.0003
     20 C         -28.1443    4.8918   29.8604 C.ar    1  UNL1       -0.0000
     21 C         -28.2317    4.5709   28.5030 C.ar    1  UNL1       -0.0003
     22 C         -27.2242    3.7593   27.9438 C.ar    1  UNL1       -0.0043
@<TRIPOS>BOND
     1     5     7    1
     2     7     8   ar
     3     7     9   ar
     4     3    10    1
     5    10    11    1
     6    12    13    1
     7    10    15    1
     8    14    15    1
     9    10    16    1
    10    11    17    1
    11    11    12    1
    12    13    14    1
    13    17    18   ar
    14    18    19   ar
    15    19    20   ar
    16    20    21   ar
    17    21    22   ar
    18    22    17   ar
    19     1     2   ar
    20     2     3   ar
    21     3     4   ar
    22     4     5   ar
    23     5     6   ar
    24     6     1   ar
