@<TRIPOS>MOLECULE
No_4855-gen_results/8p0m/2024-11-26-14-13-15/
 16 18 0 0 0
SMALL
GASTEIGER

@<TRIPOS>ATOM
      1 C         -28.0162   -0.8135   28.8779 C.ar    1  UNL1       -0.0003
      2 C         -28.4690   -0.7850   29.8287 C.ar    1  UNL1       -0.0000
      3 C         -26.5455   -0.8762   28.8500 C.ar    1  UNL1       -0.0039
      4 C         -25.6825   -0.7773   27.6829 C.ar    1  UNL1       -0.0037
      5 C         -27.9181   -1.0034   31.1877 C.ar    1  UNL1       -0.0003
      6 C         -26.5308   -1.0794   31.2463 C.ar    1  UNL1       -0.0039
      7 C         -25.7798   -1.0462   30.0905 C.ar    1  UNL1       -0.0178
      8 C         -25.8976    0.2387   26.7449 C.ar    1  UNL1       -0.0003
      9 C         -24.9256    0.7629   26.0322 C.ar    1  UNL1        0.0002
     10 C         -23.6887    0.9127   26.4602 C.ar    1  UNL1        0.0063
     11 C         -23.2912    0.3782   27.7204 C.ar    1  UNL1        0.0761
     12 C         -24.2216   -0.2742   28.4864 C.ar    1  UNL1       -0.0114
     13 C         -24.4365   -0.7691   29.8229 C.3     1  UNL1        0.0528
     14 C         -22.0621    0.6004   28.4029 C.2     1  UNL1        0.3875
     15 O         -21.6392   -0.0697   29.2939 O.co2   1  UNL1       -0.2406
     16 O         -21.1413    1.4934   27.8107 O.co2   1  UNL1       -0.2406
@<TRIPOS>BOND
     1     3     4    1
     2     7    13    1
     3    12    13    1
     4    11    14    1
     5    14    15   ar
     6    14    16   ar
     7     4     8   ar
     8     8     9   ar
     9     9    10   ar
    10    10    11   ar
    11    11    12   ar
    12    12     4   ar
    13     1     2   ar
    14     2     5   ar
    15     5     6   ar
    16     6     7   ar
    17     7     3   ar
    18     3     1   ar
