@<TRIPOS>MOLECULE
No_4856-gen_results/8p0m/2024-11-26-14-13-15/
 14 14 0 0 0
SMALL
GASTEIGER

@<TRIPOS>ATOM
      1 C         -28.0162   -0.8135   28.8779 C.3     1  UNL1        0.1649
      2 C         -27.0636   -0.1190   28.6079 C.ar    1  UNL1        0.0029
      3 C         -26.9287    1.1713   29.0083 C.ar    1  UNL1       -0.0024
      4 C         -25.7702    2.0341   28.6884 C.ar    1  UNL1        0.0036
      5 C         -24.7141    1.4431   27.9188 C.ar    1  UNL1        0.0714
      6 C         -24.8590    0.0783   27.5836 C.ar    1  UNL1        0.0036
      7 C         -25.9647   -0.6606   27.9164 C.ar    1  UNL1       -0.0024
      8 N         -27.9820   -1.6112   30.1028 N.2     1  UNL1       -0.1881
      9 C         -23.7853    2.3201   27.4230 C.3     1  UNL1        0.4186
     10 F         -22.6307    1.8743   27.5348 F       1  UNL1       -0.1659
     11 F         -23.8977    2.4652   26.0205 F       1  UNL1       -0.1659
     12 F         -23.8017    3.5561   27.9241 F       1  UNL1       -0.1659
     13 C         -28.9784   -2.5286   30.4626 C.1     1  UNL1        0.2356
     14 O         -30.0000   -2.4762   30.0733 O.2     1  UNL1       -0.2102
@<TRIPOS>BOND
     1     1     2    1
     2     1     8    1
     3     5     9    1
     4     9    10    1
     5     9    11    1
     6     9    12    1
     7     8    13    2
     8    13    14    2
     9     2     3   ar
    10     3     4   ar
    11     4     5   ar
    12     5     6   ar
    13     6     7   ar
    14     7     2   ar
