@<TRIPOS>MOLECULE
No_4857-gen_results/8p0m/2024-11-26-14-13-15/
 18 19 0 0 0
SMALL
GASTEIGER

@<TRIPOS>ATOM
      1 C         -28.0162   -0.8135   28.8779 C.ar    1  UNL1       -0.0003
      2 C         -27.0636   -0.1189   28.6079 C.ar    1  UNL1       -0.0001
      3 C         -26.8756    1.1325   28.9134 C.ar    1  UNL1        0.0023
      4 C         -27.9014    1.8066   29.6436 C.ar    1  UNL1        0.0294
      5 C         -29.0458   -0.2316   29.7181 C.ar    1  UNL1        0.0268
      6 C         -28.9402    1.0517   30.0597 C.ar    1  UNL1        0.1378
      7 C         -30.1632   -1.1170   30.1252 C.3     1  UNL1        0.1404
      8 N         -31.2136   -1.0695   29.5726 N.pl3   1  UNL1       -0.2359
      9 C         -31.5027   -0.2503   28.6746 C.2     1  UNL1        0.0570
     10 C         -31.9882   -0.3369   27.5427 C.2     1  UNL1        0.0126
     11 C         -32.1989    0.6216   26.5236 C.2     1  UNL1       -0.0035
     12 C         -31.8136    1.9184   26.8642 C.2     1  UNL1       -0.0249
     13 C         -31.2848    2.1939   28.0695 C.3     1  UNL1        0.0410
     14 C         -31.0778    1.1844   28.9383 C.3     1  UNL1        0.1032
     15 F         -30.1113    1.6990   29.3824 F       1  UNL1       -0.2044
     16 C         -31.9842    1.4159   30.3597 C.3     1  UNL1        0.0225
     17 CL        -30.1892    1.2844   28.4659 Cl      1  UNL1       -0.1101
     18 C         -31.5066    3.6080   28.4696 C.3     1  UNL1        0.0063
@<TRIPOS>BOND
     1     5     7    1
     2     7     8    1
     3     8     9    1
     4     9    10    2
     5    10    11    1
     6    11    12    2
     7    12    13    1
     8     9    14    1
     9    13    14    1
    10     6    15    1
    11    14    16    1
    12    14    17    1
    13    13    18    1
    14     1     2   ar
    15     2     3   ar
    16     3     4   ar
    17     4     6   ar
    18     6     5   ar
    19     5     1   ar
