@<TRIPOS>MOLECULE
No_4858-gen_results/8p0m/2024-11-26-14-13-15/
 20 21 0 0 0
SMALL
GASTEIGER

@<TRIPOS>ATOM
      1 C         -28.0162   -0.8135   28.8779 C.ar    1  UNL1       -0.0039
      2 C         -28.4690   -0.7850   29.8287 C.ar    1  UNL1       -0.0003
      3 C         -28.1960    0.3478   28.0550 C.ar    1  UNL1       -0.0178
      4 C         -29.0191    1.3501   28.3782 C.ar    1  UNL1       -0.0039
      5 C         -29.6249    1.2683   29.6012 C.ar    1  UNL1       -0.0003
      6 C         -29.3821    0.1816   30.4004 C.ar    1  UNL1       -0.0000
      7 C         -27.4591    0.3787   26.7048 C.3     1  UNL1        0.0520
      8 C         -26.1348    0.3565   26.8183 C.2     1  UNL1       -0.0254
      9 C         -25.3221    1.3161   27.3784 C.2     1  UNL1       -0.0224
     10 C         -23.9245    1.1588   27.5553 C.ar    1  UNL1       -0.0040
     11 C         -23.4260    0.1199   28.3252 C.ar    1  UNL1       -0.0003
     12 C         -22.0599    0.0058   28.6147 C.ar    1  UNL1       -0.0000
     13 C         -21.1727    0.9308   28.0439 C.ar    1  UNL1       -0.0000
     14 C         -21.6671    2.0452   27.3294 C.ar    1  UNL1       -0.0000
     15 C         -23.0448    2.1471   27.1457 C.ar    1  UNL1       -0.0003
     16 C         -25.9164    2.6071   27.7959 C.3     1  UNL1        0.0436
     17 C         -25.8543    3.0033   29.0650 C.2     1  UNL1       -0.0266
     18 C         -26.4503    4.2171   29.5001 C.2     1  UNL1       -0.0300
     19 C         -25.9066    3.6484   26.8423 C.3     1  UNL1        0.0094
     20 C         -26.6636    4.5502   30.8571 C.3     1  UNL1        0.0304
@<TRIPOS>BOND
     1     3     7    1
     2     7     8    1
     3     8     9    2
     4     9    10    1
     5     9    16    1
     6    16    17    1
     7    17    18    2
     8    16    19    1
     9    18    20    1
    10     1     2   ar
    11     2     6   ar
    12     6     5   ar
    13     5     4   ar
    14     4     3   ar
    15     3     1   ar
    16    10    11   ar
    17    11    12   ar
    18    12    13   ar
    19    13    14   ar
    20    14    15   ar
    21    15    10   ar
