@<TRIPOS>MOLECULE
No_4859-gen_results/8p0m/2024-11-26-14-13-15/
 15 16 0 0 0
SMALL
GASTEIGER

@<TRIPOS>ATOM
      1 C         -28.0162   -0.8135   28.8779 C.ar    1  UNL1        0.0410
      2 C         -28.4690   -0.7850   29.8287 C.ar    1  UNL1        0.1410
      3 C         -26.5042   -0.7777   28.8766 C.ar    1  UNL1        0.0599
      4 C         -25.8103   -0.8531   30.1028 C.ar    1  UNL1        0.0107
      5 C         -27.9906   -0.8916   31.2257 C.ar    1  UNL1        0.0297
      6 C         -26.6042   -0.8676   31.2652 C.ar    1  UNL1        0.0031
      7 C         -24.3894   -0.8049   30.1638 C.2     1  UNL1        0.0005
      8 C         -23.6350   -0.8621   29.1472 C.2     1  UNL1       -0.0003
      9 C         -22.1747   -0.6734   29.2132 C.2     1  UNL1       -0.0042
     10 C         -23.6709    0.1976   30.9737 C.2     1  UNL1       -0.0042
     11 C         -21.4680    0.1202   29.1968 C.2     1  UNL1       -0.0214
     12 C         -21.7107    1.1574   30.2134 C.3     1  UNL1        0.0520
     13 C         -22.6277    1.0636   31.0040 C.2     1  UNL1       -0.0214
     14 F         -29.9353   -0.8276   29.8302 F       1  UNL1       -0.2041
     15 CL        -25.6021   -0.6860   27.4073 Cl      1  UNL1       -0.0822
@<TRIPOS>BOND
     1     4     7    1
     2     7     8    2
     3     8     9    1
     4     7    10    1
     5     9    11    2
     6    11    12    1
     7    10    13    2
     8    12    13    1
     9     2    14    1
    10     3    15    1
    11     1     2   ar
    12     2     5   ar
    13     5     6   ar
    14     6     4   ar
    15     4     3   ar
    16     3     1   ar
