@<TRIPOS>MOLECULE
No_4860-gen_results/8p0m/2024-11-26-14-13-15/
 21 22 0 0 0
SMALL
GASTEIGER

@<TRIPOS>ATOM
      1 C         -28.0162   -0.8135   28.8779 C.ar    1  UNL1        0.1352
      2 C         -27.0636   -0.1189   28.6079 C.ar    1  UNL1        0.0191
      3 C         -25.7647   -0.3897   29.0360 C.ar    1  UNL1       -0.0039
      4 C         -25.5296   -1.5302   29.9014 C.ar    1  UNL1       -0.0029
      5 C         -26.6577   -2.2915   30.2035 C.ar    1  UNL1        0.0028
      6 C         -27.8548   -1.9555   29.7630 C.ar    1  UNL1        0.0366
      7 C         -24.5349    0.4128   28.7431 C.3     1  UNL1        0.1235
      8 C         -24.4835    1.2431   27.7398 C.2     1  UNL1       -0.0104
      9 C         -25.0977    1.6893   26.9916 C.2     1  UNL1       -0.0283
     10 C         -26.4846    1.2565   26.8743 C.3     1  UNL1        0.0404
     11 C         -27.1887    0.5155   27.6251 C.3     1  UNL1        0.1204
     12 C         -28.6971    0.4756   27.0778 C.2     1  UNL1        0.3146
     13 O         -28.9148    0.7795   25.9701 O.2     1  UNL1       -0.2587
     14 F         -29.5261   -0.3615   27.6758 F       1  UNL1       -0.1633
     15 O         -29.1621   -0.1838   29.5654 O.3     1  UNL1       -0.4710
     16 C         -29.9930    0.1239   30.1621 C.3     1  UNL1        0.2318
     17 CL        -23.1402   -0.0638   29.6766 Cl      1  UNL1       -0.1054
     18 C         -29.8930    0.0157   31.4445 C.2     1  UNL1        0.0223
     19 C         -28.8867    0.6670   32.1326 C.2     1  UNL1        0.0216
     20 C         -28.4693    1.9195   31.7029 C.2     1  UNL1        0.1219
     21 N         -29.1528    2.8668   31.5242 N.2     1  UNL1       -0.1464
@<TRIPOS>BOND
     1     3     7    1
     2     7     8    1
     3     8     9    2
     4     9    10    1
     5     2    11    1
     6    10    11    1
     7    11    12    1
     8    12    13    2
     9    12    14    1
    10     1    15    1
    11    15    16    1
    12     7    17    1
    13    16    18    1
    14    18    19    2
    15    19    20    1
    16    20    21    2
    17     1     2   ar
    18     2     3   ar
    19     3     4   ar
    20     4     5   ar
    21     5     6   ar
    22     6     1   ar
