@<TRIPOS>MOLECULE
No_4861-gen_results/8p0m/2024-11-26-14-13-15/
 15 15 0 0 0
SMALL
GASTEIGER

@<TRIPOS>ATOM
      1 C         -28.0162   -0.8135   28.8779 C.3     1  UNL1        0.1106
      2 C         -27.0636   -0.1189   28.6079 C.3     1  UNL1        0.0661
      3 C         -25.7647   -0.3897   29.0360 C.2     1  UNL1        0.1511
      4 C         -24.5516    0.4058   28.7646 C.3     1  UNL1        0.0757
      5 C         -24.6957    1.4480   27.7988 C.3     1  UNL1        0.1107
      6 C         -25.9755    1.7250   27.3077 C.3     1  UNL1        0.0121
      7 C         -27.0718    1.0134   27.6535 C.3     1  UNL1        0.0082
      8 C         -29.2260   -0.0677   29.3149 C.3     1  UNL1        0.3982
      9 F         -29.2620    0.3991   30.2393 F       1  UNL1       -0.1700
     10 F         -30.2446   -0.7808   28.9954 F       1  UNL1       -0.1700
     11 C         -23.4986    2.2336   27.5084 C.2     1  UNL1        0.3647
     12 O         -23.6036    3.1623   26.6892 O.co2   1  UNL1       -0.2457
     13 O         -22.3051    1.8586   27.8844 O.co2   1  UNL1       -0.2457
     14 F         -29.4638    0.9423   28.3696 F       1  UNL1       -0.1700
     15 O         -25.5037   -1.3493   29.9088 O.2     1  UNL1       -0.2961
@<TRIPOS>BOND
     1     2     3    1
     2     3     4    1
     3     4     5    1
     4     5     6    1
     5     2     7    1
     6     1     8    1
     7     8     9    1
     8     8    10    1
     9     5    11    1
    10    11    12   ar
    11    11    13   ar
    12     8    14    1
    13     3    15    2
    14     1     2    1
    15     7     6    1
