@<TRIPOS>MOLECULE
No_4862-gen_results/8p0m/2024-11-26-14-13-15/
 19 20 0 0 0
SMALL
GASTEIGER

@<TRIPOS>ATOM
      1 C         -28.0162   -0.8135   28.8779 C.ar    1  UNL1       -0.0018
      2 C         -27.0636   -0.1190   28.6079 C.ar    1  UNL1       -0.0074
      3 C         -26.9716    0.7139   27.5060 C.ar    1  UNL1        0.0552
      4 C         -28.1053    0.7744   26.6421 C.ar    1  UNL1        0.0256
      5 C         -29.2041    0.1179   27.0477 C.ar    1  UNL1        0.0488
      6 C         -29.2127   -0.6088   28.1281 C.ar    1  UNL1        0.0143
      7 CL        -25.5373    1.5799   27.0783 Cl      1  UNL1       -0.0825
      8 N         -30.3039    0.2234   26.1995 N.pl3   1  UNL1       -0.3040
      9 C         -25.6726   -0.1940   29.4192 C.3     1  UNL1        0.0516
     10 C         -24.7778   -1.0388   29.0175 C.2     1  UNL1       -0.0055
     11 C         -24.9138   -2.2914   28.8156 C.2     1  UNL1        0.0144
     12 C         -24.1471   -3.1741   29.0153 C.2     1  UNL1        0.0935
     13 N         -22.8134   -2.6795   28.9663 N.2     1  UNL1       -0.2552
     14 CA        -23.3406   -0.9959   29.3206 C.3     1  UNL1        0.2244
     15 C         -22.4266   -0.0216   29.5460 C.2     1  UNL1        0.3905
     16 C         -30.2420    0.2235   24.8740 C.3     1  UNL1        0.1122
     17 C         -31.6435    0.1993   26.7228 C.3     1  UNL1        0.1122
     18 O         -21.2319   -0.1577   29.1199 O.co2   1  UNL1       -0.2431
     19 OXT       -22.7834    1.0235   30.2369 O.co2   1  UNL1       -0.2431
@<TRIPOS>BOND
     1     3     7    1
     2     5     8    1
     3     2     9    1
     4     9    10    1
     5    10    11    2
     6    11    12    1
     7    12    13    2
     8    10    14    1
     9    13    14    1
    10    14    15    1
    11     8    16    1
    12     8    17    1
    13    15    18   ar
    14    15    19   ar
    15     1     2   ar
    16     2     3   ar
    17     3     4   ar
    18     4     5   ar
    19     5     6   ar
    20     6     1   ar
