@<TRIPOS>MOLECULE
No_4863-gen_results/8p0m/2024-11-26-14-13-15/
 35 39 0 0 0
SMALL
GASTEIGER

@<TRIPOS>ATOM
      1 C         -28.0162   -0.8135   28.8779 C.ar    1  UNL1        0.0084
      2 C         -28.4690   -0.7850   29.8287 C.ar    1  UNL1        0.0535
      3 C         -26.5042   -0.7777   28.8766 C.ar    1  UNL1        0.0716
      4 C         -25.6540   -0.6597   27.7191 C.3     1  UNL1        0.4186
      5 C         -27.9180   -0.9374   31.1824 C.ar    1  UNL1        0.0045
      6 C         -26.5423   -0.9399   31.2606 C.ar    1  UNL1        0.0001
      7 C         -25.7832   -0.8935   30.1201 C.ar    1  UNL1        0.0039
      8 F         -24.5285   -1.2244   27.7836 F       1  UNL1       -0.1659
      9 F         -26.2846   -1.1686   26.5932 F       1  UNL1       -0.1659
     10 F         -25.4202    0.6963   27.4164 F       1  UNL1       -0.1659
     11 C         -30.0522   -0.8118   29.8922 C.2     1  UNL1        0.2490
     12 O         -30.6551   -1.7012   30.1430 O.2     1  UNL1       -0.2699
     13 N         -30.5680    0.2629   29.1185 N.am    1  UNL1       -0.2757
     14 C         -31.9700    0.3635   28.9154 C.3     1  UNL1        0.0937
     15 C         -29.8212    1.4490   28.6904 C.3     1  UNL1        0.0980
     16 C         -30.3135    2.2367   28.0768 C.3     1  UNL1        0.0419
     17 C         -32.4671    1.4198   28.1202 C.3     1  UNL1        0.0219
     18 C         -31.6419    2.4234   27.7628 C.3     1  UNL1        0.0078
     19 C         -29.4019    3.4735   27.5630 C.2     1  UNL1       -0.0248
     20 C         -28.2017    3.2019   27.1129 C.2     1  UNL1       -0.0260
     21 C         -27.2229    4.1802   26.8709 C.ar    1  UNL1       -0.0074
     22 C         -26.5242    4.6223   27.6459 C.ar    1  UNL1        0.0108
     23 C         -25.2273    5.3508   27.3247 C.ar    1  UNL1        0.0576
     24 C         -24.6469    5.0080   26.1023 C.ar    1  UNL1        0.0111
     25 C         -25.1373    3.9510   25.3906 C.ar    1  UNL1       -0.0034
     26 C         -26.4369    3.4729   25.7596 C.ar    1  UNL1       -0.0221
     27 C         -29.2997    4.6455   28.5177 C.ar    1  UNL1       -0.0042
     28 C         -29.1663    4.7050   29.7038 C.ar    1  UNL1       -0.0003
     29 C         -29.3274    5.8729   30.4811 C.ar    1  UNL1       -0.0000
     30 C         -29.5223    7.0337   29.8017 C.ar    1  UNL1       -0.0000
     31 C         -29.7559    6.0115   28.0186 C.ar    1  UNL1       -0.0003
     32 C         -29.7908    7.1248   28.5562 C.ar    1  UNL1       -0.0000
     33 CL        -24.5249    6.4961   28.3642 Cl      1  UNL1       -0.0822
     34 C         -27.0107    2.5456   24.8258 C.3     1  UNL1        0.0310
     35 C         -28.4985    2.2972   25.7700 C.3     1  UNL1        0.0307
@<TRIPOS>BOND
     1     3     4    1
     2     4     8    1
     3     4     9    1
     4     4    10    1
     5     2    11    1
     6    11    12    2
     7    11    13   am
     8    13    14    1
     9    13    15    1
    10    16    18    1
    11    17    18    1
    12    16    19    1
    13    19    20    2
    14    20    21    1
    15    19    27    1
    16    23    33    1
    17    26    34    1
    18    20    35    1
    19    34    35    1
    20    14    17    1
    21    16    15    1
    22    27    28   ar
    23    28    29   ar
    24    29    30   ar
    25    30    32   ar
    26    32    31   ar
    27    31    27   ar
    28     1     2   ar
    29     2     5   ar
    30     5     6   ar
    31     6     7   ar
    32     7     3   ar
    33     3     1   ar
    34    21    22   ar
    35    22    23   ar
    36    23    24   ar
    37    24    25   ar
    38    25    26   ar
    39    26    21   ar
