@<TRIPOS>MOLECULE
No_4865-gen_results/8p0m/2024-11-26-14-13-15/
 18 20 0 0 0
SMALL
GASTEIGER

@<TRIPOS>ATOM
      1 N         -28.0544   -1.0498   28.7246 N.ar    1  UNL1       -0.2438
      2 C         -27.7460   -0.0733   29.0098 C.ar    1  UNL1        0.0834
      3 C         -27.5562    0.3369   30.3393 C.ar    1  UNL1        0.0178
      4 C         -27.0710    1.6709   30.7899 C.ar    1  UNL1        0.0015
      5 C         -26.6539    2.5222   29.7363 C.ar    1  UNL1        0.0002
      6 C         -26.7304    2.0603   28.4078 C.ar    1  UNL1        0.0037
      7 C         -27.1892    0.8153   28.0522 C.ar    1  UNL1        0.0452
      8 C         -27.7336   -2.1273   29.6043 C.ar    1  UNL1        0.0988
      9 C         -27.8651   -1.9485   31.0182 C.ar    1  UNL1        0.0207
     10 C         -28.0715   -0.7492   31.3731 C.ar    1  UNL1        0.0031
     11 C         -27.1932    0.5399   26.6147 C.2     1  UNL1        0.1442
     12 C         -28.0708    0.8261   25.7971 C.2     1  UNL1        0.0622
     13 C         -28.0137    0.4006   24.4335 C.2     1  UNL1        0.0010
     14 C         -29.0596    0.6572   23.5376 C.2     1  UNL1       -0.0178
     15 C         -30.0646    1.3171   24.1711 C.3     1  UNL1        0.0952
     16 C         -29.3879    1.5174   25.8124 C.2     1  UNL1        0.1796
     17 F         -26.1917   -0.1873   26.3538 F       1  UNL1       -0.2040
     18 O         -30.0850    2.0579   26.7506 O.2     1  UNL1       -0.2909
@<TRIPOS>BOND
     1     7    11    1
     2    11    12    2
     3    12    13    1
     4    13    14    2
     5    14    15    1
     6    12    16    1
     7    15    16    1
     8    11    17    1
     9    16    18    2
    10     3     4   ar
    11     4     5   ar
    12     5     6   ar
    13     6     7   ar
    14     7     2   ar
    15     1     2   ar
    16     2     3   ar
    17     3    10   ar
    18    10     9   ar
    19     9     8   ar
    20     8     1   ar
