@<TRIPOS>MOLECULE
No_4867-gen_results/8p0m/2024-11-26-14-13-15/
 10 10 0 0 0
SMALL
GASTEIGER

@<TRIPOS>ATOM
      1 C         -28.0162   -0.8135   28.8779 C.ar    1  UNL1       -0.0000
      2 C         -28.4690   -0.7850   29.8287 C.ar    1  UNL1       -0.0000
      3 C         -26.5455   -0.8762   28.8500 C.ar    1  UNL1       -0.0003
      4 C         -25.6825   -0.7773   27.6829 C.2     1  UNL1       -0.0046
      5 C         -27.9181   -1.0034   31.1877 C.ar    1  UNL1       -0.0000
      6 C         -26.5308   -1.0794   31.2463 C.ar    1  UNL1       -0.0000
      7 C         -25.7798   -1.0462   30.0905 C.ar    1  UNL1       -0.0000
      8 C         -24.3676   -0.2501   27.7918 C.2     1  UNL1       -0.0261
      9 C         -23.6808   -0.4762   29.0175 C.3     1  UNL1        0.0260
     10 C         -24.3689   -0.7866   30.1443 C.3     1  UNL1        0.0050
@<TRIPOS>BOND
     1     3     4    1
     2     4     8    2
     3     8     9    1
     4     9    10    1
     5     1     2   ar
     6     2     5   ar
     7     5     6   ar
     8     6     7   ar
     9     7     3   ar
    10     3     1   ar
