@<TRIPOS>MOLECULE
No_4868-gen_results/8p0m/2024-11-26-14-13-15/
 13 14 0 0 0
SMALL
GASTEIGER

@<TRIPOS>ATOM
      1 C         -28.0162   -0.8135   28.8779 C.ar    1  UNL1       -0.0039
      2 C         -28.4690   -0.7850   29.8287 C.ar    1  UNL1       -0.0003
      3 C         -28.1960    0.3478   28.0550 C.ar    1  UNL1       -0.0178
      4 C         -29.0191    1.3501   28.3782 C.ar    1  UNL1       -0.0039
      5 C         -29.4107    0.1803   30.3782 C.ar    1  UNL1       -0.0000
      6 C         -29.6059    1.2495   29.6193 C.ar    1  UNL1       -0.0003
      7 C         -27.5395    0.5047   26.6834 C.3     1  UNL1        0.0526
      8 C         -26.7901    1.6157   26.4776 C.ar    1  UNL1       -0.0178
      9 C         -25.6237    1.5359   25.7251 C.ar    1  UNL1       -0.0039
     10 C         -24.6242    2.5626   25.8228 C.ar    1  UNL1       -0.0003
     11 C         -25.0027    3.8008   26.4476 C.ar    1  UNL1       -0.0000
     12 C         -26.2126    3.8369   27.1684 C.ar    1  UNL1       -0.0003
     13 C         -27.0376    2.7568   27.2226 C.ar    1  UNL1       -0.0039
@<TRIPOS>BOND
     1     3     7    1
     2     7     8    1
     3     8     9   ar
     4     9    10   ar
     5    10    11   ar
     6    11    12   ar
     7    12    13   ar
     8    13     8   ar
     9     1     2   ar
    10     2     5   ar
    11     5     6   ar
    12     6     4   ar
    13     4     3   ar
    14     3     1   ar
