@<TRIPOS>MOLECULE
No_4869-gen_results/8p0m/2024-11-26-14-13-15/
 16 17 0 0 0
SMALL
GASTEIGER

@<TRIPOS>ATOM
      1 C         -28.0162   -0.8135   28.8779 C.ar    1  UNL1       -0.0030
      2 C         -28.4690   -0.7850   29.8287 C.ar    1  UNL1       -0.0003
      3 C         -27.0871    0.2903   28.6377 C.ar    1  UNL1       -0.0078
      4 C         -26.8317    1.2487   29.5869 C.ar    1  UNL1       -0.0030
      5 C         -28.3914    0.0801   31.0065 C.ar    1  UNL1       -0.0000
      6 C         -27.4940    1.1521   30.7841 C.ar    1  UNL1       -0.0003
      7 C         -26.3172    0.3994   27.3653 C.3     1  UNL1        0.0800
      8 N         -25.0720    0.1569   27.4305 N.3     1  UNL1       -0.2716
      9 C         -26.9366    0.7103   26.1532 C.3     1  UNL1        0.0205
     10 C         -26.1652    0.4768   25.0396 C.3     1  UNL1        0.0032
     11 C         -24.4154   -0.1227   28.7021 C.3     1  UNL1        0.0578
     12 C         -22.9861    0.1506   28.6136 C.3     1  UNL1        0.0160
     13 C         -24.7432    0.2689   25.1374 C.3     1  UNL1        0.0174
     14 C         -24.2228    0.1977   26.3291 C.3     1  UNL1        0.0723
     15 C         -24.5059   -1.5626   29.1431 C.3     1  UNL1        0.0173
     16 C         -22.3489    0.7188   29.8299 C.3     1  UNL1        0.0014
@<TRIPOS>BOND
     1     3     7    1
     2     7     8    1
     3     7     9    1
     4     8    11    1
     5    11    12    1
     6    10    13    1
     7     8    14    1
     8    11    15    1
     9    12    16    1
    10     9    10    1
    11    13    14    1
    12     1     2   ar
    13     2     5   ar
    14     5     6   ar
    15     6     4   ar
    16     4     3   ar
    17     3     1   ar
