@<TRIPOS>MOLECULE
No_487-gen_results/8p0m/2024-11-26-14-13-15/
 21 22 0 0 0
SMALL
GASTEIGER

@<TRIPOS>ATOM
      1 C         -28.0162   -0.8135   28.8779 C.ar    1  UNL1        0.0578
      2 C         -27.0636   -0.1190   28.6079 C.ar    1  UNL1        0.0114
      3 C         -27.0010    0.6913   27.4910 C.ar    1  UNL1        0.0012
      4 C         -28.1373    0.7363   26.6350 C.ar    1  UNL1        0.0046
      5 C         -29.2360    0.0765   27.0690 C.ar    1  UNL1        0.0544
      6 C         -29.2177   -0.6429   28.1747 C.ar    1  UNL1        0.0159
      7 CL        -28.0253   -1.7815   30.3211 Cl      1  UNL1       -0.0822
      8 C         -30.5318    0.0632   26.3790 C.2     1  UNL1        0.2491
      9 N         -30.6195   -0.0999   25.1575 N.am    1  UNL1       -0.2726
     10 O         -31.6084    0.1326   27.0077 O.2     1  UNL1       -0.2699
     11 C         -31.8647   -0.2911   24.3511 C.3     1  UNL1        0.1152
     12 C         -29.4526   -0.2633   24.1721 C.3     1  UNL1        0.1152
     13 C         -25.7365    1.4058   27.0723 C.ar    1  UNL1        0.0064
     14 C         -25.2125    2.3459   28.0665 C.ar    1  UNL1        0.0798
     15 C         -23.8824    2.7732   27.7467 C.ar    1  UNL1        0.0066
     16 C         -23.2156    2.3001   26.5853 C.ar    1  UNL1        0.0002
     17 C         -24.9110    1.0231   26.0465 C.ar    1  UNL1        0.0002
     18 C         -23.7701    1.4605   25.7782 C.ar    1  UNL1        0.0000
     19 C         -25.8310    2.8472   29.2180 C.2     1  UNL1        0.3878
     20 O         -25.5468    2.4976   30.3590 O.co2   1  UNL1       -0.2406
     21 O         -26.9450    3.5458   28.9901 O.co2   1  UNL1       -0.2406
@<TRIPOS>BOND
     1     1     7    1
     2     5     8    1
     3     8     9   am
     4     8    10    2
     5     9    11    1
     6     9    12    1
     7     3    13    1
     8    14    19    1
     9    19    20   ar
    10    19    21   ar
    11     1     2   ar
    12     2     3   ar
    13     3     4   ar
    14     4     5   ar
    15     5     6   ar
    16     6     1   ar
    17    13    14   ar
    18    14    15   ar
    19    15    16   ar
    20    16    18   ar
    21    18    17   ar
    22    17    13   ar
