@<TRIPOS>MOLECULE
No_4871-gen_results/8p0m/2024-11-26-14-13-15/
 35 38 0 0 0
SMALL
GASTEIGER

@<TRIPOS>ATOM
      1 C         -28.0162   -0.8135   28.8779 C.ar    1  UNL1        0.1392
      2 C         -27.0636   -0.1190   28.6079 C.ar    1  UNL1        0.0362
      3 C         -25.7923   -0.4302   29.0761 C.ar    1  UNL1        0.0030
      4 C         -25.5314   -1.5876   29.6105 C.ar    1  UNL1        0.0041
      5 C         -26.6366   -2.4336   29.9654 C.ar    1  UNL1        0.0744
      6 C         -26.3845   -3.6983   30.5363 C.3     1  UNL1        0.4187
      7 C         -27.8983   -2.0811   29.5561 C.ar    1  UNL1        0.0408
      8 F         -26.9489   -4.5877   29.5448 F       1  UNL1       -0.1659
      9 F         -25.0899   -3.8954   30.4408 F       1  UNL1       -0.1659
     10 C         -27.1937    1.2590   27.9240 C.ar    1  UNL1        0.0304
     11 C         -26.3899    1.6141   27.0224 C.ar    1  UNL1        0.1402
     12 C         -26.4532    2.9263   26.3363 C.ar    1  UNL1        0.0296
     13 C         -27.6009    3.7203   26.5375 C.ar    1  UNL1        0.0023
     14 C         -28.4947    3.2401   27.4920 C.ar    1  UNL1        0.0001
     15 C         -28.3528    2.0492   28.2044 C.ar    1  UNL1        0.0023
     16 F         -27.0773   -3.7312   31.5557 F       1  UNL1       -0.1659
     17 F         -25.2423    1.0234   26.7390 F       1  UNL1       -0.2042
     18 O         -29.3219   -0.5120   28.6154 O.3     1  UNL1       -0.4656
     19 C         -30.2677   -0.7672   29.6083 C.3     1  UNL1        0.2915
     20 C         -31.4358   -0.1256   29.3869 C.2     1  UNL1        0.2901
     21 O         -31.5798    0.6410   28.5341 O.2     1  UNL1       -0.2689
     22 N         -32.4915   -0.3928   30.2298 N.am    1  UNL1       -0.1761
     23 C         -33.8093    0.2188   30.1111 C.ar    1  UNL1        0.0735
     24 C         -34.7188   -0.3631   30.5260 C.ar    1  UNL1        0.0166
     25 C         -35.3934    0.1322   31.6132 C.ar    1  UNL1        0.0013
     26 C         -35.4873    1.5823   31.7776 C.ar    1  UNL1        0.0001
     27 C         -34.4484    2.2842   31.0787 C.ar    1  UNL1        0.0013
     28 C         -33.5005    1.6146   30.9381 C.ar    1  UNL1        0.0166
     29 C         -36.5038    2.2026   32.5829 C.ar    1  UNL1       -0.0000
     30 C         -37.5932    2.4644   32.1578 C.ar    1  UNL1       -0.0003
     31 C         -38.6106    3.1306   33.0006 C.ar    1  UNL1       -0.0043
     32 C         -36.0797    2.5332   33.9256 C.ar    1  UNL1       -0.0003
     33 C         -37.0134    3.1662   34.7640 C.ar    1  UNL1       -0.0043
     34 C         -38.2541    3.4598   34.3021 C.ar    1  UNL1       -0.0218
     35 C         -39.2641    4.1171   35.1556 C.3     1  UNL1        0.0310
@<TRIPOS>BOND
     1     5     6    1
     2     6     8    1
     3     6     9    1
     4     2    10    1
     5     6    16    1
     6    11    17    1
     7     1    18    1
     8    18    19    1
     9    19    20    1
    10    20    21    2
    11    20    22   am
    12    22    23    1
    13    26    29    1
    14    34    35    1
    15    23    24   ar
    16    24    25   ar
    17    25    26   ar
    18    26    27   ar
    19    27    28   ar
    20    28    23   ar
    21     1     2   ar
    22     2     3   ar
    23     3     4   ar
    24     4     5   ar
    25     5     7   ar
    26     7     1   ar
    27    10    11   ar
    28    11    12   ar
    29    12    13   ar
    30    13    14   ar
    31    14    15   ar
    32    15    10   ar
    33    29    30   ar
    34    30    31   ar
    35    31    34   ar
    36    34    33   ar
    37    33    32   ar
    38    32    29   ar
