@<TRIPOS>MOLECULE
No_4872-gen_results/8p0m/2024-11-26-14-13-15/
 15 16 0 0 0
SMALL
GASTEIGER

@<TRIPOS>ATOM
      1 C         -28.0162   -0.8135   28.8779 C.ar    1  UNL1        0.0002
      2 C         -28.4690   -0.7850   29.8287 C.ar    1  UNL1        0.0031
      3 C         -28.1816    0.4277   28.1134 C.ar    1  UNL1        0.0030
      4 C         -27.4498    0.6435   26.8500 C.ar    1  UNL1        0.0001
      5 C         -27.8596    1.4573   25.9076 C.ar    1  UNL1        0.0000
      6 C         -29.4263    0.1097   30.4178 C.ar    1  UNL1        0.0375
      7 C         -29.6233    1.2198   29.7351 C.ar    1  UNL1        0.1454
      8 C         -28.9609    1.4529   28.5513 C.ar    1  UNL1        0.0375
      9 C         -27.1843    1.5820   24.6996 C.ar    1  UNL1        0.0000
     10 C         -26.1000    0.7426   24.4149 C.ar    1  UNL1        0.0000
     11 C         -25.6591   -0.1235   25.3867 C.ar    1  UNL1        0.0000
     12 C         -26.2924   -0.2106   26.5790 C.ar    1  UNL1        0.0000
     13 O         -30.4592    2.2120   30.2354 O.3     1  UNL1       -0.4504
     14 C         -30.8235    3.1342   30.0552 C.2     1  UNL1        0.1796
     15 C         -31.9648    3.4285   30.1309 C.2     1  UNL1        0.0439
@<TRIPOS>BOND
     1     3     4    1
     2     7    13    1
     3    13    14    1
     4    14    15    2
     5     4     5   ar
     6     5     9   ar
     7     9    10   ar
     8    10    11   ar
     9    11    12   ar
    10    12     4   ar
    11     1     2   ar
    12     2     6   ar
    13     6     7   ar
    14     7     8   ar
    15     8     3   ar
    16     3     1   ar
