@<TRIPOS>MOLECULE
No_4873-gen_results/8p0m/2024-11-26-14-13-15/
 35 38 0 0 0
SMALL
GASTEIGER

@<TRIPOS>ATOM
      1 C         -28.0162   -0.8135   28.8779 C.ar    1  UNL1        0.0066
      2 C         -27.0636   -0.1189   28.6079 C.ar    1  UNL1        0.0002
      3 C         -27.0010    0.6913   27.4910 C.ar    1  UNL1        0.0000
      4 C         -25.8548    1.4825   27.0830 C.ar    1  UNL1        0.0000
      5 C         -25.8227    2.3296   25.9941 C.ar    1  UNL1       -0.0000
      6 C         -27.9874   -1.6326   30.1036 C.ar    1  UNL1        0.0798
      7 C         -26.7767   -1.8328   30.7473 C.ar    1  UNL1        0.0066
      8 C         -25.6300   -1.2164   30.3057 C.ar    1  UNL1       -0.0001
      9 C         -25.7324   -0.3480   29.1642 C.ar    1  UNL1       -0.0000
     10 C         -26.9473    2.3496   25.1604 C.ar    1  UNL1       -0.0000
     11 C         -28.0269    1.5715   25.3671 C.ar    1  UNL1       -0.0003
     12 C         -28.0603    0.7622   26.4991 C.ar    1  UNL1       -0.0000
     13 C         -29.1706   -2.3707   30.5933 C.2     1  UNL1        0.3878
     14 O         -30.1601   -2.0035   30.5717 O.co2   1  UNL1       -0.2406
     15 O         -28.9247   -3.6527   31.0013 O.co2   1  UNL1       -0.2406
     16 C         -29.1587    1.6482   24.4789 C.ar    1  UNL1       -0.0040
     17 C         -29.9830    2.6907   24.4358 C.ar    1  UNL1       -0.0003
     18 C         -31.1470    2.7452   23.6359 C.ar    1  UNL1       -0.0000
     19 C         -31.4132    1.5952   22.8944 C.ar    1  UNL1       -0.0003
     20 C         -30.6609    0.4849   22.9838 C.ar    1  UNL1       -0.0043
     21 C         -29.5399    0.4578   23.8364 C.ar    1  UNL1       -0.0218
     22 C         -32.6837    1.7477   22.1041 C.ar    1  UNL1       -0.0000
     23 C         -33.6964    2.0305   22.5152 C.ar    1  UNL1       -0.0000
     24 C         -34.8253    2.3668   21.6256 C.ar    1  UNL1       -0.0000
     25 C         -34.6716    2.0640   20.2747 C.ar    1  UNL1        0.0000
     26 C         -33.4681    1.6273   19.7529 C.ar    1  UNL1       -0.0000
     27 C         -32.4301    1.5344   20.5820 C.ar    1  UNL1       -0.0000
     28 C         -28.7710   -0.7340   23.9356 C.3     1  UNL1        0.0310
     29 C         -24.3430   -1.3550   30.9364 C.2     1  UNL1       -0.0028
     30 C         -23.2514   -1.4365   30.1776 C.2     1  UNL1       -0.0035
     31 C         -22.2378   -0.3351   30.2231 C.2     1  UNL1       -0.0074
     32 C         -21.5252   -0.1328   28.9993 C.2     1  UNL1       -0.0261
     33 C         -23.1810   -2.2863   29.0403 C.3     1  UNL1        0.1356
     34 N         -24.0416   -3.2742   29.0417 N.3     1  UNL1       -0.1262
     35 C         -21.8211    0.8714   28.0834 C.3     1  UNL1        0.0307
@<TRIPOS>BOND
     1     6    13    1
     2    13    14   ar
     3    13    15   ar
     4    11    16    1
     5    19    22    1
     6    21    28    1
     7     8    29    1
     8    29    30    2
     9    30    31    1
    10    31    32    2
    11    30    33    1
    12    33    34    1
    13    32    35    1
    14     2     3    1
    15     3     4   ar
    16     4     5   ar
    17     5    10   ar
    18    10    11   ar
    19    11    12   ar
    20    12     3   ar
    21    22    23   ar
    22    23    24   ar
    23    24    25   ar
    24    25    26   ar
    25    26    27   ar
    26    27    22   ar
    27     1     2   ar
    28     2     9   ar
    29     9     8   ar
    30     8     7   ar
    31     7     6   ar
    32     6     1   ar
    33    16    17   ar
    34    17    18   ar
    35    18    19   ar
    36    19    20   ar
    37    20    21   ar
    38    21    16   ar
