@<TRIPOS>MOLECULE
No_4875-gen_results/8p0m/2024-11-26-14-13-15/
 14 15 0 0 0
SMALL
GASTEIGER

@<TRIPOS>ATOM
      1 C         -28.0162   -0.8135   28.8779 C.ar    1  UNL1        0.0362
      2 C         -28.4690   -0.7850   29.8287 C.ar    1  UNL1        0.0820
      3 C         -26.5042   -0.7777   28.8766 C.ar    1  UNL1        0.1403
      4 C         -25.8103   -0.8531   30.1028 C.ar    1  UNL1        0.0275
      5 C         -27.9906   -0.8916   31.2257 C.ar    1  UNL1        0.0067
      6 C         -26.6042   -0.8676   31.2652 C.ar    1  UNL1        0.0024
      7 C         -24.4452   -0.9530   30.3506 C.ar    1  UNL1        0.0022
      8 C         -23.8019   -0.3041   31.2734 C.ar    1  UNL1        0.0001
      9 C         -24.5768   -0.1731   32.5372 C.ar    1  UNL1        0.0000
     10 C         -25.9505   -0.4771   32.5244 C.ar    1  UNL1        0.0001
     11 F         -25.7459   -0.8360   27.7864 F       1  UNL1       -0.2042
     12 C         -30.1059   -0.8930   29.8050 C.2     1  UNL1        0.3878
     13 O         -30.7516   -0.0392   30.4770 O.co2   1  UNL1       -0.2406
     14 O         -30.6366   -1.6915   29.0670 O.co2   1  UNL1       -0.2406
@<TRIPOS>BOND
     1     3    11    1
     2     2    12    1
     3    12    13   ar
     4    12    14   ar
     5     6    10   ar
     6    10     9   ar
     7     9     8   ar
     8     8     7   ar
     9     7     4   ar
    10     1     2   ar
    11     2     5   ar
    12     5     6   ar
    13     6     4   ar
    14     4     3   ar
    15     3     1   ar
