@<TRIPOS>MOLECULE
No_4876-gen_results/8p0m/2024-11-26-14-13-15/
 35 36 0 0 0
SMALL
GASTEIGER

@<TRIPOS>ATOM
      1 C         -28.0162   -0.8135   28.8779 C.3     1  UNL1        0.3411
      2 C         -27.0636   -0.1189   28.6079 C.ar    1  UNL1        0.0458
      3 C         -26.9287    1.1713   29.0083 C.ar    1  UNL1        0.0306
      4 C         -25.7702    2.0341   28.6884 C.ar    1  UNL1        0.1399
      5 C         -24.7141    1.4431   27.9188 C.ar    1  UNL1        0.0542
      6 C         -24.8590    0.0783   27.5836 C.ar    1  UNL1        0.0019
      7 C         -25.9647   -0.6606   27.9164 C.ar    1  UNL1        0.0011
      8 F         -28.4941   -0.3233   30.1835 F       1  UNL1       -0.1933
      9 C         -23.5289    2.1577   27.5490 C.3     1  UNL1        0.2601
     10 N         -22.3673    2.1841   27.9047 N.3     1  UNL1       -0.1807
     11 F         -23.7666    2.8880   26.4306 F       1  UNL1       -0.2126
     12 F         -28.4437   -1.8472   28.5409 F       1  UNL1       -0.1933
     13 C         -21.9908    1.2786   28.9005 C.3     1  UNL1        0.1238
     14 F         -25.6963    3.1824   28.6731 F       1  UNL1       -0.2044
     15 C         -20.9481    0.2760   28.4798 C.3     1  UNL1        0.1611
     16 O         -21.4228   -0.8221   28.3995 O.3     1  UNL1       -0.3496
     17 C         -21.9298   -1.2618   29.7502 C.3     1  UNL1        0.1743
     18 C         -23.3585   -0.7874   29.8809 C.3     1  UNL1        0.1772
     19 O         -23.7868   -0.9542   30.7932 O.3     1  UNL1       -0.3225
     20 C         -25.1839   -0.5833   31.1268 C.3     1  UNL1        0.2924
     21 C         -25.5041   -0.1391   32.2498 C.2     1  UNL1        0.0372
     22 C         -24.9337    0.9024   32.6652 C.2     1  UNL1        0.0005
     23 C         -25.7914    2.0591   32.9460 C.ar    1  UNL1        0.0002
     24 C         -26.9872    1.9108   33.6874 C.ar    1  UNL1        0.0046
     25 C         -27.8092    2.9150   33.9621 C.ar    1  UNL1        0.0569
     26 C         -27.4527    4.2470   33.5527 C.ar    1  UNL1        0.0112
     27 C         -26.2435    4.4758   32.8534 C.ar    1  UNL1        0.0799
     28 C         -25.4272    3.4211   32.6362 C.ar    1  UNL1        0.0066
     29 O         -25.8724   -1.9862   30.9529 O.3     1  UNL1       -0.1847
     30 C         -25.8604    5.8658   32.4957 C.2     1  UNL1        0.3878
     31 O         -26.3322    6.7160   32.8767 O.co2   1  UNL1       -0.2406
     32 O         -24.7876    5.8622   31.6828 O.co2   1  UNL1       -0.2406
     33 C         -29.1055    2.7554   34.6389 C.2     1  UNL1        0.2842
     34 O         -29.5545    1.8058   34.8493 O.2     1  UNL1       -0.2667
     35 N         -29.7497    3.9614   35.0068 N.am    1  UNL1       -0.0837
@<TRIPOS>BOND
     1     1     2    1
     2     1     8    1
     3     5     9    1
     4     9    10    1
     5     9    11    1
     6     1    12    1
     7    10    13    1
     8     4    14    1
     9    13    15    1
    10    15    16    1
    11    16    17    1
    12    17    18    1
    13    18    19    1
    14    19    20    1
    15    20    21    1
    16    21    22    2
    17    22    23    1
    18    20    29    1
    19    27    30    1
    20    30    31   ar
    21    30    32   ar
    22    25    33    1
    23    33    34    2
    24    33    35   am
    25     2     3   ar
    26     3     4   ar
    27     4     5   ar
    28     5     6   ar
    29     6     7   ar
    30     7     2   ar
    31    23    24   ar
    32    24    25   ar
    33    25    26   ar
    34    26    27   ar
    35    27    28   ar
    36    28    23   ar
