@<TRIPOS>MOLECULE
No_4877-gen_results/8p0m/2024-11-26-14-13-15/
 22 24 0 0 0
SMALL
GASTEIGER

@<TRIPOS>ATOM
      1 C         -28.0162   -0.8135   28.8779 C.ar    1  UNL1        0.0066
      2 C         -27.0636   -0.1190   28.6079 C.ar    1  UNL1        0.0798
      3 C         -26.9716    0.7139   27.5060 C.ar    1  UNL1        0.0066
      4 C         -28.1053    0.7744   26.6421 C.ar    1  UNL1        0.0014
      5 C         -29.2008    0.1044   27.0527 C.ar    1  UNL1        0.0136
      6 C         -29.2096   -0.6029   28.1853 C.ar    1  UNL1        0.0014
      7 C         -30.3702    0.2264   26.1604 C.ar    1  UNL1        0.0516
      8 N         -31.3165   -0.4572   26.3805 N.pl3   1  UNL1       -0.2850
      9 C         -30.3103    1.0586   24.9663 C.ar    1  UNL1        0.0148
     10 C         -25.7049   -0.2404   29.4276 C.2     1  UNL1        0.3878
     11 O         -25.3159    0.5025   30.0090 O.co2   1  UNL1       -0.2406
     12 O         -24.9194   -1.3632   29.0590 O.co2   1  UNL1       -0.2406
     13 C         -29.5027    1.9835   24.8520 C.ar    1  UNL1        0.0013
     14 C         -28.0925    1.7952   25.6040 C.ar    1  UNL1        0.0001
     15 C         -31.7931   -1.0323   27.3617 C.ar    1  UNL1        0.0548
     16 C         -32.6121   -0.7693   27.8999 C.ar    1  UNL1        0.0150
     17 C         -33.1729   -1.3339   29.1652 C.ar    1  UNL1        0.0046
     18 C         -32.5642   -2.4710   29.6112 C.ar    1  UNL1        0.0421
     19 C         -31.5095   -2.9920   28.9394 C.ar    1  UNL1        0.1970
     20 C         -31.0580   -2.3093   27.8041 C.ar    1  UNL1        0.0568
     21 O         -30.8562   -4.1211   29.3195 O.3     1  UNL1       -0.2865
     22 C         -32.4436   -0.3485   25.3787 C.3     1  UNL1        0.1173
@<TRIPOS>BOND
     1     7     8    1
     2     2    10    1
     3    10    11   ar
     4    10    12   ar
     5     8    15    1
     6    19    21    1
     7     8    22    1
     8     5     7   ar
     9     7     9   ar
    10     9    13   ar
    11    13    14   ar
    12    14     4   ar
    13     1     2   ar
    14     2     3   ar
    15     3     4   ar
    16     4     5   ar
    17     5     6   ar
    18     6     1   ar
    19    15    16   ar
    20    16    17   ar
    21    17    18   ar
    22    18    19   ar
    23    19    20   ar
    24    20    15   ar
