@<TRIPOS>MOLECULE
No_4878-gen_results/8p0m/2024-11-26-14-13-15/
 35 37 0 0 0
SMALL
GASTEIGER

@<TRIPOS>ATOM
      1 C         -28.0162   -0.8135   28.8779 C.3     1  UNL1        0.2080
      2 C         -28.4690   -0.7850   29.8287 C.3     1  UNL1        0.2321
      3 C         -26.5042   -0.7777   28.8766 C.3     1  UNL1        0.0475
      4 C         -25.8305   -1.6807   29.6849 C.3     1  UNL1        0.0062
      5 C         -28.1490   -1.8854   30.9031 C.3     1  UNL1        0.1590
      6 C         -26.6460   -1.9561   31.0330 C.3     1  UNL1        0.0336
      7 O         -28.6274   -1.7308   32.1858 O.3     1  UNL1       -0.3477
      8 O         -30.0168   -0.9269   29.8771 O.3     1  UNL1       -0.4729
      9 C         -24.6534   -2.3030   29.3807 C.3     1  UNL1        0.0002
     10 C         -23.4721   -1.5067   29.2502 C.3     1  UNL1        0.0002
     11 C         -23.3950   -0.1928   29.8405 C.3     1  UNL1        0.0054
     12 C         -22.6117    0.7850   29.1412 C.3     1  UNL1        0.0676
     13 C         -23.2236    1.8985   28.5538 C.3     1  UNL1        0.3061
     14 O         -24.0276    1.4878   27.6694 O.3     1  UNL1       -0.1483
     15 F         -24.4773    2.1912   26.9111 F       1  UNL1       -0.0444
     16 O         -28.2850    0.4639   28.0605 O.2     1  UNL1       -0.4726
     17 O         -22.2028    2.6857   28.0130 O.3     1  UNL1       -0.1866
     18 C         -28.3978    1.5684   28.6303 C.2     1  UNL1        0.1680
     19 C         -28.8547    2.5120   27.8039 C.2     1  UNL1        0.0186
     20 C         -29.0850    2.3332   26.5539 C.3     1  UNL1        0.0556
     21 C         -29.7953    1.6320   26.0665 C.ar    1  UNL1       -0.0177
     22 C         -29.9644    1.3701   24.6120 C.ar    1  UNL1       -0.0039
     23 C         -30.7940    0.3943   24.0901 C.ar    1  UNL1       -0.0003
     24 C         -31.3726   -0.5462   25.0231 C.ar    1  UNL1       -0.0000
     25 C         -31.1592   -0.4284   26.3827 C.ar    1  UNL1       -0.0003
     26 C         -30.3353    0.5966   26.8814 C.ar    1  UNL1       -0.0039
     27 C         -30.7741   -0.0469   30.5087 C.ar    1  UNL1        0.1387
     28 C         -30.5616    0.4891   31.3683 C.ar    1  UNL1        0.0369
     29 C         -31.4187    1.5550   31.9817 C.ar    1  UNL1        0.0031
     30 C         -32.6415    1.7364   31.3361 C.ar    1  UNL1        0.0002
     31 C         -32.0594    0.1135   29.8265 C.ar    1  UNL1        0.0369
     32 C         -32.9534    1.0269   30.2645 C.ar    1  UNL1        0.0031
     33 C         -29.4081   -2.6500   32.7676 C.3     1  UNL1        0.1684
     34 C         -29.7784   -2.2321   34.0409 C.2     1  UNL1        0.0056
     35 C         -30.4199   -2.7620   34.8156 C.2     1  UNL1       -0.0023
@<TRIPOS>BOND
     1     1     2    1
     2     1     3    1
     3     3     4    1
     4     2     5    1
     5     4     6    1
     6     5     6    1
     7     5     7    1
     8     2     8    1
     9     4     9    1
    10     9    10    1
    11    10    11    1
    12    11    12    1
    13    12    13    1
    14    13    14    1
    15    14    15    1
    16     1    16    1
    17    13    17    1
    18    16    18    1
    19    18    19    2
    20    19    20    1
    21     8    27    1
    22     7    33    1
    23    33    34    1
    24    34    35    2
    25    20    21    1
    26    27    28   ar
    27    28    29   ar
    28    29    30   ar
    29    30    32   ar
    30    32    31   ar
    31    31    27   ar
    32    21    22   ar
    33    22    23   ar
    34    23    24   ar
    35    24    25   ar
    36    25    26   ar
    37    26    21   ar
