@<TRIPOS>MOLECULE
No_4879-gen_results/8p0m/2024-11-26-14-13-15/
 25 28 0 0 0
SMALL
GASTEIGER

@<TRIPOS>ATOM
      1 C         -28.0162   -0.8135   28.8779 C.ar    1  UNL1       -0.0039
      2 C         -28.4690   -0.7850   29.8287 C.ar    1  UNL1       -0.0003
      3 C         -26.5042   -0.7777   28.8766 C.ar    1  UNL1       -0.0178
      4 C         -25.6540   -0.6597   27.7191 C.3     1  UNL1        0.0528
      5 C         -27.9180   -0.9374   31.1824 C.ar    1  UNL1       -0.0000
      6 C         -26.5423   -0.9399   31.2606 C.ar    1  UNL1       -0.0003
      7 C         -25.7832   -0.8935   30.1201 C.ar    1  UNL1       -0.0039
      8 C         -25.9259    0.2819   26.7445 C.ar    1  UNL1       -0.0121
      9 C         -25.6258    1.4719   26.8191 C.ar    1  UNL1        0.0664
     10 C         -24.8156    1.9657   27.9646 C.2     1  UNL1        0.2686
     11 N         -24.4735    3.2932   27.9753 N.am    1  UNL1       -0.1612
     12 O         -24.4480    1.3040   28.9031 O.2     1  UNL1       -0.2682
     13 C         -25.2348    4.2296   27.2996 C.3     1  UNL1        0.2866
     14 C         -26.0491    2.4885   25.8984 C.ar    1  UNL1        0.0729
     15 N         -25.7369    3.8371   26.0985 N.pl3   1  UNL1       -0.1984
     16 C         -26.6214   -0.2355   25.5767 C.ar    1  UNL1       -0.0037
     17 N         -24.7993    5.4903   27.4488 N.pl3   1  UNL1       -0.1970
     18 C         -25.0973    6.1373   28.6262 C.ar    1  UNL1        0.0879
     19 C         -25.7271    5.5249   29.6230 C.ar    1  UNL1        0.1150
     20 N         -25.6227    6.0754   30.7834 N.ar    1  UNL1       -0.2410
     21 C         -24.7733    7.5868   28.7521 C.ar    1  UNL1        0.0194
     22 C         -24.8292    8.2052   29.9499 C.ar    1  UNL1        0.0220
     23 C         -25.3081    7.3995   31.0199 C.ar    1  UNL1        0.0990
     24 C         -27.2679    0.5243   24.5526 C.ar    1  UNL1        0.0010
     25 C         -26.8787    2.0256   24.7788 C.ar    1  UNL1        0.0163
@<TRIPOS>BOND
     1     3     4    1
     2     4     8    1
     3     9    10    1
     4    10    11   am
     5    10    12    2
     6    11    13    1
     7    13    15    1
     8    14    15    1
     9    13    17    1
    10    17    18    1
    11    18    19   ar
    12    19    20   ar
    13    20    23   ar
    14    23    22   ar
    15    22    21   ar
    16    21    18   ar
    17     1     2   ar
    18     2     5   ar
    19     5     6   ar
    20     6     7   ar
    21     7     3   ar
    22     3     1   ar
    23     8     9   ar
    24     9    14   ar
    25    14    25   ar
    26    25    24   ar
    27    24    16   ar
    28    16     8   ar
