@<TRIPOS>MOLECULE
No_488-gen_results/8p0m/2024-11-26-14-13-15/
 20 21 0 0 0
SMALL
GASTEIGER

@<TRIPOS>ATOM
      1 C         -28.0162   -0.8135   28.8779 C.3     1  UNL1        0.1177
      2 C         -27.0636   -0.1189   28.6079 C.ar    1  UNL1       -0.0023
      3 C         -25.7923   -0.4302   29.0761 C.ar    1  UNL1       -0.0003
      4 C         -24.5456    0.3494   28.8225 C.ar    1  UNL1        0.0294
      5 C         -24.6586    1.4196   27.8878 C.ar    1  UNL1        0.1401
      6 C         -25.9471    1.6811   27.3792 C.ar    1  UNL1        0.0294
      7 C         -27.0439    0.9739   27.6871 C.ar    1  UNL1       -0.0003
      8 N         -29.1882   -0.1472   29.0918 N.pl3   1  UNL1       -0.3025
      9 C         -29.6010    0.1626   30.3267 C.2     1  UNL1        0.0570
     10 C         -30.0469    0.0268   27.9837 C.3     1  UNL1        0.0958
     11 F         -23.6041    2.1048   27.6567 F       1  UNL1       -0.2042
     12 C         -31.3967   -0.2987   28.1928 C.3     1  UNL1        0.0478
     13 C         -31.8323   -1.3867   28.1775 C.ar    1  UNL1       -0.0205
     14 C         -33.2216   -1.7803   28.3716 C.ar    1  UNL1       -0.0042
     15 C         -33.6475   -3.1044   28.2737 C.ar    1  UNL1       -0.0003
     16 C         -32.7180   -4.0860   27.9408 C.ar    1  UNL1       -0.0000
     17 C         -31.4231   -3.8799   27.7672 C.ar    1  UNL1       -0.0003
     18 C         -30.9512   -2.5557   27.8996 C.ar    1  UNL1       -0.0042
     19 C         -29.9887    1.4136   30.5840 C.2     1  UNL1       -0.0100
     20 C         -30.3848    1.7569   31.9028 C.3     1  UNL1        0.0321
@<TRIPOS>BOND
     1     1     2    1
     2     1     8    1
     3     8     9    1
     4     8    10    1
     5     5    11    1
     6    10    12    1
     7     9    19    2
     8    19    20    1
     9    12    13    1
    10     2     3   ar
    11     3     4   ar
    12     4     5   ar
    13     5     6   ar
    14     6     7   ar
    15     7     2   ar
    16    13    14   ar
    17    14    15   ar
    18    15    16   ar
    19    16    17   ar
    20    17    18   ar
    21    18    13   ar
