@<TRIPOS>MOLECULE
No_4881-gen_results/8p0m/2024-11-26-14-13-15/
 31 34 0 0 0
SMALL
GASTEIGER

@<TRIPOS>ATOM
      1 C         -28.0162   -0.8135   28.8779 C.ar    1  UNL1       -0.0039
      2 C         -28.4690   -0.7850   29.8287 C.ar    1  UNL1       -0.0003
      3 C         -26.5455   -0.8762   28.8500 C.ar    1  UNL1       -0.0181
      4 C         -25.6825   -0.7773   27.6829 C.3     1  UNL1        0.0480
      5 C         -27.9181   -1.0034   31.1877 C.ar    1  UNL1       -0.0000
      6 C         -26.5308   -1.0794   31.2463 C.ar    1  UNL1       -0.0003
      7 C         -25.7798   -1.0462   30.0905 C.ar    1  UNL1       -0.0039
      8 C         -25.8976    0.2387   26.7449 C.2     1  UNL1       -0.0435
      9 C         -25.6318    1.4984   27.0379 C.2     1  UNL1       -0.0300
     10 C         -24.8915    1.8300   28.2575 C.ar    1  UNL1       -0.0121
     11 C         -23.7185    1.2879   28.5049 C.ar    1  UNL1       -0.0225
     12 C         -23.0831    1.5332   29.7328 C.ar    1  UNL1       -0.0043
     13 C         -23.7907    2.1777   30.7260 C.ar    1  UNL1       -0.0006
     14 C         -25.0299    2.7516   30.5789 C.ar    1  UNL1       -0.0040
     15 C         -25.6306    2.5244   29.2777 C.ar    1  UNL1       -0.0184
     16 C         -26.9727    2.9872   29.2404 C.3     1  UNL1        0.0526
     17 C         -27.1556    4.3483   29.1054 C.ar    1  UNL1       -0.0178
     18 C         -26.1256    5.1733   29.1583 C.ar    1  UNL1       -0.0039
     19 C         -26.0086    6.2405   28.9102 C.ar    1  UNL1       -0.0003
     20 C         -24.7860    7.1629   28.9020 C.ar    1  UNL1       -0.0000
     21 C         -26.0229    2.5906   26.2019 C.3     1  UNL1        0.0304
     22 C         -26.4561   -0.1186   25.4938 C.3     1  UNL1        0.0264
     23 C         -27.1684    7.0420   28.3155 C.ar    1  UNL1       -0.0000
     24 C         -22.8541    0.6171   27.5261 C.3     1  UNL1        0.0310
     25 C         -24.6485    8.1576   29.8986 C.ar    1  UNL1       -0.0000
     26 C         -23.6559    9.1044   29.7029 C.ar    1  UNL1       -0.0000
     27 C         -22.8827    9.0642   28.4680 C.ar    1  UNL1        0.0000
     28 C         -23.2082    8.1319   27.5193 C.ar    1  UNL1       -0.0000
     29 C         -24.2097    7.2669   27.6978 C.ar    1  UNL1       -0.0000
     30 C         -28.3357    6.2425   28.2497 C.ar    1  UNL1       -0.0003
     31 C         -28.3462    4.9206   28.5506 C.ar    1  UNL1       -0.0039
@<TRIPOS>BOND
     1     3     4    1
     2     4     8    1
     3     8     9    2
     4     9    10    1
     5    15    16    1
     6    19    20    1
     7     9    21    1
     8     8    22    1
     9    11    24    1
    10    16    17    1
    11    17    18   ar
    12    18    19   ar
    13    19    23   ar
    14    23    30   ar
    15    30    31   ar
    16    31    17   ar
    17     1     2   ar
    18     2     5   ar
    19     5     6   ar
    20     6     7   ar
    21     7     3   ar
    22     3     1   ar
    23    10    11   ar
    24    11    12   ar
    25    12    13   ar
    26    13    14   ar
    27    14    15   ar
    28    15    10   ar
    29    20    25   ar
    30    25    26   ar
    31    26    27   ar
    32    27    28   ar
    33    28    29   ar
    34    29    20   ar
