@<TRIPOS>MOLECULE
No_4882-gen_results/8p0m/2024-11-26-14-13-15/
 22 24 0 0 0
SMALL
GASTEIGER

@<TRIPOS>ATOM
      1 C         -28.0162   -0.8135   28.8779 C.ar    1  UNL1        0.0064
      2 C         -28.4690   -0.7850   29.8287 C.ar    1  UNL1        0.0760
      3 C         -26.5042   -0.7777   28.8766 C.ar    1  UNL1       -0.0001
      4 C         -25.6540   -0.6597   27.7191 C.ar    1  UNL1       -0.0038
      5 C         -27.9180   -0.9374   31.1824 C.ar    1  UNL1        0.0065
      6 C         -26.5423   -0.9399   31.2606 C.ar    1  UNL1        0.0002
      7 C         -25.7832   -0.8935   30.1201 C.ar    1  UNL1        0.0001
      8 C         -24.3096   -0.3015   27.8531 C.ar    1  UNL1       -0.0133
      9 C         -23.6669   -0.4595   29.0986 C.ar    1  UNL1        0.0517
     10 C         -24.3700   -0.6645   30.2027 C.ar    1  UNL1        0.0043
     11 C         -22.1946   -0.2290   29.1314 C.2     1  UNL1        0.2687
     12 N         -21.2882    0.5665   28.7715 N.am    1  UNL1       -0.1745
     13 O         -21.6674   -1.0322   30.0762 O.2     1  UNL1       -0.2680
     14 C         -30.0674   -0.8839   29.8756 C.2     1  UNL1        0.3458
     15 O         -30.5368   -0.3006   29.0066 O.3     1  UNL1       -0.4182
     16 O         -30.7167   -1.1366   30.9611 O.2     1  UNL1       -0.2445
     17 C         -21.6144    1.5598   27.7289 C.2     1  UNL1        0.0847
     18 C         -22.7827    1.6736   27.3148 C.2     1  UNL1       -0.0035
     19 C         -23.9024    0.7976   27.1754 C.3     1  UNL1        0.0539
     20 C         -30.8065    0.7354   28.6698 C.2     1  UNL1        0.1785
     21 C         -31.8047    1.0789   27.9080 C.2     1  UNL1        0.0149
     22 C         -32.1281    2.4396   27.5069 C.3     1  UNL1        0.0341
@<TRIPOS>BOND
     1     9    11    1
     2    11    12   am
     3    11    13    2
     4     2    14    1
     5    14    15    1
     6    14    16    2
     7    12    17    1
     8    17    18    2
     9     8    19    1
    10    18    19    1
    11    15    20    1
    12    20    21    2
    13    21    22    1
    14     1     2   ar
    15     2     5   ar
    16     5     6   ar
    17     6     7   ar
    18     3     1   ar
    19     3     4   ar
    20     4     8   ar
    21     8     9   ar
    22     9    10   ar
    23    10     7   ar
    24     7     3   ar
