@<TRIPOS>MOLECULE
No_4885-gen_results/8p0m/2024-11-26-14-13-15/
 16 18 0 0 0
SMALL
GASTEIGER

@<TRIPOS>ATOM
      1 C         -28.0162   -0.8135   28.8779 C.ar    1  UNL1        0.0081
      2 C         -28.4690   -0.7850   29.8287 C.ar    1  UNL1        0.0686
      3 C         -26.5455   -0.8762   28.8500 C.ar    1  UNL1        0.0299
      4 C         -25.8041   -1.0324   30.0571 C.ar    1  UNL1        0.1414
      5 C         -30.0055   -0.7457   29.8978 C.2     1  UNL1        0.2514
      6 C         -26.5747   -1.0565   31.2005 C.ar    1  UNL1        0.0459
      7 C         -27.9251   -0.9738   31.1683 C.ar    1  UNL1        0.0737
      8 O         -30.6342   -0.0988   29.1602 O.2     1  UNL1       -0.2698
      9 N         -30.6627   -1.2806   31.0265 N.am    1  UNL1       -0.2602
     10 C         -32.1011   -1.2682   31.0883 C.3     1  UNL1        0.0953
     11 F         -24.5127   -1.0825   30.0545 F       1  UNL1       -0.2041
     12 C         -32.5864   -2.0110   31.9360 C.3     1  UNL1        0.0217
     13 C         -31.8277   -2.7488   32.9253 C.3     1  UNL1        0.0053
     14 C         -30.4255   -2.7662   32.8101 C.3     1  UNL1        0.0424
     15 C         -29.8689   -2.1387   31.8185 C.3     1  UNL1        0.1693
     16 N         -28.5313   -1.9705   31.9115 N.pl3   1  UNL1       -0.2189
@<TRIPOS>BOND
     1     2     5    1
     2     5     8    2
     3     5     9   am
     4     9    10    1
     5     4    11    1
     6    12    13    1
     7     9    15    1
     8    14    15    1
     9     7    16    1
    10    15    16    1
    11    10    12    1
    12    13    14    1
    13     1     2   ar
    14     2     7   ar
    15     7     6   ar
    16     6     4   ar
    17     4     3   ar
    18     3     1   ar
