@<TRIPOS>MOLECULE
No_4886-gen_results/8p0m/2024-11-26-14-13-15/
 24 27 0 0 0
SMALL
GASTEIGER

@<TRIPOS>ATOM
      1 C         -28.0162   -0.8135   28.8779 C.ar    1  UNL1        0.0515
      2 C         -27.0636   -0.1190   28.6079 C.ar    1  UNL1       -0.0092
      3 C         -26.9716    0.7139   27.5060 C.ar    1  UNL1        0.0354
      4 C         -28.1053    0.7744   26.6421 C.ar    1  UNL1        0.0067
      5 C         -29.2008    0.1044   27.0527 C.ar    1  UNL1        0.0716
      6 C         -28.0219   -1.5899   30.0879 C.2     1  UNL1        0.2645
      7 C         -29.1640   -0.6394   28.1484 C.ar    1  UNL1        0.0081
      8 O         -28.8451   -1.9567   30.6618 O.2     1  UNL1       -0.2684
      9 N         -26.6930   -2.1968   30.3816 N.am    1  UNL1       -0.2010
     10 C         -30.3788    0.2147   26.1734 C.3     1  UNL1        0.4186
     11 F         -30.2627    0.2569   25.0063 F       1  UNL1       -0.1659
     12 F         -31.1638    1.2210   26.6557 F       1  UNL1       -0.1659
     13 F         -31.4260   -0.7054   26.3652 F       1  UNL1       -0.1659
     14 C         -25.7096    1.4436   27.1088 C.2     1  UNL1        0.1949
     15 C         -24.6222    1.1878   27.7434 C.ar    1  UNL1        0.0350
     16 C         -23.3646    1.8251   27.4786 C.ar    1  UNL1       -0.0014
     17 C         -22.1614    1.6330   28.1725 C.ar    1  UNL1       -0.0218
     18 C         -20.9974    2.1415   27.8061 C.3     1  UNL1        0.0310
     19 C         -22.3543    0.6862   29.3120 C.ar    1  UNL1       -0.0046
     20 C         -23.5037    0.0526   29.7092 C.ar    1  UNL1       -0.0041
     21 C         -24.5610    0.3117   28.9190 C.ar    1  UNL1       -0.0136
     22 C         -25.7580   -0.3220   29.3100 C.3     1  UNL1        0.0666
     23 C         -25.6742   -1.3458   30.2506 C.3     1  UNL1        0.1241
     24 O         -25.7840    2.2798   26.1293 O.2     1  UNL1       -0.2866
@<TRIPOS>BOND
     1     1     6    1
     2     6     8    2
     3     6     9   am
     4     5    10    1
     5    10    11    1
     6    10    12    1
     7    10    13    1
     8     3    14    1
     9    14    15    1
    10     2    22    1
    11    21    22    1
    12    22    23    1
    13    14    24    2
    14    18    17    1
    15    23     9    1
    16    15    16   ar
    17    16    17   ar
    18    17    19   ar
    19    19    20   ar
    20    20    21   ar
    21    21    15   ar
    22     1     7   ar
    23     7     5   ar
    24     5     4   ar
    25     4     3   ar
    26     3     2   ar
    27     2     1   ar
