@<TRIPOS>MOLECULE
No_4887-gen_results/8p0m/2024-11-26-14-13-15/
 10 10 0 0 0
SMALL
GASTEIGER

@<TRIPOS>ATOM
      1 C         -28.0162   -0.8135   28.8779 C.ar    1  UNL1        0.0048
      2 C         -28.4690   -0.7850   29.8287 C.ar    1  UNL1        0.0002
      3 C         -28.1960    0.3478   28.0550 C.ar    1  UNL1        0.0575
      4 C         -29.0191    1.3501   28.3782 C.ar    1  UNL1        0.0048
      5 C         -29.4107    0.1803   30.3782 C.ar    1  UNL1        0.0000
      6 C         -29.6059    1.2495   29.6193 C.ar    1  UNL1        0.0002
      7 C         -27.4597    0.3802   26.7091 C.2     1  UNL1        0.2749
      8 N         -27.8834    0.5390   25.7073 N.2     1  UNL1       -0.2319
      9 O         -26.0837    0.1694   26.7809 O.2     1  UNL1       -0.2656
     10 C         -27.2081    0.4707   24.3925 C.3     1  UNL1        0.1551
@<TRIPOS>BOND
     1     3     7    1
     2     7     8    2
     3     7     9    1
     4     8    10    1
     5     1     2   ar
     6     2     5   ar
     7     5     6   ar
     8     6     4   ar
     9     4     3   ar
    10     3     1   ar
