@<TRIPOS>MOLECULE
No_4888-gen_results/8p0m/2024-11-26-14-13-15/
 9 9 0 0 0
SMALL
GASTEIGER

@<TRIPOS>ATOM
      1 C         -28.0162   -0.8135   28.8779 C.ar    1  UNL1       -0.0000
      2 C         -27.0636   -0.1190   28.6079 C.ar    1  UNL1       -0.0000
      3 C         -25.7647   -0.3897   29.0360 C.ar    1  UNL1       -0.0003
      4 C         -25.5296   -1.5302   29.9014 C.ar    1  UNL1       -0.0000
      5 C         -26.6577   -2.2915   30.2035 C.ar    1  UNL1       -0.0000
      6 C         -27.8548   -1.9555   29.7630 C.ar    1  UNL1       -0.0000
      7 C         -24.7050    0.5765   28.7945 C.2     1  UNL1       -0.0046
      8 C         -23.4562    0.3090   29.2942 C.2     1  UNL1       -0.0258
      9 C         -22.3830    1.1646   29.0180 C.3     1  UNL1        0.0307
@<TRIPOS>BOND
     1     3     7    1
     2     7     8    2
     3     8     9    1
     4     1     2   ar
     5     2     3   ar
     6     3     4   ar
     7     4     5   ar
     8     5     6   ar
     9     6     1   ar
