@<TRIPOS>MOLECULE
No_4889-gen_results/8p0m/2024-11-26-14-13-15/
 15 15 0 0 0
SMALL
GASTEIGER

@<TRIPOS>ATOM
      1 C         -28.0162   -0.8135   28.8779 C.1     1  UNL1       -0.0597
      2 C         -28.4690   -0.7850   29.8287 C.1     1  UNL1       -0.0594
      3 C         -27.2166   -0.0832   27.9639 C.ar    1  UNL1        0.0420
      4 C         -26.5094   -0.3500   26.9456 C.ar    1  UNL1        0.0082
      5 C         -25.8221    0.6874   26.0575 C.ar    1  UNL1        0.0006
      6 C         -29.1206   -1.7860   30.6105 C.2     1  UNL1        0.0481
      7 C         -30.4987   -1.8316   30.7235 C.2     1  UNL1        0.0266
      8 C         -25.8031    1.9504   26.4440 C.ar    1  UNL1        0.0000
      9 C         -26.4543    2.3180   27.5997 C.ar    1  UNL1        0.0006
     10 C         -27.1119    1.4476   28.3902 C.ar    1  UNL1        0.0082
     11 C         -31.2001   -0.8303   30.2419 C.3     1  UNL1        0.2767
     12 C         -32.5597   -0.8451   30.1937 C.2     1  UNL1        0.3989
     13 O         -33.1657   -1.1183   29.3125 O.co2   1  UNL1       -0.2424
     14 O         -33.2315   -0.4834   31.3379 O.co2   1  UNL1       -0.2424
     15 O         -30.7067    0.4356   30.6866 O.3     1  UNL1       -0.2060
@<TRIPOS>BOND
     1     1     2    3
     2     1     3    1
     3     2     6    1
     4     6     7    2
     5     7    11    1
     6    11    12    1
     7    12    13   ar
     8    12    14   ar
     9    11    15    1
    10     3     4   ar
    11     4     5   ar
    12     5     8   ar
    13     8     9   ar
    14     9    10   ar
    15    10     3   ar
