@<TRIPOS>MOLECULE
No_489-gen_results/8p0m/2024-11-26-14-13-15/
 16 17 0 0 0
SMALL
GASTEIGER

@<TRIPOS>ATOM
      1 O         -28.1229   -1.3353   28.4874 O.2     1  UNL1       -0.2714
      2 C         -27.4806   -0.4044   28.7094 C.2     1  UNL1        0.2674
      3 C         -27.1904    0.2460   29.5268 C.3     1  UNL1        0.2275
      4 N         -26.6021   -0.1576   27.5515 N.am    1  UNL1       -0.1783
      5 C         -25.6421    0.9031   27.5822 C.ar    1  UNL1        0.0695
      6 C         -24.6412    1.0988   26.6164 C.ar    1  UNL1        0.0163
      7 C         -25.4744    1.6186   28.8246 C.ar    1  UNL1       -0.0049
      8 C         -28.0399   -0.0540   30.8675 C.3     1  UNL1        0.4179
      9 C         -26.2540    1.3337   29.8539 C.3     1  UNL1        0.0601
     10 C         -23.5849    2.0069   26.7886 C.ar    1  UNL1        0.0013
     11 C         -23.4680    2.6935   28.0198 C.ar    1  UNL1       -0.0002
     12 C         -24.3304    2.5058   28.9447 C.ar    1  UNL1       -0.0029
     13 F         -27.3251   -0.5865   31.7360 F       1  UNL1       -0.1682
     14 F         -28.5332    1.1035   31.3102 F       1  UNL1       -0.1682
     15 F         -29.0739   -0.8280   30.4895 F       1  UNL1       -0.1682
     16 CL        -28.0721    0.7231   29.6318 Cl      1  UNL1       -0.0977
@<TRIPOS>BOND
     1     1     2    2
     2     2     3    1
     3     2     4   am
     4     4     5    1
     5     3     8    1
     6     3     9    1
     7     7     9    1
     8     8    13    1
     9     8    14    1
    10     8    15    1
    11     3    16    1
    12     5     6   ar
    13     6    10   ar
    14    10    11   ar
    15    11    12   ar
    16    12     7   ar
    17     7     5   ar
