@<TRIPOS>MOLECULE
No_4890-gen_results/8p0m/2024-11-26-14-13-15/
 15 16 0 0 0
SMALL
GASTEIGER

@<TRIPOS>ATOM
      1 C         -28.0162   -0.8135   28.8779 C.ar    1  UNL1       -0.0039
      2 C         -28.4690   -0.7850   29.8287 C.ar    1  UNL1       -0.0003
      3 C         -27.0871    0.2903   28.6377 C.ar    1  UNL1       -0.0170
      4 C         -26.2516    0.4114   27.4223 C.3     1  UNL1        0.0636
      5 C         -28.3913    0.1041   30.9805 C.ar    1  UNL1       -0.0000
      6 C         -27.5332    1.1666   30.7866 C.ar    1  UNL1       -0.0003
      7 C         -26.8281    1.2557   29.6454 C.ar    1  UNL1       -0.0039
      8 C         -24.9668    0.4106   27.5252 C.ar    1  UNL1       -0.0170
      9 C         -24.1811    1.0731   26.4795 C.ar    1  UNL1       -0.0039
     10 C         -22.8055    1.3910   26.7174 C.ar    1  UNL1       -0.0003
     11 C         -22.1917    0.9927   27.8901 C.ar    1  UNL1       -0.0000
     12 C         -22.8880    0.2913   28.8301 C.ar    1  UNL1       -0.0003
     13 C         -24.2580    0.0289   28.6923 C.ar    1  UNL1       -0.0039
     14 C         -26.9467    0.3243   26.1718 C.3     1  UNL1        0.1180
     15 N         -27.5513    1.4106   25.7969 N.3     1  UNL1       -0.1307
@<TRIPOS>BOND
     1     3     4    1
     2     4     8    1
     3     4    14    1
     4    14    15    1
     5     8     9   ar
     6     9    10   ar
     7    10    11   ar
     8    11    12   ar
     9    12    13   ar
    10    13     8   ar
    11     1     2   ar
    12     2     5   ar
    13     5     6   ar
    14     6     7   ar
    15     7     3   ar
    16     3     1   ar
