@<TRIPOS>MOLECULE
No_4892-gen_results/8p0m/2024-11-26-14-13-15/
 20 21 0 0 0
SMALL
GASTEIGER

@<TRIPOS>ATOM
      1 C         -28.0162   -0.8135   28.8779 C.ar    1  UNL1        0.0078
      2 C         -27.0636   -0.1189   28.6079 C.ar    1  UNL1        0.0148
      3 C         -25.7647   -0.3897   29.0360 C.ar    1  UNL1        0.0497
      4 C         -25.5296   -1.5302   29.9014 C.ar    1  UNL1        0.0148
      5 C         -26.6888   -2.2893   30.1810 C.ar    1  UNL1        0.0078
      6 C         -27.8727   -1.9508   29.7373 C.ar    1  UNL1        0.0799
      7 N         -24.6274    0.3693   28.7540 N.pl3   1  UNL1       -0.2809
      8 C         -24.5034    1.1490   27.7392 C.3     1  UNL1        0.1575
      9 C         -23.2309    1.7893   27.5097 C.3     1  UNL1        0.0680
     10 C         -22.9407    2.7235   26.5584 C.3     1  UNL1        0.0058
     11 CL        -25.8195    1.6745   26.9089 Cl      1  UNL1       -0.0927
     12 C         -22.1026    1.3027   28.3011 C.3     1  UNL1        0.1683
     13 N         -21.0414    1.2241   28.1785 N.3     1  UNL1       -0.1136
     14 N         -22.5035    0.4287   29.3783 N.3     1  UNL1       -0.1795
     15 C         -23.6495   -0.0741   29.5686 C.3     1  UNL1        0.1854
     16 C         -29.0522   -2.7911   30.1066 C.2     1  UNL1        0.3878
     17 O         -30.0964   -2.4851   29.8880 O.co2   1  UNL1       -0.2406
     18 O         -28.7002   -4.0861   30.4430 O.co2   1  UNL1       -0.2406
     19 C         -24.0233    3.5420   26.1918 C.3     1  UNL1        0.0002
     20 C         -24.9667    3.8970   27.0451 C.3     1  UNL1        0.0000
@<TRIPOS>BOND
     1     3     7    1
     2     7     8    1
     3     9    10    1
     4     8    11    1
     5     9    12    1
     6    12    14    1
     7     7    15    1
     8    14    15    1
     9     6    16    1
    10    16    17   ar
    11    16    18   ar
    12    10    19    1
    13    19    20    1
    14    13    12    1
    15     8     9    1
    16     1     2   ar
    17     2     3   ar
    18     3     4   ar
    19     4     5   ar
    20     5     6   ar
    21     6     1   ar
