@<TRIPOS>MOLECULE
No_4893-gen_results/8p0m/2024-11-26-14-13-15/
 19 21 0 0 0
SMALL
GASTEIGER

@<TRIPOS>ATOM
      1 C         -28.0162   -0.8135   28.8779 C.ar    1  UNL1        0.0211
      2 C         -27.0636   -0.1189   28.6079 C.ar    1  UNL1        0.0062
      3 C         -27.0010    0.6913   27.4910 C.ar    1  UNL1        0.0004
      4 C         -25.8548    1.4825   27.0830 C.ar    1  UNL1        0.0066
      5 C         -24.6901    1.4526   27.8807 C.ar    1  UNL1        0.0799
      6 C         -24.7379    0.6010   29.0416 C.ar    1  UNL1        0.0114
      7 C         -25.8234   -0.1688   29.3887 C.ar    1  UNL1        0.0581
      8 C         -29.2252   -0.0469   29.2805 C.ar    1  UNL1        0.0435
      9 C         -30.3126   -0.8267   29.7606 C.ar    1  UNL1        0.1958
     10 C         -30.1069   -2.1236   30.1761 C.ar    1  UNL1        0.0436
     11 C         -28.8868   -2.7526   30.1404 C.ar    1  UNL1        0.0225
     12 C         -27.8215   -2.0683   29.6216 C.ar    1  UNL1        0.0847
     13 N         -26.5538   -2.5706   29.7010 N.ar    1  UNL1       -0.2079
     14 C         -25.4639   -1.6463   29.6397 C.ar    1  UNL1        0.2791
     15 O         -24.3413   -2.0377   30.0135 O.2     1  UNL1       -0.2652
     16 C         -23.5173    2.2607   27.5985 C.2     1  UNL1        0.3878
     17 O         -22.6594    2.3464   28.4697 O.co2   1  UNL1       -0.2406
     18 O         -23.2374    2.6034   26.3884 O.co2   1  UNL1       -0.2406
     19 O         -31.5383   -0.2744   29.8175 O.3     1  UNL1       -0.2866
@<TRIPOS>BOND
     1     1     2   ar
     2     7    14   ar
     3    13    14   ar
     4    14    15    2
     5     5    16    1
     6    16    17   ar
     7    16    18   ar
     8     9    19    1
     9    12    13   ar
    10     2     3   ar
    11     3     4   ar
    12     4     5   ar
    13     5     6   ar
    14     6     7   ar
    15     7     2   ar
    16     1     8   ar
    17     8     9   ar
    18     9    10   ar
    19    10    11   ar
    20    11    12   ar
    21    12     1   ar
