@<TRIPOS>MOLECULE
No_4894-gen_results/8p0m/2024-11-26-14-13-15/
 27 30 0 0 0
SMALL
GASTEIGER

@<TRIPOS>ATOM
      1 C         -28.0162   -0.8135   28.8779 C.3     1  UNL1        0.1151
      2 C         -27.0636   -0.1189   28.6079 C.ar    1  UNL1       -0.0088
      3 C         -25.7647   -0.3897   29.0360 C.ar    1  UNL1       -0.0035
      4 C         -24.5516    0.4058   28.7646 C.ar    1  UNL1       -0.0046
      5 C         -24.6957    1.4480   27.7988 C.ar    1  UNL1       -0.0225
      6 C         -25.9755    1.7250   27.3077 C.ar    1  UNL1       -0.0088
      7 C         -27.0718    1.0134   27.6535 C.ar    1  UNL1       -0.0248
      8 N         -28.6247   -0.5797   30.0969 N.3     1  UNL1       -0.2085
      9 C         -23.4943    2.1676   27.4757 C.3     1  UNL1        0.0264
     10 C         -22.6133    1.3572   26.4680 C.3     1  UNL1        0.0050
     11 C         -28.2750    0.2266   30.8463 C.3     1  UNL1        0.1154
     12 C         -27.7633    1.2123   30.7948 C.ar    1  UNL1       -0.0047
     13 C         -27.4380    2.1352   31.9431 C.ar    1  UNL1       -0.0029
     14 C         -26.7738    3.4109   31.7738 C.ar    1  UNL1       -0.0003
     15 C         -26.3560    3.7297   30.4478 C.ar    1  UNL1       -0.0000
     16 C         -26.6714    2.8845   29.3945 C.ar    1  UNL1       -0.0002
     17 C         -27.3516    1.7719   29.6322 C.ar    1  UNL1       -0.0011
     18 C         -28.5547    2.2066   29.2391 C.ar    1  UNL1        0.0189
     19 C         -27.2842    3.8620   28.3845 C.ar    1  UNL1        0.0015
     20 C         -28.9890    3.2380   29.1327 C.ar    1  UNL1        0.0813
     21 C         -28.3442    3.9644   28.0443 C.ar    1  UNL1        0.0191
     22 C         -29.6222    1.2018   28.7478 C.ar    1  UNL1        0.0206
     23 C         -27.3404   -0.0027   26.3074 C.3     1  UNL1        0.0307
     24 C         -30.9451    1.9163   28.5738 C.ar    1  UNL1        0.0813
     25 C         -31.8312    1.3160   28.2697 C.2     1  UNL1        0.0191
     26 C         -33.1836    1.8911   28.0457 C.2     1  UNL1        0.0016
     27 N         -30.4710    3.3200   29.0169 N.ar    1  UNL1       -0.2454
@<TRIPOS>BOND
     1     1     8    1
     2     5     9    1
     3     9    10    1
     4     8    11    1
     5    18    22   ar
     6     7    23    1
     7    22    24   ar
     8    24    25    1
     9    25    26    2
    10    20    27   ar
    11    24    27   ar
    12    11    12    1
    13     1     2    1
    14    12    13   ar
    15    13    14   ar
    16    14    15   ar
    17    15    16   ar
    18    17    12   ar
    19     2     3   ar
    20     3     4   ar
    21     4     5   ar
    22     5     6   ar
    23     6     7   ar
    24     7     2   ar
    25    16    17   ar
    26    17    18   ar
    27    18    20   ar
    28    20    21   ar
    29    21    19   ar
    30    19    16   ar
