@<TRIPOS>MOLECULE
No_4896-gen_results/8p0m/2024-11-26-14-13-15/
 35 39 0 0 0
SMALL
GASTEIGER

@<TRIPOS>ATOM
      1 C         -28.0162   -0.8135   28.8779 C.ar    1  UNL1        0.0147
      2 C         -28.4690   -0.7850   29.8287 C.ar    1  UNL1        0.0525
      3 C         -26.5042   -0.7777   28.8766 C.ar    1  UNL1        0.0010
      4 C         -25.8103   -0.8531   30.1028 C.ar    1  UNL1       -0.0034
      5 C         -27.9906   -0.8916   31.2257 C.ar    1  UNL1        0.0669
      6 C         -26.6042   -0.8676   31.2652 C.ar    1  UNL1        0.0055
      7 N         -29.9538   -0.7893   29.6416 N.pl3   1  UNL1       -0.3031
      8 C         -30.6786    0.2685   30.0366 C.3     1  UNL1        0.0957
      9 C         -31.4485    0.8474   29.5257 C.3     1  UNL1        0.0475
     10 C         -31.9181    0.4752   28.1557 C.ar    1  UNL1       -0.0228
     11 C         -32.7205    1.1316   27.3664 C.ar    1  UNL1       -0.0045
     12 C         -33.0142    0.7078   26.0629 C.ar    1  UNL1       -0.0003
     13 C         -32.4026   -0.5327   25.6000 C.ar    1  UNL1       -0.0003
     14 C         -31.5565   -1.2230   26.4186 C.ar    1  UNL1       -0.0029
     15 C         -31.2658   -0.7509   27.6493 C.ar    1  UNL1       -0.0063
     16 C         -30.4619   -1.4466   28.5812 C.3     1  UNL1        0.1174
     17 C         -24.3649   -0.8666   30.1482 C.2     1  UNL1       -0.0184
     18 C         -23.6655   -1.3551   30.7506 C.2     1  UNL1       -0.0043
     19 C         -22.1724   -1.1824   30.7880 C.2     1  UNL1       -0.0046
     20 C         -21.7314   -0.4342   29.7089 C.2     1  UNL1       -0.0221
     21 C         -23.4179   -0.0570   29.0832 C.3     1  UNL1        0.0451
     22 C         -23.5809    0.7227   28.0390 C.3     1  UNL1        0.0210
     23 C         -22.6614    1.7841   27.9013 C.3     1  UNL1        0.0683
     24 BR        -22.9779    2.9071   26.4134 Br      1  UNL1       -0.0808
     25 C         -28.7916   -0.9861   32.4181 C.2     1  UNL1        0.2502
     26 N         -29.8560   -0.4911   32.7016 N.am    1  UNL1       -0.2759
     27 C         -29.8006    0.6759   33.4456 C.3     1  UNL1        0.0937
     28 C         -31.0834   -1.1777   32.5896 C.3     1  UNL1        0.0993
     29 C         -30.1932    0.6397   34.7679 C.3     1  UNL1        0.0218
     30 C         -31.6534    0.5111   34.8763 C.3     1  UNL1        0.0091
     31 C         -32.0830   -0.6601   34.0156 C.3     1  UNL1        0.0867
     32 O         -28.3073   -1.9201   33.2493 O.2     1  UNL1       -0.2699
     33 C         -33.5091   -0.5065   33.4432 C.3     1  UNL1        0.3200
     34 F         -33.8227   -1.2444   32.6952 F       1  UNL1       -0.1984
     35 F         -34.2024   -0.6896   34.6179 F       1  UNL1       -0.1984
@<TRIPOS>BOND
     1     2     7    1
     2     7     8    1
     3     9    10    1
     4     7    16    1
     5    15    16    1
     6     4    17    1
     7    17    18    2
     8    18    19    1
     9    19    20    2
    10    17    21    1
    11    20    21    1
    12    21    22    1
    13    22    23    1
    14    23    24    1
    15     5    25    1
    16    25    26   am
    17    26    27    1
    18    26    28    1
    19    27    29    1
    20    29    30    1
    21    30    31    1
    22    25    32    2
    23    31    33    1
    24    33    34    1
    25    33    35    1
    26    31    28    1
    27     8     9    1
    28     1     2   ar
    29     2     5   ar
    30     5     6   ar
    31     6     4   ar
    32     4     3   ar
    33     3     1   ar
    34    10    11   ar
    35    11    12   ar
    36    12    13   ar
    37    13    14   ar
    38    14    15   ar
    39    15    10   ar
