@<TRIPOS>MOLECULE
No_4897-gen_results/8p0m/2024-11-26-14-13-15/
 10 10 0 0 0
SMALL
GASTEIGER

@<TRIPOS>ATOM
      1 C         -28.0162   -0.8135   28.8779 C.ar    1  UNL1       -0.0000
      2 C         -27.0636   -0.1189   28.6079 C.ar    1  UNL1       -0.0001
      3 C         -25.7647   -0.3897   29.0360 C.ar    1  UNL1        0.0039
      4 C         -25.5296   -1.5302   29.9014 C.ar    1  UNL1        0.0714
      5 C         -24.3236   -1.9076   30.4324 C.3     1  UNL1        0.4186
      6 C         -27.9274   -1.9227   29.7902 C.ar    1  UNL1       -0.0001
      7 C         -26.6914   -2.2806   30.2948 C.ar    1  UNL1        0.0039
      8 F         -24.0676   -1.4698   31.6104 F       1  UNL1       -0.1659
      9 F         -23.2432   -1.3656   29.6431 F       1  UNL1       -0.1659
     10 F         -24.1154   -3.2197   30.3105 F       1  UNL1       -0.1659
@<TRIPOS>BOND
     1     4     5    1
     2     5     8    1
     3     5     9    1
     4     5    10    1
     5     1     2   ar
     6     2     3   ar
     7     3     4   ar
     8     4     7   ar
     9     7     6   ar
    10     6     1   ar
