@<TRIPOS>MOLECULE
No_4899-gen_results/8p0m/2024-11-26-14-13-15/
 11 10 0 0 0
SMALL
GASTEIGER

@<TRIPOS>ATOM
      1 O         -28.1229   -1.3353   28.4874 O.2     1  UNL1       -0.2713
      2 C         -27.4806   -0.4044   28.7094 C.2     1  UNL1        0.2643
      3 C         -26.3804   -0.0867   27.9394 C.3     1  UNL1        0.1018
      4 N         -27.6664    0.4468   29.8988 N.am    1  UNL1       -0.0875
      5 C         -25.1773   -0.4388   28.3946 C.2     1  UNL1       -0.0173
      6 C         -26.5259    0.6036   26.6867 C.3     1  UNL1        0.0144
      7 C         -24.1813    0.0892   28.4567 C.2     1  UNL1       -0.0041
      8 C         -23.5262    1.0294   28.1201 C.2     1  UNL1       -0.0003
      9 C         -22.1561    1.4810   28.1969 C.2     1  UNL1       -0.0000
     10 C         -21.3511    0.5439   28.7590 C.2     1  UNL1       -0.0000
     11 C         -21.7886   -0.7133   29.2164 C.2     1  UNL1       -0.0000
@<TRIPOS>BOND
     1     1     2    2
     2     2     3    1
     3     2     4   am
     4     3     5    1
     5     3     6    1
     6     5     7    2
     7     7     8    1
     8     8     9    2
     9     9    10    1
    10    10    11    2
