@<TRIPOS>MOLECULE
No_49-gen_results/8p0m/2024-11-26-14-13-15/
 35 40 0 0 0
SMALL
GASTEIGER

@<TRIPOS>ATOM
      1 C         -28.0162   -0.8135   28.8779 C.3     1  UNL1        0.0988
      2 C         -27.0636   -0.1189   28.6079 C.ar    1  UNL1       -0.0097
      3 C         -26.9287    1.1713   29.0083 C.ar    1  UNL1       -0.0196
      4 C         -25.7702    2.0341   28.6884 C.ar    1  UNL1        0.0004
      5 C         -24.7141    1.4431   27.9188 C.ar    1  UNL1        0.0563
      6 C         -24.8590    0.0783   27.5836 C.ar    1  UNL1        0.0043
      7 C         -25.9647   -0.6606   27.9164 C.ar    1  UNL1       -0.0031
      8 N         -28.6995   -0.6441   30.0766 N.3     1  UNL1       -0.2696
      9 C         -29.8035   -1.3645   30.5061 C.3     1  UNL1        0.0723
     10 C         -30.3770   -1.0468   31.7411 C.3     1  UNL1        0.0174
     11 C         -23.5470    2.1764   27.5604 C.2     1  UNL1        0.2842
     12 N         -22.4145    1.6928   27.2256 N.am    1  UNL1       -0.0837
     13 O         -23.7847    3.3662   27.0491 O.2     1  UNL1       -0.2667
     14 C         -29.9863   -0.3005   32.2917 C.3     1  UNL1        0.0028
     15 C         -28.8421    0.5807   32.1551 C.3     1  UNL1        0.0167
     16 C         -28.1985    0.3413   30.9543 C.3     1  UNL1        0.0658
     17 C         -27.2499    1.2586   30.4066 C.3     1  UNL1        0.0589
     18 C         -26.9304    2.4569   31.2466 C.ar    1  UNL1       -0.0171
     19 C         -25.8799    2.3382   32.1409 C.ar    1  UNL1       -0.0042
     20 C         -27.6617    3.6111   31.0676 C.ar    1  UNL1       -0.0039
     21 C         -28.5769    3.9246   30.3416 C.ar    1  UNL1       -0.0003
     22 C         -29.2725    5.0838   30.2816 C.ar    1  UNL1       -0.0000
     23 C         -28.8214    6.0884   31.0997 C.ar    1  UNL1       -0.0000
     24 C         -27.7179    5.9692   31.8986 C.ar    1  UNL1       -0.0003
     25 C         -27.0925    4.7362   31.9567 C.ar    1  UNL1       -0.0038
     26 C         -25.9624    4.5256   32.7950 C.ar    1  UNL1       -0.0147
     27 C         -25.3459    3.3275   32.9394 C.ar    1  UNL1       -0.0042
     28 C         -25.4210    5.7051   33.6070 C.3     1  UNL1        0.0927
     29 C         -24.5722    6.5405   32.9703 C.3     1  UNL1        0.0544
     30 C         -24.0417    6.5005   31.9824 C.2     1  UNL1        0.0672
     31 N         -23.2220    7.5629   31.6007 N.2     1  UNL1       -0.2735
     32 C         -24.1141    7.7896   33.7497 C.3     1  UNL1        0.0330
     33 C         -23.1974    8.2857   32.8011 C.3     1  UNL1        0.1256
     34 C         -25.9083    5.7201   35.0376 C.2     1  UNL1        0.2117
     35 O         -25.2437    5.3150   35.9545 O.2     1  UNL1       -0.2879
@<TRIPOS>BOND
     1     1     2    1
     2     1     8    1
     3     8     9    1
     4     5    11    1
     5    11    12   am
     6    11    13    2
     7    10    14    1
     8     8    16    1
     9    15    16    1
    10     3    17    1
    11    16    17    1
    12    17    18    1
    13    26    28    1
    14    28    29    1
    15    29    30    1
    16    30    31    2
    17    29    32    1
    18    31    33    1
    19    32    33    1
    20    28    34    1
    21    34    35    2
    22     9    10    1
    23    14    15    1
    24    18    19   ar
    25    19    27   ar
    26    27    26   ar
    27    26    25   ar
    28    20    18   ar
    29     2     7   ar
    30     7     6   ar
    31     6     5   ar
    32     5     4   ar
    33     4     3   ar
    34     3     2   ar
    35    20    21   ar
    36    21    22   ar
    37    22    23   ar
    38    23    24   ar
    39    24    25   ar
    40    25    20   ar
