@<TRIPOS>MOLECULE
No_490-gen_results/8p0m/2024-11-26-14-13-15/
 22 25 0 0 0
SMALL
GASTEIGER

@<TRIPOS>ATOM
      1 C         -28.0162   -0.8135   28.8779 C.ar    1  UNL1       -0.0000
      2 C         -27.0636   -0.1189   28.6079 C.ar    1  UNL1       -0.0003
      3 C         -25.7923   -0.4302   29.0761 C.ar    1  UNL1       -0.0038
      4 C         -25.5756   -1.5654   29.9363 C.ar    1  UNL1       -0.0003
      5 C         -26.7354   -2.3004   30.2173 C.ar    1  UNL1       -0.0000
      6 C         -27.9184   -1.9537   29.7629 C.ar    1  UNL1       -0.0000
      7 C         -27.3243    1.0850   27.8190 C.ar    1  UNL1        0.0001
      8 C         -26.2674    1.9087   27.5697 C.ar    1  UNL1        0.0042
      9 C         -24.8868    1.5477   28.0393 C.ar    1  UNL1        0.0511
     10 C         -24.6633    0.4445   28.8042 C.ar    1  UNL1       -0.0163
     11 C         -23.2951    0.1642   29.2504 C.3     1  UNL1        0.0442
     12 C         -22.9939   -0.0274   30.4982 C.3     1  UNL1        0.0065
     13 C         -22.1932    1.0277   28.6248 C.3     1  UNL1        0.1198
     14 N         -22.3488    1.8604   27.7012 N.am    1  UNL1       -0.2013
     15 C         -23.7066    2.1815   27.2443 C.2     1  UNL1        0.2645
     16 O         -23.8344    3.0560   26.3849 O.2     1  UNL1       -0.2684
     17 C         -28.5820    1.4662   27.3418 C.ar    1  UNL1        0.0000
     18 C         -29.4253    2.1875   28.1219 C.ar    1  UNL1        0.0000
     19 C         -30.7185    2.3490   27.7393 C.ar    1  UNL1        0.0000
     20 C         -29.0061    0.9778   26.1242 C.ar    1  UNL1        0.0000
     21 C         -30.2805    1.2069   25.6568 C.ar    1  UNL1        0.0000
     22 C         -31.1424    1.9685   26.4600 C.ar    1  UNL1        0.0000
@<TRIPOS>BOND
     1    10    11    1
     2    11    12    1
     3    11    13    1
     4    13    14    1
     5     9    15    1
     6    14    15   am
     7    15    16    2
     8     7    17    1
     9     1     2   ar
    10     3     4   ar
    11     4     5   ar
    12     5     6   ar
    13     6     1   ar
    14    17    18   ar
    15    18    19   ar
    16    19    22   ar
    17    22    21   ar
    18    21    20   ar
    19    20    17   ar
    20     2     3   ar
    21     3    10   ar
    22    10     9   ar
    23     9     8   ar
    24     8     7   ar
    25     7     2   ar
