@<TRIPOS>MOLECULE
No_4901-gen_results/8p0m/2024-11-26-14-13-15/
 17 18 0 0 0
SMALL
GASTEIGER

@<TRIPOS>ATOM
      1 C         -28.0162   -0.8135   28.8779 C.ar    1  UNL1        0.0176
      2 C         -27.0636   -0.1189   28.6079 C.ar    1  UNL1        0.0388
      3 C         -25.7647   -0.3897   29.0360 C.ar    1  UNL1        0.1455
      4 C         -25.5296   -1.5302   29.9014 C.ar    1  UNL1        0.0388
      5 C         -26.6577   -2.2915   30.2035 C.ar    1  UNL1        0.0176
      6 C         -27.8548   -1.9555   29.7630 C.ar    1  UNL1        0.0480
      7 O         -24.6498    0.3733   28.7802 O.3     1  UNL1       -0.4504
      8 C         -23.3980    0.0673   29.1078 C.2     1  UNL1        0.1795
      9 C         -22.4358    0.9793   28.9491 C.2     1  UNL1        0.0407
     10 N         -28.9328   -2.7614   30.1491 N.pl3   1  UNL1       -0.3075
     11 C         -30.1092   -2.2886   30.4733 C.3     1  UNL1        0.0908
     12 C         -31.1353   -3.2664   30.7809 C.3     1  UNL1        0.0215
     13 C         -28.7988   -4.1679   30.2853 C.3     1  UNL1        0.0908
     14 C         -29.7184   -5.0930   30.5964 C.3     1  UNL1        0.0215
     15 C         -30.9167   -4.5718   30.9393 C.3     1  UNL1        0.0035
     16 C         -22.8745    2.2476   28.3968 C.2     1  UNL1        0.0032
     17 C         -23.7491    2.1419   27.4005 C.2     1  UNL1        0.0001
@<TRIPOS>BOND
     1     3     7    1
     2     7     8    1
     3     8     9    2
     4     6    10    1
     5    10    11    1
     6    10    13    1
     7    12    15    1
     8    14    15    1
     9     9    16    1
    10    16    17    2
    11    11    12    1
    12    14    13    1
    13     1     2   ar
    14     2     3   ar
    15     3     4   ar
    16     4     5   ar
    17     5     6   ar
    18     6     1   ar
