@<TRIPOS>MOLECULE
No_4902-gen_results/8p0m/2024-11-26-14-13-15/
 23 25 0 0 0
SMALL
GASTEIGER

@<TRIPOS>ATOM
      1 C         -28.0162   -0.8135   28.8779 C.ar    1  UNL1        0.0375
      2 C         -27.0636   -0.1189   28.6079 C.ar    1  UNL1        0.0031
      3 C         -25.7923   -0.4302   29.0761 C.ar    1  UNL1        0.0002
      4 C         -24.5456    0.3494   28.8225 C.ar    1  UNL1        0.0008
      5 C         -24.6586    1.4196   27.8878 C.ar    1  UNL1        0.0114
      6 C         -23.5403    2.1791   27.5500 C.ar    1  UNL1        0.0577
      7 C         -22.2925    1.7428   28.0473 C.ar    1  UNL1        0.0114
      8 C         -22.1712    0.7079   28.9284 C.ar    1  UNL1        0.0009
      9 C         -23.3345   -0.0624   29.3081 C.ar    1  UNL1        0.0001
     10 C         -27.9546   -1.8765   29.8726 C.ar    1  UNL1        0.1453
     11 C         -26.7258   -2.3300   30.3106 C.ar    1  UNL1        0.0375
     12 C         -25.6021   -1.5640   29.9668 C.ar    1  UNL1        0.0031
     13 O         -29.0498   -2.6137   30.1915 O.3     1  UNL1       -0.4535
     14 C         -30.1890   -1.9889   30.5708 C.ar    1  UNL1        0.1455
     15 C         -30.7533   -2.6110   31.6664 C.ar    1  UNL1        0.0375
     16 C         -31.8947   -2.0472   32.1347 C.ar    1  UNL1        0.0033
     17 C         -32.4481   -0.9166   31.4749 C.ar    1  UNL1        0.0068
     18 C         -31.8442   -0.3912   30.4076 C.ar    1  UNL1        0.0828
     19 C         -30.6618   -0.9095   29.9458 C.ar    1  UNL1        0.0441
     20 C         -32.4092    0.8283   29.7270 C.2     1  UNL1        0.3879
     21 O         -32.7645    1.7474   30.2042 O.co2   1  UNL1       -0.2406
     22 O         -32.3520    0.7228   28.3203 O.co2   1  UNL1       -0.2406
     23 CL        -23.5165    3.3268   26.3379 Cl      1  UNL1       -0.0822
@<TRIPOS>BOND
     1     3     4    1
     2    10    13    1
     3    13    14    1
     4    18    20    1
     5    20    21   ar
     6    20    22   ar
     7     6    23    1
     8    14    15   ar
     9    15    16   ar
    10    16    17   ar
    11    17    18   ar
    12    18    19   ar
    13    19    14   ar
    14     1     2   ar
    15     2     3   ar
    16     3    12   ar
    17    12    11   ar
    18    11    10   ar
    19    10     1   ar
    20     4     5   ar
    21     5     6   ar
    22     6     7   ar
    23     7     8   ar
    24     8     9   ar
    25     9     4   ar
