@<TRIPOS>MOLECULE
No_4903-gen_results/8p0m/2024-11-26-14-13-15/
 15 16 0 0 0
SMALL
GASTEIGER

@<TRIPOS>ATOM
      1 C         -28.0162   -0.8135   28.8779 C.ar    1  UNL1        0.0375
      2 C         -28.4690   -0.7850   29.8287 C.ar    1  UNL1        0.1453
      3 C         -26.5042   -0.7777   28.8766 C.ar    1  UNL1        0.0031
      4 C         -25.8103   -0.8531   30.1028 C.ar    1  UNL1        0.0002
      5 C         -27.9906   -0.8916   31.2257 C.ar    1  UNL1        0.0375
      6 C         -26.6042   -0.8676   31.2652 C.ar    1  UNL1        0.0031
      7 O         -29.9385   -0.8194   29.8358 O.3     1  UNL1       -0.4535
      8 C         -30.6393    0.2340   30.2522 C.ar    1  UNL1        0.1453
      9 C         -31.5896    0.5939   29.5426 C.ar    1  UNL1        0.0375
     10 C         -32.3726    1.7688   29.9178 C.ar    1  UNL1        0.0032
     11 C         -32.0096    2.4414   31.1089 C.ar    1  UNL1        0.0018
     12 C         -30.9404    1.9620   31.8347 C.ar    1  UNL1        0.0240
     13 C         -30.2105    0.9050   31.4622 C.ar    1  UNL1        0.0391
     14 C         -30.5474    2.6666   33.0976 C.2     1  UNL1        0.1222
     15 N         -29.6577    2.1790   33.8400 N.2     1  UNL1       -0.1464
@<TRIPOS>BOND
     1     2     7    1
     2     7     8    1
     3    12    14    1
     4    14    15    2
     5     8     9   ar
     6     9    10   ar
     7    10    11   ar
     8    11    12   ar
     9    12    13   ar
    10    13     8   ar
    11     1     2   ar
    12     2     5   ar
    13     5     6   ar
    14     6     4   ar
    15     4     3   ar
    16     3     1   ar
