@<TRIPOS>MOLECULE
No_4904-gen_results/8p0m/2024-11-26-14-13-15/
 15 15 0 0 0
SMALL
GASTEIGER

@<TRIPOS>ATOM
      1 C         -28.0162   -0.8135   28.8779 C.ar    1  UNL1        0.0497
      2 C         -28.4690   -0.7850   29.8287 C.ar    1  UNL1        0.0608
      3 C         -26.5455   -0.8762   28.8500 C.ar    1  UNL1        0.1561
      4 C         -25.8041   -1.0324   30.0571 C.ar    1  UNL1        0.0921
      5 C         -27.9437   -0.9869   31.2075 C.ar    1  UNL1        0.0125
      6 C         -26.5825   -1.0386   31.2231 C.ar    1  UNL1        0.0153
      7 CL        -30.3060   -0.8044   29.9704 Cl      1  UNL1       -0.0821
      8 CL        -24.1270   -1.1084   30.0593 Cl      1  UNL1       -0.0791
      9 O         -25.7719   -0.8388   27.7091 O.3     1  UNL1       -0.4569
     10 C         -26.2070    0.2185   26.8583 C.2     1  UNL1        0.1232
     11 C         -25.7441    1.4958   26.9738 C.2     1  UNL1        0.0326
     12 C         -26.9670   -0.1283   25.6928 C.3     1  UNL1        0.0725
     13 C         -24.7759    1.8735   28.0458 C.2     1  UNL1       -0.0018
     14 C         -24.2741    3.1693   28.1270 C.2     1  UNL1       -0.0257
     15 C         -24.6188    4.0501   27.0175 C.3     1  UNL1        0.0307
@<TRIPOS>BOND
     1     2     7    1
     2     4     8    1
     3     3     9    1
     4     9    10    1
     5    10    11    2
     6    10    12    1
     7    11    13    1
     8    13    14    2
     9    14    15    1
    10     1     2   ar
    11     2     5   ar
    12     5     6   ar
    13     6     4   ar
    14     4     3   ar
    15     3     1   ar
