@<TRIPOS>MOLECULE
No_4905-gen_results/8p0m/2024-11-26-14-13-15/
 24 25 0 0 0
SMALL
GASTEIGER

@<TRIPOS>ATOM
      1 C         -28.0162   -0.8135   28.8779 C.3     1  UNL1        0.0440
      2 C         -27.0636   -0.1190   28.6079 C.ar    1  UNL1        0.0022
      3 C         -25.7923   -0.4302   29.0761 C.ar    1  UNL1       -0.0196
      4 C         -25.2700   -0.0487   30.0123 C.3     1  UNL1        0.0517
      5 C         -27.8851   -1.6684   30.1122 C.3     1  UNL1        0.1294
      6 C         -26.9250   -1.6039   31.1803 C.2     1  UNL1       -0.0192
      7 C         -25.9410   -0.6744   31.0387 C.2     1  UNL1       -0.0254
      8 C         -29.0979   -2.4880   30.5075 C.2     1  UNL1        0.3687
      9 O         -29.3537   -2.5384   31.7507 O.co2   1  UNL1       -0.2453
     10 C         -24.8246   -0.9800   28.0297 C.ar    1  UNL1       -0.0044
     11 O         -29.6063   -3.2495   29.6800 O.co2   1  UNL1       -0.2453
     12 C         -27.1707    0.6939   27.4212 C.ar    1  UNL1        0.1322
     13 C         -26.3053    0.5479   26.3237 C.ar    1  UNL1        0.0093
     14 C         -24.9351   -0.1138   26.7200 C.ar    1  UNL1       -0.0020
     15 F         -28.3251    1.1471   27.0722 F       1  UNL1       -0.2048
     16 C         -26.3709    1.0860   25.1006 C.3     1  UNL1        0.0542
     17 C         -27.2132    2.1078   24.9622 C.2     1  UNL1       -0.0256
     18 C         -27.0695    3.2816   25.6767 C.2     1  UNL1       -0.0263
     19 C         -25.9775    3.5585   26.4698 C.3     1  UNL1        0.0437
     20 C         -24.6780    3.3392   26.2562 C.3     1  UNL1        0.0094
     21 C         -26.2468    4.5113   27.5890 C.2     1  UNL1       -0.0221
     22 C         -26.5917    4.2799   28.5883 C.2     1  UNL1       -0.0043
     23 C         -26.7279    5.1780   29.7577 C.2     1  UNL1       -0.0003
     24 C         -26.2410    6.4203   29.6312 C.2     1  UNL1       -0.0000
@<TRIPOS>BOND
     1     1     2    1
     2     1     5    1
     3     5     6    1
     4     4     7    1
     5     6     7    2
     6     5     8    1
     7     8     9   ar
     8     8    11   ar
     9    12    15    1
    10    13    16    1
    11    16    17    1
    12    17    18    2
    13    18    19    1
    14    19    20    1
    15    19    21    1
    16    21    22    2
    17    22    23    1
    18    23    24    2
    19     4     3    1
    20     2     3   ar
    21     3    10   ar
    22    10    14   ar
    23    14    13   ar
    24    13    12   ar
    25    12     2   ar
