@<TRIPOS>MOLECULE
No_4906-gen_results/8p0m/2024-11-26-14-13-15/
 23 23 0 0 0
SMALL
GASTEIGER

@<TRIPOS>ATOM
      1 C         -28.0162   -0.8135   28.8779 C.ar    1  UNL1        0.0201
      2 C         -27.0636   -0.1189   28.6079 C.ar    1  UNL1       -0.0038
      3 C         -26.9716    0.7139   27.5060 C.ar    1  UNL1       -0.0074
      4 C         -28.1053    0.7744   26.6421 C.ar    1  UNL1        0.0035
      5 C         -29.2008    0.1044   27.0527 C.ar    1  UNL1        0.0793
      6 C         -28.0219   -1.5899   30.0879 C.3     1  UNL1        0.2178
      7 C         -29.1640   -0.6394   28.1484 C.ar    1  UNL1        0.0059
      8 CL        -27.4296   -1.9753   30.9385 Cl      1  UNL1       -0.0773
      9 C         -30.3644    0.2058   26.1394 C.2     1  UNL1        0.3877
     10 O         -31.2476   -0.4214   26.2552 O.co2   1  UNL1       -0.2406
     11 O         -30.3552    1.0326   25.0839 O.co2   1  UNL1       -0.2406
     12 O         -29.4705   -2.1761   30.1570 O.3     1  UNL1       -0.3253
     13 C         -29.5213   -3.4658   30.6257 C.3     1  UNL1        0.2577
     14 C         -30.6271   -4.1235   29.9474 C.2     1  UNL1        0.3945
     15 O         -31.0552   -3.8512   29.0257 O.co2   1  UNL1       -0.2428
     16 O         -31.0600   -5.2754   30.5214 O.co2   1  UNL1       -0.2428
     17 C         -25.6727    1.3580   27.1152 C.3     1  UNL1        0.1020
     18 CL        -24.5304    0.7689   27.9054 Cl      1  UNL1       -0.1102
     19 C         -25.5466    2.3218   26.1561 C.3     1  UNL1        0.0192
     20 C         -24.2869    2.6171   25.6848 C.3     1  UNL1        0.0016
     21 C         -26.6597    3.0315   25.6348 C.3     1  UNL1        0.0016
     22 C         -23.2428    2.7312   26.5358 C.3     1  UNL1        0.0001
     23 C         -22.6471    1.7824   27.3847 C.3     1  UNL1        0.0000
@<TRIPOS>BOND
     1     1     6    1
     2     6     8    1
     3     5     9    1
     4     9    10   ar
     5     9    11   ar
     6     6    12    1
     7    12    13    1
     8    13    14    1
     9    14    15   ar
    10    14    16   ar
    11     3    17    1
    12    17    18    1
    13    17    19    1
    14    19    20    1
    15    19    21    1
    16    20    22    1
    17    22    23    1
    18     1     2   ar
    19     2     3   ar
    20     3     4   ar
    21     4     5   ar
    22     5     7   ar
    23     7     1   ar
