@<TRIPOS>MOLECULE
No_4907-gen_results/8p0m/2024-11-26-14-13-15/
 19 22 0 0 0
SMALL
GASTEIGER

@<TRIPOS>ATOM
      1 C         -28.0162   -0.8135   28.8779 C.ar    1  UNL1        0.0000
      2 C         -27.0636   -0.1190   28.6079 C.ar    1  UNL1        0.0003
      3 C         -26.8756    1.1325   28.9134 C.ar    1  UNL1        0.0089
      4 C         -27.9014    1.8066   29.6436 C.ar    1  UNL1        0.0556
      5 C         -28.9449    1.0388   30.0360 C.ar    1  UNL1        0.0046
      6 C         -29.0273   -0.2890   29.7051 C.ar    1  UNL1        0.0001
      7 C         -25.6959    1.9505   28.4764 C.ar    1  UNL1        0.0556
      8 C         -24.7049    1.7243   28.1388 C.ar    1  UNL1        0.0044
      9 C         -23.5387    2.1670   27.8220 C.ar    1  UNL1        0.0001
     10 C         -22.3286    1.4522   27.5618 C.ar    1  UNL1        0.0000
     11 C         -22.3421    0.1390   27.9220 C.ar    1  UNL1        0.0000
     12 C         -23.4707   -0.4587   28.4295 C.ar    1  UNL1        0.0000
     13 C         -24.4749    0.2076   28.6392 C.ar    1  UNL1        0.0001
     14 C         -25.6763   -0.7313   28.2653 C.ar    1  UNL1        0.0000
     15 C         -26.0063    3.5784   28.5059 C.2     1  UNL1        0.2716
     16 O         -25.2185    4.2760   27.9388 O.2     1  UNL1       -0.2679
     17 N         -27.2627    4.0528   28.8366 N.am    1  UNL1       -0.1371
     18 C         -28.2008    3.2216   29.4619 C.2     1  UNL1        0.2716
     19 O         -29.2596    3.7660   29.7561 O.2     1  UNL1       -0.2679
@<TRIPOS>BOND
     1     7    15    1
     2    15    16    2
     3    15    17   am
     4     4    18    1
     5    17    18   am
     6    18    19    2
     7     3     7   ar
     8     7     8   ar
     9    13    14   ar
    10    14     2   ar
    11     1     2   ar
    12     2     3   ar
    13     3     4   ar
    14     4     5   ar
    15     5     6   ar
    16     6     1   ar
    17     8     9   ar
    18     9    10   ar
    19    10    11   ar
    20    11    12   ar
    21    12    13   ar
    22    13     8   ar
