@<TRIPOS>MOLECULE
No_4908-gen_results/8p0m/2024-11-26-14-13-15/
 27 28 0 0 0
SMALL
GASTEIGER

@<TRIPOS>ATOM
      1 C         -28.0162   -0.8135   28.8779 C.ar    1  UNL1        0.0023
      2 C         -28.4690   -0.7850   29.8287 C.ar    1  UNL1        0.0795
      3 C         -26.5042   -0.7777   28.8766 C.ar    1  UNL1       -0.0216
      4 C         -25.8103   -0.8531   30.1028 C.ar    1  UNL1       -0.0037
      5 C         -27.9906   -0.8916   31.2257 C.ar    1  UNL1        0.0066
      6 C         -24.3976   -0.8364   30.1775 C.ar    1  UNL1        0.0059
      7 C         -26.5754   -0.8899   31.2661 C.ar    1  UNL1       -0.0001
      8 C         -23.7964    0.4357   29.9090 C.ar    1  UNL1        0.0756
      9 C         -22.4944    0.4757   29.3632 C.ar    1  UNL1        0.0064
     10 C         -21.7757   -0.7201   29.1864 C.ar    1  UNL1        0.0002
     11 C         -23.6121   -2.0037   29.9274 C.ar    1  UNL1        0.0002
     12 C         -22.3403   -1.9014   29.3467 C.ar    1  UNL1        0.0000
     13 C         -25.6966   -0.7190   27.6424 C.3     1  UNL1        0.0310
     14 C         -24.5350    1.6674   30.1906 C.2     1  UNL1        0.3412
     15 O         -24.6319    2.1242   31.3255 O.2     1  UNL1       -0.2449
     16 O         -25.2256    2.1998   29.2297 O.3     1  UNL1       -0.4446
     17 C         -30.0617   -0.8900   30.0122 C.2     1  UNL1        0.3877
     18 O         -30.6222   -0.3539   30.7918 O.co2   1  UNL1       -0.2406
     19 O         -30.5950   -1.5230   29.0216 O.co2   1  UNL1       -0.2406
     20 C         -26.0126    3.3012   29.4608 C.3     1  UNL1        0.2233
     21 C         -26.0014    4.1337   28.3653 C.3     1  UNL1        0.2272
     22 O         -25.5750    3.7329   27.3534 O.3     1  UNL1       -0.2163
     23 C         -27.1503    3.2185   30.3218 C.3     1  UNL1        0.1584
     24 N         -28.3297    3.1885   29.8047 N.pl3   1  UNL1       -0.2327
     25 C         -29.4235    2.9579   30.5537 C.2     1  UNL1        0.0756
     26 C         -30.6738    2.9655   29.8502 C.2     1  UNL1       -0.0084
     27 C         -31.7765    3.1677   30.3844 C.3     1  UNL1        0.0321
@<TRIPOS>BOND
     1     4     6    1
     2     3    13    1
     3     8    14    1
     4    14    15    2
     5    14    16    1
     6     2    17    1
     7    17    18   ar
     8    17    19   ar
     9    16    20    1
    10    20    21    1
    11    21    22    1
    12    20    23    1
    13    23    24    1
    14    24    25    1
    15    25    26    2
    16    26    27    1
    17     6     8   ar
    18     8     9   ar
    19     9    10   ar
    20    10    12   ar
    21    12    11   ar
    22    11     6   ar
    23     1     2   ar
    24     2     5   ar
    25     5     7   ar
    26     7     4   ar
    27     4     3   ar
    28     3     1   ar
