@<TRIPOS>MOLECULE
No_4909-gen_results/8p0m/2024-11-26-14-13-15/
 19 20 0 0 0
SMALL
GASTEIGER

@<TRIPOS>ATOM
      1 C         -28.0162   -0.8135   28.8779 C.ar    1  UNL1        0.0587
      2 C         -27.0636   -0.1189   28.6079 C.ar    1  UNL1        0.0233
      3 C         -27.0010    0.6913   27.4910 C.ar    1  UNL1        0.0587
      4 C         -28.1373    0.7363   26.6350 C.ar    1  UNL1        0.0160
      5 C         -29.2360    0.0765   27.0690 C.ar    1  UNL1        0.0567
      6 C         -29.2177   -0.6429   28.1747 C.ar    1  UNL1        0.0160
      7 C         -30.4152    0.1590   26.1820 C.2     1  UNL1        0.2649
      8 N         -31.3727   -0.5052   26.4854 N.am    1  UNL1       -0.1998
      9 O         -30.3871    0.8406   25.1078 O.2     1  UNL1       -0.2684
     10 C         -32.5900   -0.5930   25.5964 C.3     1  UNL1        0.1388
     11 C         -25.7210   -0.2115   29.4350 C.ar    1  UNL1        0.0291
     12 C         -25.3022    0.7897   30.2474 C.ar    1  UNL1        0.1401
     13 C         -24.0581    0.7014   30.9268 C.ar    1  UNL1        0.0296
     14 C         -23.3501   -0.3108   30.6395 C.ar    1  UNL1        0.0023
     15 C         -23.6595   -1.3727   29.7986 C.ar    1  UNL1        0.0001
     16 C         -24.9055   -1.3330   29.1148 C.ar    1  UNL1        0.0023
     17 CL        -28.1087   -1.7949   30.3569 Cl      1  UNL1       -0.0822
     18 F         -26.0903    1.8366   30.5010 F       1  UNL1       -0.2042
     19 CL        -25.5213    1.5138   26.9689 Cl      1  UNL1       -0.0822
@<TRIPOS>BOND
     1     5     7    1
     2     7     8   am
     3     7     9    2
     4     8    10    1
     5     2    11    1
     6     1    17    1
     7    12    18    1
     8     3    19    1
     9    11    12   ar
    10    12    13   ar
    11    13    14   ar
    12    14    15   ar
    13    15    16   ar
    14    16    11   ar
    15     1     2   ar
    16     2     3   ar
    17     3     4   ar
    18     4     5   ar
    19     5     6   ar
    20     6     1   ar
