@<TRIPOS>MOLECULE
No_491-gen_results/8p0m/2024-11-26-14-13-15/
 19 20 0 0 0
SMALL
GASTEIGER

@<TRIPOS>ATOM
      1 C         -28.0162   -0.8135   28.8779 C.ar    1  UNL1        0.0421
      2 C         -28.4690   -0.7850   29.8287 C.ar    1  UNL1        0.0734
      3 C         -28.1960    0.3478   28.0550 C.ar    1  UNL1        0.1441
      4 C         -29.0191    1.3501   28.3782 C.ar    1  UNL1        0.0680
      5 C         -29.4107    0.1803   30.3782 C.ar    1  UNL1        0.1027
      6 C         -29.6059    1.2495   29.6193 C.ar    1  UNL1        0.1588
      7 F         -27.5345    0.3378   26.8475 F       1  UNL1       -0.2040
      8 CL        -29.9520   -0.1556   31.9906 Cl      1  UNL1       -0.0782
      9 O         -30.4739    2.2231   30.0628 O.3     1  UNL1       -0.4517
     10 C         -31.4004    2.5794   29.5308 C.ar    1  UNL1        0.1567
     11 C         -32.5050    2.5531   30.0824 C.ar    1  UNL1        0.1048
     12 C         -33.7568    2.9868   29.3695 C.ar    1  UNL1        0.0985
     13 C         -33.5941    3.4823   28.0674 C.ar    1  UNL1        0.1516
     14 C         -32.3622    3.5399   27.4811 C.ar    1  UNL1        0.0337
     15 C         -31.2623    3.1423   28.1469 C.ar    1  UNL1        0.0407
     16 CL        -35.2567    2.9875   30.1039 Cl      1  UNL1       -0.0789
     17 CL        -28.2008   -2.2601   30.9858 Cl      1  UNL1       -0.0812
     18 F         -34.6692    3.9463   27.4990 F       1  UNL1       -0.2032
     19 CL        -32.7527    1.9458   31.6537 Cl      1  UNL1       -0.0781
@<TRIPOS>BOND
     1     3     7    1
     2     5     8    1
     3     6     9    1
     4     9    10    1
     5    12    16    1
     6     2    17    1
     7    13    18    1
     8    11    19    1
     9     1     2   ar
    10     2     5   ar
    11     5     6   ar
    12     6     4   ar
    13     4     3   ar
    14     3     1   ar
    15    10    11   ar
    16    11    12   ar
    17    12    13   ar
    18    13    14   ar
    19    14    15   ar
    20    15    10   ar
