@<TRIPOS>MOLECULE
No_4910-gen_results/8p0m/2024-11-26-14-13-15/
 18 19 0 0 0
SMALL
GASTEIGER

@<TRIPOS>ATOM
      1 C         -28.0162   -0.8135   28.8779 C.2     1  UNL1       -0.0003
      2 C         -27.0636   -0.1189   28.6079 C.ar    1  UNL1       -0.0040
      3 C         -27.0010    0.6913   27.4910 C.ar    1  UNL1       -0.0176
      4 C         -25.7770    1.0214   26.9135 C.ar    1  UNL1       -0.0043
      5 C         -24.5088    0.7364   27.5686 C.ar    1  UNL1       -0.0046
      6 C         -24.5930   -0.0361   28.7390 C.ar    1  UNL1       -0.0228
      7 C         -25.8114   -0.4771   29.1584 C.ar    1  UNL1       -0.0046
      8 C         -29.2371   -0.0330   29.2429 C.2     1  UNL1       -0.0001
      9 C         -29.1579    1.2285   29.0769 C.2     1  UNL1        0.0026
     10 C         -28.8271    1.9724   27.9237 C.2     1  UNL1        0.0619
     11 C         -29.4599    3.2024   27.6837 C.2     1  UNL1        0.3842
     12 C         -27.6847    1.6857   27.1766 C.3     1  UNL1        0.0593
     13 C         -23.2694   -0.4229   29.3769 C.3     1  UNL1        0.0189
     14 C         -22.6679    0.4266   30.2330 C.3     1  UNL1        0.0044
     15 C         -23.3832   -1.8345   30.0192 C.3     1  UNL1        0.0044
     16 C         -22.2261   -0.5961   28.1448 C.3     1  UNL1        0.0044
     17 O         -30.1172    3.8144   28.4049 O.co2   1  UNL1       -0.2409
     18 O         -29.5559    3.5829   26.3901 O.co2   1  UNL1       -0.2409
@<TRIPOS>BOND
     1     1     2    1
     2     1     8    2
     3     8     9    1
     4     9    10    2
     5    10    11    1
     6     3    12    1
     7    10    12    1
     8     6    13    1
     9    13    14    1
    10    13    15    1
    11    13    16    1
    12    11    17   ar
    13    11    18   ar
    14     2     3   ar
    15     3     4   ar
    16     4     5   ar
    17     5     6   ar
    18     6     7   ar
    19     7     2   ar
