@<TRIPOS>MOLECULE
No_4911-gen_results/8p0m/2024-11-26-14-13-15/
 30 31 0 0 0
SMALL
GASTEIGER

@<TRIPOS>ATOM
      1 C         -28.0162   -0.8135   28.8779 C.ar    1  UNL1        0.0575
      2 C         -27.0636   -0.1189   28.6079 C.ar    1  UNL1        0.0048
      3 C         -27.0010    0.6913   27.4910 C.ar    1  UNL1        0.0001
      4 C         -28.1373    0.7363   26.6350 C.ar    1  UNL1        0.0039
      5 C         -29.2360    0.0765   27.0690 C.ar    1  UNL1        0.0716
      6 C         -29.2177   -0.6429   28.1747 C.ar    1  UNL1        0.0086
      7 C         -30.4152    0.1590   26.1820 C.3     1  UNL1        0.4186
      8 F         -30.9296    1.2337   26.1560 F       1  UNL1       -0.1659
      9 F         -31.3488   -0.7383   26.6978 F       1  UNL1       -0.1659
     10 F         -30.1372   -0.2890   24.9393 F       1  UNL1       -0.1659
     11 C         -25.7228    1.4091   27.0735 C.ar    1  UNL1        0.0001
     12 C         -25.4790    2.2751   26.3665 C.ar    1  UNL1        0.0000
     13 C         -24.1747    2.9201   26.1280 C.ar    1  UNL1        0.0001
     14 C         -23.0546    2.3790   26.7973 C.ar    1  UNL1        0.0046
     15 C         -23.3016    1.2447   27.6028 C.ar    1  UNL1        0.0567
     16 C         -24.5770    0.7351   27.8394 C.ar    1  UNL1        0.0046
     17 C         -22.1234    0.6988   28.3287 C.2     1  UNL1        0.2842
     18 N         -22.3069   -0.4976   28.9774 N.am    1  UNL1       -0.0837
     19 O         -20.9997    1.1729   28.2222 O.2     1  UNL1       -0.2667
     20 C         -27.9018   -1.6359   30.1674 C.2     1  UNL1        0.2749
     21 O         -27.1071   -2.5448   30.1457 O.2     1  UNL1       -0.2656
     22 N         -28.8784   -1.5834   31.0806 N.2     1  UNL1       -0.2337
     23 C         -28.8463   -2.4990   32.2162 C.3     1  UNL1        0.1335
     24 C         -29.7618   -3.6738   31.8070 C.3     1  UNL1        0.0524
     25 C         -29.9232   -4.0098   30.6359 C.2     1  UNL1       -0.0241
     26 C         -31.3228   -4.1998   30.3111 C.2     1  UNL1       -0.0048
     27 C         -31.5965   -4.3536   28.8987 C.2     1  UNL1       -0.0049
     28 C         -32.2467   -5.1024   28.4014 C.2     1  UNL1       -0.0261
     29 C         -32.3158   -5.2961   26.9110 C.3     1  UNL1        0.0260
     30 C         -33.0575   -6.2791   26.3444 C.3     1  UNL1        0.0050
@<TRIPOS>BOND
     1     5     7    1
     2     7     8    1
     3     7     9    1
     4     7    10    1
     5     3    11    1
     6    15    17    1
     7    17    18   am
     8    17    19    2
     9     1    20    1
    10    20    21    1
    11    20    22    2
    12    22    23    1
    13    23    24    1
    14    24    25    1
    15    25    26    2
    16    26    27    1
    17    27    28    2
    18    28    29    1
    19    29    30    1
    20    11    12   ar
    21    12    13   ar
    22    13    14   ar
    23    14    15   ar
    24    15    16   ar
    25    16    11   ar
    26     1     2   ar
    27     2     3   ar
    28     3     4   ar
    29     4     5   ar
    30     5     6   ar
    31     6     1   ar
