@<TRIPOS>MOLECULE
No_4912-gen_results/8p0m/2024-11-26-14-13-15/
 10 10 0 0 0
SMALL
GASTEIGER

@<TRIPOS>ATOM
      1 C         -28.0162   -0.8135   28.8779 C.ar    1  UNL1        0.0046
      2 C         -28.4690   -0.7850   29.8287 C.ar    1  UNL1        0.0550
      3 C         -27.0871    0.2903   28.6377 C.ar    1  UNL1        0.0001
      4 C         -26.8317    1.2487   29.5869 C.ar    1  UNL1        0.0000
      5 C         -29.4442   -1.9481   30.1840 C.2     1  UNL1        0.2648
      6 C         -27.4956    1.1303   30.8222 C.ar    1  UNL1        0.0001
      7 C         -28.3376    0.0364   31.0331 C.ar    1  UNL1        0.0046
      8 N         -30.5157   -1.8345   30.1118 N.am    1  UNL1       -0.1998
      9 O         -28.8739   -3.1120   30.5519 O.2     1  UNL1       -0.2684
     10 C         -31.5160   -2.9301   30.2684 C.3     1  UNL1        0.1388
@<TRIPOS>BOND
     1     2     5    1
     2     5     8   am
     3     5     9    2
     4     8    10    1
     5     1     2   ar
     6     2     7   ar
     7     7     6   ar
     8     6     4   ar
     9     4     3   ar
    10     3     1   ar
