@<TRIPOS>MOLECULE
No_4913-gen_results/8p0m/2024-11-26-14-13-15/
 14 14 0 0 0
SMALL
GASTEIGER

@<TRIPOS>ATOM
      1 C         -28.0162   -0.8135   28.8779 C.3     1  UNL1        0.0106
      2 C         -27.0636   -0.1190   28.6079 C.3     1  UNL1        0.0415
      3 C         -25.7923   -0.4302   29.0761 C.2     1  UNL1       -0.0249
      4 C         -25.2700   -0.0487   30.0123 C.2     1  UNL1       -0.0049
      5 C         -28.5191   -0.6302   30.0918 C.3     1  UNL1        0.0264
      6 C         -27.9298   -0.1452   30.9924 C.2     1  UNL1       -0.0261
      7 C         -26.4103   -0.0876   31.3883 C.2     1  UNL1       -0.0049
      8 C         -26.9609    0.7261   27.3635 C.3     1  UNL1        0.1057
      9 CL        -25.8949    0.8095   26.1622 Cl      1  UNL1       -0.1099
     10 C         -28.0776    1.7116   27.1181 C.2     1  UNL1       -0.0099
     11 C         -28.0408    2.7481   27.7868 C.2     1  UNL1       -0.0037
     12 C         -28.4357    3.6863   27.9971 C.2     1  UNL1       -0.0049
     13 C         -29.6500    4.2330   27.5354 C.2     1  UNL1       -0.0258
     14 C         -30.0884    3.2313   26.4970 C.3     1  UNL1        0.0307
@<TRIPOS>BOND
     1     1     2    1
     2     2     3    1
     3     3     4    2
     4     1     5    1
     5     5     6    1
     6     4     7    1
     7     6     7    2
     8     2     8    1
     9     8     9    1
    10     8    10    1
    11    10    11    2
    12    11    12    1
    13    12    13    2
    14    13    14    1
