@<TRIPOS>MOLECULE
No_4914-gen_results/8p0m/2024-11-26-14-13-15/
 21 22 0 0 0
SMALL
GASTEIGER

@<TRIPOS>ATOM
      1 C         -28.0162   -0.8135   28.8779 C.3     1  UNL1        0.3432
      2 C         -27.0636   -0.1190   28.6079 C.ar    1  UNL1        0.0715
      3 C         -25.7647   -0.3897   29.0360 C.ar    1  UNL1        0.1416
      4 C         -24.5516    0.4058   28.7646 C.ar    1  UNL1        0.0352
      5 C         -24.6957    1.4480   27.7988 C.ar    1  UNL1        0.0539
      6 C         -26.0010    1.6784   27.2965 C.ar    1  UNL1        0.0381
      7 C         -27.0736    0.9682   27.6500 C.ar    1  UNL1        0.0102
      8 F         -29.0230   -0.5743   28.2323 F       1  UNL1       -0.1932
      9 F         -28.3341   -0.6627   30.2717 F       1  UNL1       -0.1932
     10 C         -23.5057    2.2007   27.4762 C.2     1  UNL1        0.2297
     11 BR        -22.1659    1.2212   26.6625 Br      1  UNL1       -0.0031
     12 O         -23.5007    3.4482   27.4717 O.2     1  UNL1       -0.2792
     13 F         -25.4823   -1.3457   29.9128 F       1  UNL1       -0.2043
     14 BR        -26.1388    3.1021   26.0347 Br      1  UNL1       -0.0489
     15 C         -23.2698    0.0469   29.3338 C.ar    1  UNL1        0.0523
     16 C         -22.5914   -1.0587   28.9124 C.ar    1  UNL1        0.1245
     17 C         -22.8621    0.8212   30.4183 C.ar    1  UNL1        0.1626
     18 N         -21.3446   -1.2325   29.4750 N.ar    1  UNL1       -0.1462
     19 F         -23.5933    1.8769   30.7669 F       1  UNL1       -0.2024
     20 C         -22.3020    0.0634   31.2682 C.ar    1  UNL1        0.1517
     21 N         -21.3917   -0.9037   30.7666 N.ar    1  UNL1       -0.1440
@<TRIPOS>BOND
     1     1     8    1
     2     1     9    1
     3     5    10    1
     4    10    11    1
     5    10    12    2
     6     3    13    1
     7     6    14    1
     8     4    15    1
     9    17    19    1
    10     1     2    1
    11    15    16   ar
    12    16    18   ar
    13    18    21   ar
    14    21    20   ar
    15    20    17   ar
    16    17    15   ar
    17     2     3   ar
    18     3     4   ar
    19     4     5   ar
    20     5     6   ar
    21     6     7   ar
    22     7     2   ar
