@<TRIPOS>MOLECULE
No_4916-gen_results/8p0m/2024-11-26-14-13-15/
 35 38 0 0 0
SMALL
GASTEIGER

@<TRIPOS>ATOM
      1 C         -28.0162   -0.8135   28.8779 C.2     1  UNL1        0.2690
      2 C         -27.0636   -0.1189   28.6079 C.ar    1  UNL1        0.0551
      3 C         -25.7923   -0.4302   29.0761 C.ar    1  UNL1        0.0004
      4 C         -24.5456    0.3494   28.8225 C.ar    1  UNL1       -0.0200
      5 C         -24.6586    1.4196   27.8878 C.ar    1  UNL1       -0.0260
      6 C         -25.9471    1.6811   27.3792 C.ar    1  UNL1       -0.0044
      7 C         -27.0439    0.9739   27.6871 C.ar    1  UNL1        0.0042
      8 N         -27.9517   -1.7518   29.9375 N.am    1  UNL1       -0.1754
      9 O         -29.1984   -0.5344   28.5255 O.2     1  UNL1       -0.2680
     10 C         -29.0453   -2.5720   30.4456 C.ar    1  UNL1        0.0737
     11 C         -23.4612    2.1665   27.5992 C.3     1  UNL1        0.0256
     12 C         -22.3513    1.4705   27.1575 C.3     1  UNL1        0.0688
     13 C         -23.1441    3.1394   28.5222 C.3     1  UNL1        0.0048
     14 C         -23.8926    3.1351   26.3399 C.3     1  UNL1        0.0048
     15 C         -28.7960   -3.9542   30.4040 C.ar    1  UNL1        0.0168
     16 C         -29.9665   -4.7744   30.1258 C.ar    1  UNL1        0.0078
     17 C         -31.1651   -4.1766   29.9797 C.ar    1  UNL1        0.0757
     18 C         -31.3312   -2.8167   30.0150 C.ar    1  UNL1        0.0078
     19 C         -30.1521   -1.9842   30.9061 C.ar    1  UNL1        0.0168
     20 C         -32.2840   -5.0695   29.7698 C.2     1  UNL1        0.3412
     21 O         -32.3804   -6.1608   29.6219 O.2     1  UNL1       -0.2449
     22 O         -33.5338   -4.4819   29.9465 O.3     1  UNL1       -0.4450
     23 C         -23.2822   -0.0485   29.4122 C.3     1  UNL1        0.0700
     24 C         -23.2137    0.0521   30.7030 C.3     1  UNL1        0.0117
     25 C         -22.1782    0.5969   28.6984 C.2     1  UNL1        0.1539
     26 C         -23.0741   -1.5848   29.0345 C.3     1  UNL1        0.0117
     27 O         -20.8950    0.3077   28.9191 O.2     1  UNL1       -0.2957
     28 C         -34.6618   -4.9566   29.5171 C.3     1  UNL1        0.2151
     29 C         -35.5820   -4.0500   28.8638 C.3     1  UNL1        0.0932
     30 C         -35.4236   -2.7480   29.1764 C.ar    1  UNL1        0.0628
     31 N         -35.7431   -2.3435   30.3598 N.ar    1  UNL1       -0.2480
     32 C         -35.1986   -1.3773   30.9789 C.ar    1  UNL1        0.0984
     33 C         -34.6020   -0.3223   30.1937 C.ar    1  UNL1        0.0207
     34 C         -34.3995   -0.6207   28.8196 C.ar    1  UNL1        0.0028
     35 C         -34.7473   -1.8840   28.3691 C.ar    1  UNL1        0.0149
@<TRIPOS>BOND
     1     1     2    1
     2     1     8   am
     3     1     9    2
     4     8    10    1
     5     5    11    1
     6    11    12    1
     7    11    13    1
     8    11    14    1
     9    17    20    1
    10    20    21    2
    11    20    22    1
    12     4    23    1
    13    23    24    1
    14    12    25    1
    15    23    25    1
    16    23    26    1
    17    25    27    2
    18    22    28    1
    19    28    29    1
    20    29    30    1
    21     2     3   ar
    22     3     4   ar
    23     4     5   ar
    24     5     6   ar
    25     6     7   ar
    26     7     2   ar
    27    10    15   ar
    28    15    16   ar
    29    16    17   ar
    30    17    18   ar
    31    18    19   ar
    32    19    10   ar
    33    30    31   ar
    34    31    32   ar
    35    32    33   ar
    36    33    34   ar
    37    34    35   ar
    38    35    30   ar
