@<TRIPOS>MOLECULE
No_4917-gen_results/8p0m/2024-11-26-14-13-15/
 13 14 0 0 0
SMALL
GASTEIGER

@<TRIPOS>ATOM
      1 C         -28.0162   -0.8135   28.8779 C.ar    1  UNL1        0.0375
      2 C         -27.0636   -0.1190   28.6079 C.ar    1  UNL1        0.1453
      3 C         -26.9287    1.1713   29.0083 C.ar    1  UNL1        0.0375
      4 C         -27.9560    1.7411   29.7840 C.ar    1  UNL1        0.0031
      5 C         -29.0569   -0.3271   29.7466 C.ar    1  UNL1        0.0031
      6 C         -28.9828    0.9722   30.1516 C.ar    1  UNL1        0.0002
      7 O         -25.9911   -0.6119   27.8566 O.3     1  UNL1       -0.4535
      8 C         -24.6317   -0.3328   28.2530 C.ar    1  UNL1        0.1453
      9 C         -23.9205   -1.2516   28.9900 C.ar    1  UNL1        0.0375
     10 C         -22.6222   -0.9519   29.3203 C.ar    1  UNL1        0.0031
     11 C         -23.8420    0.6556   27.6494 C.ar    1  UNL1        0.0375
     12 C         -22.6155    1.0144   27.9856 C.ar    1  UNL1        0.0031
     13 C         -21.9063    0.1561   28.8155 C.ar    1  UNL1        0.0002
@<TRIPOS>BOND
     1     2     7    1
     2     7     8    1
     3     8     9   ar
     4     9    10   ar
     5    10    13   ar
     6    13    12   ar
     7    12    11   ar
     8    11     8   ar
     9     1     2   ar
    10     2     3   ar
    11     3     4   ar
    12     4     6   ar
    13     6     5   ar
    14     5     1   ar
