@<TRIPOS>MOLECULE
No_4919-gen_results/8p0m/2024-11-26-14-13-15/
 13 14 0 0 0
SMALL
GASTEIGER

@<TRIPOS>ATOM
      1 C         -28.0162   -0.8135   28.8779 C.ar    1  UNL1        0.0000
      2 C         -27.0636   -0.1189   28.6079 C.ar    1  UNL1        0.0000
      3 C         -26.9716    0.7139   27.5060 C.ar    1  UNL1        0.0000
      4 C         -25.8205    1.4910   27.1160 C.ar    1  UNL1        0.0008
      5 C         -25.7505    2.3193   26.0233 C.ar    1  UNL1        0.0001
      6 C         -24.6040    3.1169   25.8773 C.ar    1  UNL1        0.0009
      7 C         -23.4495    2.9057   26.6706 C.ar    1  UNL1        0.0114
      8 C         -23.5070    2.0166   27.6858 C.ar    1  UNL1        0.0577
      9 C         -24.6299    1.2559   27.9411 C.ar    1  UNL1        0.0114
     10 C         -29.2776   -0.4931   28.3517 C.ar    1  UNL1        0.0000
     11 C         -29.3478    0.3618   27.2825 C.ar    1  UNL1        0.0000
     12 C         -28.1817    1.0407   26.8608 C.ar    1  UNL1        0.0000
     13 CL        -22.0368    1.7642   28.5658 Cl      1  UNL1       -0.0822
@<TRIPOS>BOND
     1     3     4    1
     2     8    13    1
     3     1     2   ar
     4     2     3   ar
     5     3    12   ar
     6    12    11   ar
     7    11    10   ar
     8    10     1   ar
     9     4     5   ar
    10     5     6   ar
    11     6     7   ar
    12     7     8   ar
    13     8     9   ar
    14     9     4   ar
