@<TRIPOS>MOLECULE
No_492-gen_results/8p0m/2024-11-26-14-13-15/
 15 16 0 0 0
SMALL
GASTEIGER

@<TRIPOS>ATOM
      1 C         -28.0162   -0.8135   28.8779 C.ar    1  UNL1        0.0046
      2 C         -28.4690   -0.7850   29.8287 C.ar    1  UNL1        0.0554
      3 C         -26.5042   -0.7777   28.8766 C.ar    1  UNL1        0.0001
      4 C         -25.8103   -0.8531   30.1028 C.ar    1  UNL1        0.0000
      5 C         -27.9906   -0.8916   31.2257 C.ar    1  UNL1        0.0046
      6 C         -26.6042   -0.8676   31.2652 C.ar    1  UNL1        0.0001
      7 C         -30.0739   -0.8360   29.8615 C.2     1  UNL1        0.2690
      8 O         -30.6891   -1.6554   30.2229 O.2     1  UNL1       -0.2680
      9 N         -30.6022    0.4333   29.5985 N.am    1  UNL1       -0.1754
     10 C         -29.9094    1.5925   29.2464 C.ar    1  UNL1        0.0737
     11 C         -29.9877    2.2437   28.2672 C.ar    1  UNL1        0.0166
     12 C         -29.2303    3.4780   27.9527 C.ar    1  UNL1        0.0013
     13 C         -28.3436    3.6549   28.4978 C.ar    1  UNL1        0.0001
     14 C         -28.6792    1.8987   30.0052 C.ar    1  UNL1        0.0166
     15 C         -28.0226    2.9878   29.8715 C.ar    1  UNL1        0.0013
@<TRIPOS>BOND
     1     2     7    1
     2     7     8    2
     3     7     9   am
     4     9    10    1
     5    10    11   ar
     6    11    12   ar
     7    12    13   ar
     8    13    15   ar
     9    15    14   ar
    10    14    10   ar
    11     1     2   ar
    12     2     5   ar
    13     5     6   ar
    14     6     4   ar
    15     4     3   ar
    16     3     1   ar
