@<TRIPOS>MOLECULE
No_4921-gen_results/8p0m/2024-11-26-14-13-15/
 13 13 0 0 0
SMALL
GASTEIGER

@<TRIPOS>ATOM
      1 C         -28.0162   -0.8135   28.8779 C.ar    1  UNL1       -0.0002
      2 C         -27.0636   -0.1189   28.6079 C.ar    1  UNL1       -0.0000
      3 C         -26.9716    0.7139   27.5060 C.ar    1  UNL1       -0.0002
      4 C         -28.1053    0.7744   26.6421 C.ar    1  UNL1       -0.0017
      5 C         -29.2008    0.1044   27.0527 C.ar    1  UNL1        0.0103
      6 C         -29.2096   -0.6029   28.1853 C.ar    1  UNL1       -0.0017
      7 C         -30.3749    0.2232   26.1670 C.3     1  UNL1        0.1927
      8 N         -30.2997    0.0795   24.9312 N.3     1  UNL1       -0.1101
      9 CL        -31.9105    0.2878   26.8641 Cl      1  UNL1       -0.0890
     10 C         -25.6950   -0.2167   29.4223 C.2     1  UNL1       -0.0000
     11 C         -25.4550   -0.7764   30.2194 C.2     1  UNL1       -0.0000
     12 C         -24.1516   -0.8292   30.9690 C.2     1  UNL1        0.0000
     13 C         -23.8012   -1.4940   32.0658 C.2     1  UNL1        0.0000
@<TRIPOS>BOND
     1     5     7    1
     2     7     8    1
     3     7     9    1
     4     2    10    1
     5    10    11    2
     6    11    12    1
     7    12    13    2
     8     1     2   ar
     9     2     3   ar
    10     3     4   ar
    11     4     5   ar
    12     5     6   ar
    13     6     1   ar
