@<TRIPOS>MOLECULE
No_4922-gen_results/8p0m/2024-11-26-14-13-15/
 5 4 0 0 0
SMALL
GASTEIGER

@<TRIPOS>ATOM
      1 C         -28.0162   -0.8135   28.8779 C.3     1  UNL1        0.0175
      2 C         -27.0636   -0.1189   28.6079 C.3     1  UNL1        0.0949
      3 CL        -26.9528    1.3495   28.8384 Cl      1  UNL1       -0.1137
      4 C         -28.3373   -0.6768   30.3443 C.3     1  UNL1        0.0013
      5 C         -28.5503    0.6365   30.7411 C.3     1  UNL1        0.0000
@<TRIPOS>BOND
     1     1     2    1
     2     2     3    1
     3     1     4    1
     4     4     5    1
