@<TRIPOS>MOLECULE
No_4923-gen_results/8p0m/2024-11-26-14-13-15/
 26 29 0 0 0
SMALL
GASTEIGER

@<TRIPOS>ATOM
      1 C         -28.0162   -0.8135   28.8779 C.ar    1  UNL1        0.0372
      2 C         -27.0636   -0.1190   28.6079 C.ar    1  UNL1        0.0032
      3 C         -26.8756    1.1325   28.9134 C.ar    1  UNL1        0.0015
      4 C         -27.9014    1.8066   29.6436 C.ar    1  UNL1       -0.0009
      5 C         -29.0458   -0.2316   29.7181 C.ar    1  UNL1        0.1415
      6 C         -28.9402    1.0517   30.0597 C.ar    1  UNL1        0.0159
      7 O         -30.0593   -1.0632   30.0946 O.3     1  UNL1       -0.4541
      8 C         -25.6684    1.9362   28.4484 C.ar    1  UNL1        0.0224
      9 C         -24.9348    1.7160   27.6796 C.ar    1  UNL1        0.0452
     10 C         -23.7118    2.4802   27.3226 C.ar    1  UNL1        0.2148
     11 C         -24.9279    2.7579   29.4830 C.ar    1  UNL1        0.0991
     12 N         -23.8386    3.4340   29.2890 N.ar    1  UNL1       -0.2390
     13 C         -23.1236    3.2196   28.2038 C.ar    1  UNL1        0.1408
     14 C         -30.4494   -1.0508   31.3658 C.ar    1  UNL1        0.1415
     15 O         -22.9769    2.1674   26.1598 O.3     1  UNL1       -0.2849
     16 C         -30.7416   -1.8830   31.9008 C.ar    1  UNL1        0.0372
     17 C         -31.1735   -1.9593   33.3783 C.ar    1  UNL1        0.0031
     18 C         -31.2150   -0.7532   34.0641 C.ar    1  UNL1       -0.0001
     19 C         -30.8227    0.3487   33.3566 C.ar    1  UNL1       -0.0010
     20 C         -30.4111    0.2801   32.0793 C.ar    1  UNL1        0.0159
     21 C         -29.7472    1.3501   31.3639 C.3     1  UNL1        0.0475
     22 C         -28.7602    2.2477   32.1178 C.3     1  UNL1        0.0093
     23 C         -30.8876    2.2588   30.7462 C.3     1  UNL1        0.0340
     24 C         -31.6671    2.0864   29.9920 C.2     1  UNL1       -0.0300
     25 C         -32.6176    2.9048   29.5806 C.2     1  UNL1       -0.0303
     26 C         -33.5635    2.5707   28.5564 C.3     1  UNL1        0.0303
@<TRIPOS>BOND
     1     5     7    1
     2     3     8    1
     3     7    14    1
     4    10    15    1
     5     6    21    1
     6    20    21    1
     7    21    22    1
     8    21    23    1
     9    23    24    1
    10    24    25    2
    11    25    26    1
    12     8     9   ar
    13     9    10   ar
    14    10    13   ar
    15    13    12   ar
    16    12    11   ar
    17    11     8   ar
    18     1     2   ar
    19     2     3   ar
    20     3     4   ar
    21     4     6   ar
    22     6     5   ar
    23     5     1   ar
    24    14    16   ar
    25    16    17   ar
    26    17    18   ar
    27    18    19   ar
    28    19    20   ar
    29    20    14   ar
