@<TRIPOS>MOLECULE
No_4925-gen_results/8p0m/2024-11-26-14-13-15/
 19 20 0 0 0
SMALL
GASTEIGER

@<TRIPOS>ATOM
      1 CL        -28.1493   -0.8198   28.9079 Cl      1  UNL1       -0.0822
      2 C         -28.5324   -0.0471   29.7727 C.ar    1  UNL1        0.0576
      3 C         -29.7006    0.0350   30.2420 C.ar    1  UNL1        0.0114
      4 C         -27.4574    0.8974   30.3816 C.ar    1  UNL1        0.0106
      5 C         -27.8536    1.8525   31.4456 C.ar    1  UNL1        0.0008
      6 C         -30.0732    1.0428   31.3373 C.ar    1  UNL1        0.0009
      7 C         -29.1164    1.8739   31.8737 C.ar    1  UNL1        0.0001
      8 C         -26.0949    0.8880   29.9919 C.ar    1  UNL1        0.0008
      9 C         -25.2998    0.1725   30.0728 C.ar    1  UNL1        0.0002
     10 C         -23.8583    0.2325   29.5842 C.ar    1  UNL1        0.0066
     11 C         -23.5500    1.3394   28.7875 C.ar    1  UNL1        0.0798
     12 C         -24.5862    2.2489   28.5275 C.ar    1  UNL1        0.0066
     13 C         -25.8580    2.1719   29.1229 C.ar    1  UNL1       -0.0001
     14 C         -22.2149    1.4734   28.2137 C.2     1  UNL1        0.3878
     15 O         -22.0020    2.5089   27.4972 O.co2   1  UNL1       -0.2406
     16 O         -21.2814    0.6341   28.5210 O.co2   1  UNL1       -0.2406
     17 C         -26.8361    3.1732   28.8138 C.2     1  UNL1       -0.0046
     18 C         -26.7059    4.3503   29.5225 C.2     1  UNL1       -0.0258
     19 C         -27.4226    5.4330   29.2784 C.3     1  UNL1        0.0307
@<TRIPOS>BOND
     1     1     2    1
     2     4     8    1
     3    11    14    1
     4    14    15   ar
     5    14    16   ar
     6    13    17    1
     7    17    18    2
     8    18    19    1
     9     2     3   ar
    10     3     6   ar
    11     6     7   ar
    12     7     5   ar
    13     5     4   ar
    14     4     2   ar
    15     8     9   ar
    16     9    10   ar
    17    10    11   ar
    18    11    12   ar
    19    12    13   ar
    20    13     8   ar
