@<TRIPOS>MOLECULE
No_4927-gen_results/8p0m/2024-11-26-14-13-15/
 12 12 0 0 0
SMALL
GASTEIGER

@<TRIPOS>ATOM
      1 C         -28.0162   -0.8135   28.8779 C.ar    1  UNL1        0.0058
      2 C         -28.4690   -0.7850   29.8287 C.ar    1  UNL1        0.0290
      3 C         -26.5042   -0.7777   28.8766 C.ar    1  UNL1        0.0370
      4 C         -25.8103   -0.8531   30.1028 C.ar    1  UNL1        0.1387
      5 C         -27.9906   -0.8916   31.2257 C.ar    1  UNL1        0.0058
      6 C         -26.6042   -0.8676   31.2652 C.ar    1  UNL1        0.0370
      7 O         -24.5004   -0.7818   30.1446 O.3     1  UNL1       -0.4714
      8 C         -23.6886   -1.2456   29.3147 C.3     1  UNL1        0.2525
      9 P         -30.3341   -0.9868   29.9579 P.3     1  UNL1        0.1395
     10 O         -30.8070   -0.3222   31.1768 O.3     1  UNL1       -0.3542
     11 O         -30.6565   -2.4294   30.0519 O.3     1  UNL1       -0.3542
     12 O         -30.8681   -0.4066   28.7251 O.2     1  UNL1       -0.4557
@<TRIPOS>BOND
     1     4     7    1
     2     7     8    1
     3     2     9    1
     4     9    10    1
     5     9    11    1
     6     9    12    2
     7     1     2   ar
     8     2     5   ar
     9     5     6   ar
    10     6     4   ar
    11     4     3   ar
    12     3     1   ar
