@<TRIPOS>MOLECULE
No_4929-gen_results/8p0m/2024-11-26-14-13-15/
 10 10 0 0 0
SMALL
GASTEIGER

@<TRIPOS>ATOM
      1 C         -28.0162   -0.8135   28.8779 C.ar    1  UNL1        0.0114
      2 C         -28.4690   -0.7850   29.8287 C.ar    1  UNL1        0.0009
      3 C         -28.1960    0.3478   28.0550 C.ar    1  UNL1        0.0577
      4 C         -29.0191    1.3501   28.3782 C.ar    1  UNL1        0.0114
      5 C         -29.6249    1.2683   29.6012 C.ar    1  UNL1        0.0005
      6 C         -29.3821    0.1816   30.4004 C.ar    1  UNL1        0.0000
      7 CL        -27.3451    0.3730   26.5182 Cl      1  UNL1       -0.0822
      8 C         -30.5192    2.3192   30.0383 C.2     1  UNL1       -0.0045
      9 C         -31.3309    2.8314   29.4016 C.2     1  UNL1       -0.0258
     10 C         -32.2334    3.9280   29.8298 C.3     1  UNL1        0.0307
@<TRIPOS>BOND
     1     3     7    1
     2     5     8    1
     3     8     9    2
     4     9    10    1
     5     1     2   ar
     6     2     6   ar
     7     6     5   ar
     8     5     4   ar
     9     4     3   ar
    10     3     1   ar
