@<TRIPOS>MOLECULE
No_493-gen_results/8p0m/2024-11-26-14-13-15/
 33 36 0 0 0
SMALL
GASTEIGER

@<TRIPOS>ATOM
      1 C         -28.0162   -0.8135   28.8779 C.ar    1  UNL1        0.0066
      2 C         -27.0636   -0.1189   28.6079 C.ar    1  UNL1        0.0002
      3 C         -25.7902   -0.2340   29.1297 C.ar    1  UNL1       -0.0000
      4 C         -24.6170    0.5841   28.8317 C.ar    1  UNL1       -0.0002
      5 C         -23.3377    0.4296   29.4273 C.ar    1  UNL1       -0.0000
      6 C         -23.1597   -0.7541   30.1731 C.ar    1  UNL1       -0.0000
      7 C         -24.1777   -1.5618   30.4843 C.ar    1  UNL1        0.0000
      8 C         -25.4257   -1.3812   29.9553 C.ar    1  UNL1        0.0002
      9 C         -27.7796   -1.8558   29.9605 C.ar    1  UNL1        0.0798
     10 C         -26.5415   -2.1836   30.3942 C.ar    1  UNL1        0.0066
     11 C         -24.7489    1.7937   27.9760 C.ar    1  UNL1        0.0006
     12 C         -25.0870    2.9282   28.5536 C.ar    1  UNL1        0.0333
     13 C         -25.3145    4.0961   27.8313 C.ar    1  UNL1        0.0005
     14 C         -23.9903    1.8982   26.7705 C.ar    1  UNL1       -0.0002
     15 C         -24.1334    2.9682   25.9253 C.ar    1  UNL1       -0.0000
     16 C         -24.6550    4.1641   26.4952 C.ar    1  UNL1       -0.0002
     17 C         -25.7507    3.0139   29.9228 C.3     1  UNL1        0.2681
     18 CL        -26.2224    4.1407   30.7765 Cl      1  UNL1       -0.0634
     19 O         -26.3390    1.8113   30.3500 O.3     1  UNL1       -0.4596
     20 C         -26.9348    2.0105   31.6742 C.ar    1  UNL1        0.1386
     21 C         -26.7331    1.0221   32.2143 C.ar    1  UNL1        0.0367
     22 C         -27.2083    0.9149   33.6846 C.ar    1  UNL1        0.0031
     23 C         -28.0227    1.8803   34.1647 C.ar    1  UNL1       -0.0000
     24 C         -28.2924    2.9661   33.3674 C.ar    1  UNL1        0.0010
     25 C         -27.7359    2.9863   32.1470 C.ar    1  UNL1        0.0361
     26 C         -28.9561   -2.7370   30.3253 C.2     1  UNL1        0.3878
     27 O         -29.0930   -2.9555   31.5583 O.co2   1  UNL1       -0.2406
     28 O         -29.6110   -3.3294   29.4961 O.co2   1  UNL1       -0.2406
     29 C         -27.3855    4.2750   31.4488 C.3     1  UNL1        0.1145
     30 C         -28.6235    4.5592   30.5153 C.3     1  UNL1        0.0343
     31 C         -27.2830    5.4249   32.4618 C.3     1  UNL1        0.0343
     32 O         -27.5027    5.4005   31.1786 O.3     1  UNL1       -0.3517
     33 C         -27.3470    6.5863   30.4817 C.3     1  UNL1        0.1743
@<TRIPOS>BOND
     1     4    11    1
     2    12    17    1
     3    17    18    1
     4    17    19    1
     5    19    20    1
     6     9    26    1
     7    26    27   ar
     8    26    28   ar
     9    25    29    1
    10    29    30    1
    11    29    31    1
    12    29    32    1
    13    32    33    1
    14    20    21   ar
    15    21    22   ar
    16    22    23   ar
    17    23    24   ar
    18    24    25   ar
    19    25    20   ar
    20     1     2   ar
    21     2     3   ar
    22     8    10   ar
    23    10     9   ar
    24     9     1   ar
    25     3     4   ar
    26     4     5   ar
    27     5     6   ar
    28     6     7   ar
    29     7     8   ar
    30     8     3   ar
    31    11    12   ar
    32    12    13   ar
    33    13    16   ar
    34    16    15   ar
    35    15    14   ar
    36    14    11   ar
