@<TRIPOS>MOLECULE
No_4930-gen_results/8p0m/2024-11-26-14-13-15/
 27 29 0 0 0
SMALL
GASTEIGER

@<TRIPOS>ATOM
      1 C         -28.0162   -0.8135   28.8779 C.ar    1  UNL1        0.0043
      2 C         -28.4690   -0.7850   29.8287 C.ar    1  UNL1        0.0554
      3 C         -26.5455   -0.8762   28.8500 C.ar    1  UNL1       -0.0038
      4 C         -25.8041   -1.0324   30.0571 C.ar    1  UNL1       -0.0178
      5 C         -27.9437   -0.9869   31.2075 C.ar    1  UNL1        0.0043
      6 C         -26.5825   -1.0386   31.2231 C.ar    1  UNL1       -0.0038
      7 C         -30.0606   -0.7371   29.9024 C.2     1  UNL1        0.2691
      8 O         -30.7252   -1.5544   30.2697 O.2     1  UNL1       -0.2680
      9 N         -30.5563    0.4242   29.3124 N.am    1  UNL1       -0.1705
     10 C         -31.9645    0.5638   29.1626 C.2     1  UNL1        0.1328
     11 C         -32.7762    0.4546   29.7383 C.2     1  UNL1        0.0216
     12 C         -32.1137    0.7592   27.6549 C.2     1  UNL1        0.3121
     13 C         -32.6342    0.3365   31.2730 C.ar    1  UNL1        0.0015
     14 N         -33.2485    0.7614   27.2183 N.2     1  UNL1       -0.1013
     15 C         -31.6499    1.1684   31.8641 C.ar    1  UNL1        0.0000
     16 C         -31.5381    1.1439   33.3034 C.ar    1  UNL1        0.0000
     17 C         -32.4124    0.2980   33.9982 C.ar    1  UNL1        0.0000
     18 C         -33.3621   -0.4398   33.3783 C.ar    1  UNL1        0.0000
     19 C         -33.4815   -0.4299   32.0277 C.ar    1  UNL1        0.0000
     20 O         -31.0988    0.9160   26.8554 O.2     1  UNL1       -0.2622
     21 C         -24.3907   -1.1669   30.0562 C.3     1  UNL1        0.0526
     22 C         -23.6065   -0.8978   29.0352 C.ar    1  UNL1       -0.0178
     23 C         -22.1501   -0.8608   29.1767 C.ar    1  UNL1       -0.0039
     24 C         -21.4015   -0.3217   28.1470 C.ar    1  UNL1       -0.0003
     25 C         -22.0406    0.7239   27.3514 C.ar    1  UNL1       -0.0000
     26 C         -23.4407    0.9087   27.3983 C.ar    1  UNL1       -0.0003
     27 C         -24.1749    0.1939   28.2460 C.ar    1  UNL1       -0.0039
@<TRIPOS>BOND
     1     2     7    1
     2     7     8    2
     3     7     9   am
     4     9    10    1
     5    10    11    2
     6    10    12    1
     7    11    13    1
     8    12    14    2
     9    12    20    1
    10     4    21    1
    11    21    22    1
    12    13    15   ar
    13    15    16   ar
    14    16    17   ar
    15    17    18   ar
    16    18    19   ar
    17    19    13   ar
    18    22    23   ar
    19    23    24   ar
    20    24    25   ar
    21    25    26   ar
    22    26    27   ar
    23    27    22   ar
    24     1     2   ar
    25     2     5   ar
    26     5     6   ar
    27     6     4   ar
    28     4     3   ar
    29     3     1   ar
