@<TRIPOS>MOLECULE
No_4931-gen_results/8p0m/2024-11-26-14-13-15/
 18 19 0 0 0
SMALL
GASTEIGER

@<TRIPOS>ATOM
      1 C         -28.0162   -0.8135   28.8779 C.ar    1  UNL1        0.0799
      2 C         -27.0636   -0.1189   28.6079 C.ar    1  UNL1        0.0066
      3 C         -26.9716    0.7139   27.5060 C.ar    1  UNL1        0.0003
      4 C         -28.1053    0.7744   26.6421 C.ar    1  UNL1        0.0041
      5 C         -29.2008    0.1044   27.0527 C.ar    1  UNL1        0.0504
      6 C         -28.0219   -1.5899   30.0879 C.2     1  UNL1        0.3878
      7 C         -29.1640   -0.6394   28.1484 C.ar    1  UNL1        0.0107
      8 O         -27.1526   -2.4621   30.2725 O.co2   1  UNL1       -0.2406
      9 O         -28.7522   -1.2945   31.1182 O.co2   1  UNL1       -0.2406
     10 C         -30.3780    0.1969   26.1611 C.2     1  UNL1        0.2536
     11 CL        -30.5568    0.4460   24.5793 Cl      1  UNL1       -0.0382
     12 O         -31.5526   -0.1362   26.7919 O.2     1  UNL1       -0.2739
     13 C         -25.6967    1.4294   27.1229 C.ar    1  UNL1        0.0000
     14 C         -24.5350    0.8792   27.5051 C.ar    1  UNL1        0.0000
     15 C         -23.2851    1.5932   27.3604 C.ar    1  UNL1        0.0000
     16 C         -23.3530    2.6133   26.3981 C.ar    1  UNL1        0.0000
     17 C         -25.5216    2.5630   26.3499 C.ar    1  UNL1        0.0000
     18 C         -24.4469    3.1899   26.0040 C.ar    1  UNL1        0.0000
@<TRIPOS>BOND
     1     1     6    1
     2     6     8   ar
     3     6     9   ar
     4     5    10    1
     5    10    11    1
     6    10    12    2
     7     3    13    1
     8     1     2   ar
     9     2     3   ar
    10     3     4   ar
    11     4     5   ar
    12     5     7   ar
    13     7     1   ar
    14    13    14   ar
    15    14    15   ar
    16    15    16   ar
    17    16    18   ar
    18    18    17   ar
    19    17    13   ar
