@<TRIPOS>MOLECULE
No_4934-gen_results/8p0m/2024-11-26-14-13-15/
 10 10 0 0 0
SMALL
GASTEIGER

@<TRIPOS>ATOM
      1 C         -28.0162   -0.8135   28.8779 C.ar    1  UNL1        0.0000
      2 C         -27.0636   -0.1189   28.6079 C.ar    1  UNL1        0.0000
      3 C         -26.9287    1.1713   29.0083 C.ar    1  UNL1        0.0000
      4 C         -27.9560    1.7411   29.7840 C.ar    1  UNL1        0.0000
      5 C         -29.0569   -0.3271   29.7466 C.ar    1  UNL1        0.0000
      6 C         -28.9828    0.9722   30.1516 C.ar    1  UNL1        0.0000
      7 C         -25.8815   -0.6260   27.7945 C.2     1  UNL1        0.0000
      8 C         -25.4215    0.1302   26.7096 C.2     1  UNL1        0.0000
      9 C         -25.4008    1.4536   26.6605 C.2     1  UNL1        0.0000
     10 C         -25.8287    2.4911   27.3966 C.2     1  UNL1        0.0000
@<TRIPOS>BOND
     1     2     7    1
     2     7     8    2
     3     8     9    1
     4     9    10    2
     5     1     2   ar
     6     2     3   ar
     7     3     4   ar
     8     4     6   ar
     9     6     5   ar
    10     5     1   ar
