@<TRIPOS>MOLECULE
No_4935-gen_results/8p0m/2024-11-26-14-13-15/
 31 33 0 0 0
SMALL
GASTEIGER

@<TRIPOS>ATOM
      1 C         -28.0162   -0.8135   28.8779 C.ar    1  UNL1        0.0770
      2 C         -27.0636   -0.1189   28.6079 C.ar    1  UNL1        0.0080
      3 C         -26.9716    0.7139   27.5060 C.ar    1  UNL1        0.0129
      4 C         -28.1053    0.7744   26.6421 C.ar    1  UNL1        0.0717
      5 C         -29.2008    0.1044   27.0527 C.ar    1  UNL1        0.0712
      6 C         -29.2096   -0.6029   28.1853 C.ar    1  UNL1        0.0226
      7 N         -30.3077    0.2215   26.2218 N.am    1  UNL1       -0.2095
      8 C         -31.0284    1.0864   26.0542 C.ar    1  UNL1        0.0605
      9 C         -31.1129    2.1247   26.9127 C.ar    1  UNL1        0.0153
     10 C         -31.9119    1.1072   24.8303 C.ar    1  UNL1        0.0153
     11 C         -32.0143    3.2782   26.6847 C.ar    1  UNL1        0.0013
     12 C         -30.5822   -1.0850   25.4571 C.2     1  UNL1        0.4010
     13 O         -31.1257   -2.0653   25.8993 O.2     1  UNL1       -0.2353
     14 F         -29.9690   -1.2604   24.3845 F       1  UNL1       -0.1430
     15 C         -32.7325    2.2539   24.5607 C.ar    1  UNL1        0.0013
     16 C         -32.7505    3.2959   25.5018 C.ar    1  UNL1        0.0001
     17 C         -25.5904   -0.1883   29.2093 C.ar    1  UNL1        0.0108
     18 C         -25.3148    0.6172   30.3351 C.ar    1  UNL1        0.0576
     19 C         -23.9973    0.5097   30.9196 C.ar    1  UNL1        0.0114
     20 C         -23.0664   -0.4003   30.3949 C.ar    1  UNL1        0.0009
     21 C         -23.4283   -1.2191   29.3091 C.ar    1  UNL1        0.0001
     22 C         -24.6954   -1.1139   28.7088 C.ar    1  UNL1        0.0008
     23 C         -28.0243   -1.6393   30.1855 C.2     1  UNL1        0.3414
     24 O         -27.8928   -2.7218   30.2230 O.3     1  UNL1       -0.4392
     25 O         -28.3065   -0.8910   31.3041 O.2     1  UNL1       -0.2449
     26 CL        -28.0053    1.7943   25.2657 Cl      1  UNL1       -0.0809
     27 CL        -26.3924    1.7967   30.9518 Cl      1  UNL1       -0.0822
     28 C         -26.9225   -3.5435   30.0395 C.3     1  UNL1        0.2805
     29 C         -27.1880   -4.6800   29.1858 C.3     1  UNL1        0.3616
     30 F         -26.0717   -5.4878   29.0723 F       1  UNL1       -0.1942
     31 F         -28.2216   -5.0561   28.9868 F       1  UNL1       -0.1942
@<TRIPOS>BOND
     1     5     7    1
     2     7     8    1
     3     7    12   am
     4    12    13    2
     5    12    14    1
     6     2    17    1
     7     1    23    1
     8    23    24    1
     9    23    25    2
    10     4    26    1
    11    18    27    1
    12    24    28    1
    13    28    29    1
    14    29    30    1
    15    29    31    1
    16    17    18   ar
    17    18    19   ar
    18    19    20   ar
    19    20    21   ar
    20    21    22   ar
    21    22    17   ar
    22     1     2   ar
    23     2     3   ar
    24     3     4   ar
    25     4     5   ar
    26     5     6   ar
    27     6     1   ar
    28     8     9   ar
    29     9    11   ar
    30    11    16   ar
    31    16    15   ar
    32    15    10   ar
    33    10     8   ar
