@<TRIPOS>MOLECULE
No_4937-gen_results/8p0m/2024-11-26-14-13-15/
 35 37 0 0 0
SMALL
GASTEIGER

@<TRIPOS>ATOM
      1 C         -28.0162   -0.8135   28.8779 C.ar    1  UNL1        0.0375
      2 C         -28.4690   -0.7850   29.8287 C.ar    1  UNL1        0.0821
      3 C         -26.5042   -0.7777   28.8766 C.ar    1  UNL1        0.1538
      4 C         -25.8103   -0.8531   30.1028 C.ar    1  UNL1        0.0795
      5 C         -27.9906   -0.8916   31.2257 C.ar    1  UNL1        0.0080
      6 C         -26.6042   -0.8676   31.2652 C.ar    1  UNL1        0.0173
      7 C         -30.0739   -0.8360   29.8615 C.2     1  UNL1        0.3878
      8 O         -30.6825   -0.0696   30.6918 O.co2   1  UNL1       -0.2406
      9 O         -30.6262   -1.5652   29.0172 O.co2   1  UNL1       -0.2406
     10 F         -25.7548   -0.7665   27.7968 F       1  UNL1       -0.2029
     11 N         -24.4627   -0.7986   30.1795 N.pl3   1  UNL1       -0.2811
     12 C         -23.5065   -0.3993   29.8603 C.ar    1  UNL1        0.0855
     13 C         -23.0792    0.8459   30.4159 C.ar    1  UNL1        0.1654
     14 C         -22.7548   -0.8667   28.6816 C.ar    1  UNL1        0.0193
     15 C         -21.6297   -0.1149   28.3151 C.ar    1  UNL1        0.0221
     16 N         -22.6022    1.6900   29.6926 N.ar    1  UNL1       -0.2261
     17 C         -21.6842    1.2213   28.6681 C.ar    1  UNL1        0.1005
     18 C         -24.0565   -2.1746   31.0762 C.3     1  UNL1        0.1174
     19 N         -23.9933    1.3996   31.3504 N.pl3   1  UNL1       -0.1931
     20 C         -24.8348    2.4961   31.4066 C.ar    1  UNL1        0.0717
     21 C         -25.3884    2.8410   32.6457 C.ar    1  UNL1        0.0123
     22 C         -25.1446    3.1483   30.2355 C.ar    1  UNL1        0.0163
     23 C         -26.1135    4.1692   30.1905 C.ar    1  UNL1        0.0266
     24 C         -26.3316    3.9307   32.6560 C.ar    1  UNL1       -0.0207
     25 C         -26.5470    4.8280   28.9946 C.3     1  UNL1        0.2450
     26 C         -26.6874    4.5408   31.4520 C.ar    1  UNL1       -0.0044
     27 N         -25.8651    5.0720   28.0532 N.3     1  UNL1       -0.2415
     28 C         -25.0326    6.0230   28.1450 C.3     1  UNL1        0.0922
     29 C         -25.6613    4.1642   26.9947 C.3     1  UNL1        0.0752
     30 C         -25.0683    2.9233   27.0978 C.3     1  UNL1        0.0221
     31 C         -24.8649    2.0340   26.0402 C.3     1  UNL1        0.0275
     32 C         -25.0039    0.8701   25.9219 C.2     1  UNL1       -0.0261
     33 C         -24.8025    0.1263   24.7338 C.2     1  UNL1       -0.0049
     34 F         -27.2258    5.8608   29.3326 F       1  UNL1       -0.2140
     35 C         -26.9261    4.3392   33.9542 C.3     1  UNL1        0.0311
@<TRIPOS>BOND
     1     2     7    1
     2     7     8   ar
     3     7     9   ar
     4     3    10    1
     5     4    11    1
     6    11    12    1
     7    11    18    1
     8    13    19    1
     9    19    20    1
    10    23    25    1
    11    25    27    1
    12    27    28    1
    13    27    29    1
    14    29    30    1
    15    30    31    1
    16    31    32    1
    17    32    33    2
    18    25    34    1
    19    24    35    1
    20    20    21   ar
    21    21    24   ar
    22    24    26   ar
    23    26    23   ar
    24    23    22   ar
    25    22    20   ar
    26     1     2   ar
    27     2     5   ar
    28     5     6   ar
    29     6     4   ar
    30     4     3   ar
    31     3     1   ar
    32    12    13   ar
    33    13    16   ar
    34    16    17   ar
    35    17    15   ar
    36    15    14   ar
    37    14    12   ar
