@<TRIPOS>MOLECULE
No_4938-gen_results/8p0m/2024-11-26-14-13-15/
 29 30 0 0 0
SMALL
GASTEIGER

@<TRIPOS>ATOM
      1 O         -28.1229   -1.3353   28.4874 O.2     1  UNL1       -0.2742
      2 C         -28.5208   -0.4363   29.0779 C.2     1  UNL1        0.2340
      3 C         -28.5894    0.5916   28.9464 C.3     1  UNL1        0.1120
      4 N         -29.3752   -0.9434   30.2659 N.am    1  UNL1       -0.2515
      5 C         -27.5822    1.2649   28.1478 C.ar    1  UNL1       -0.0085
      6 C         -27.7778    1.5442   26.7802 C.ar    1  UNL1        0.0501
      7 C         -26.6582    1.9013   25.8940 C.ar    1  UNL1        0.0044
      8 C         -25.3686    2.0533   26.3890 C.ar    1  UNL1        0.0047
      9 C         -25.1623    1.7983   27.7870 C.ar    1  UNL1        0.0564
     10 C         -26.1930    1.3944   28.5422 C.ar    1  UNL1        0.0010
     11 C         -29.4800   -2.3659   30.5844 C.3     1  UNL1        0.1812
     12 C         -23.7831    1.9159   28.3010 C.2     1  UNL1        0.2842
     13 N         -23.5597    1.8618   29.5622 N.am    1  UNL1       -0.0837
     14 O         -22.7357    2.0204   27.5284 O.2     1  UNL1       -0.2667
     15 C         -30.0291   -0.0784   31.1790 C.ar    1  UNL1        0.0541
     16 C         -29.0380    1.3690   26.1446 C.2     1  UNL1        0.2488
     17 N         -29.9046    2.2739   26.2861 N.am    1  UNL1       -0.2726
     18 O         -29.4271    0.2358   25.7025 O.2     1  UNL1       -0.2699
     19 C         -31.2972    2.2068   25.7644 C.3     1  UNL1        0.1152
     20 C         -29.6380    3.6525   26.8860 C.3     1  UNL1        0.1152
     21 C         -30.4443   -3.0811   29.8557 C.3     1  UNL1        0.3483
     22 CL        -31.3954   -3.7430   30.7309 Cl      1  UNL1       -0.0453
     23 F         -31.1935   -2.4555   29.0714 F       1  UNL1       -0.1848
     24 F         -29.7630   -4.0374   29.0909 F       1  UNL1       -0.1848
     25 C         -31.0162   -0.4685   31.9652 C.ar    1  UNL1        0.0149
     26 C         -31.7186    0.5025   32.5806 C.ar    1  UNL1        0.0013
     27 C         -31.4498    1.8714   32.4118 C.ar    1  UNL1        0.0001
     28 C         -30.4594    2.2555   31.4928 C.ar    1  UNL1        0.0013
     29 C         -29.7731    1.3175   30.8677 C.ar    1  UNL1        0.0149
@<TRIPOS>BOND
     1     1     2    2
     2     2     3    1
     3     2     4   am
     4     3     5    1
     5     4    11    1
     6     9    12    1
     7    12    13   am
     8    12    14    2
     9     4    15    1
    10     6    16    1
    11    16    17   am
    12    16    18    2
    13    17    19    1
    14    17    20    1
    15    11    21    1
    16    21    22    1
    17    21    23    1
    18    21    24    1
    19    15    25   ar
    20    25    26   ar
    21    26    27   ar
    22    27    28   ar
    23    28    29   ar
    24    29    15   ar
    25     5     6   ar
    26     6     7   ar
    27     7     8   ar
    28     8     9   ar
    29     9    10   ar
    30    10     5   ar
