@<TRIPOS>MOLECULE
No_4939-gen_results/8p0m/2024-11-26-14-13-15/
 15 16 0 0 0
SMALL
GASTEIGER

@<TRIPOS>ATOM
      1 O         -28.1229   -1.3353   28.4874 O.2     1  UNL1       -0.2699
      2 C         -27.4806   -0.4044   28.7094 C.2     1  UNL1        0.2487
      3 C         -26.3804   -0.0867   27.9394 C.ar    1  UNL1        0.0496
      4 N         -27.8993    0.6459   29.6320 N.am    1  UNL1       -0.2761
      5 C         -26.3190    0.9178   27.1016 C.ar    1  UNL1        0.0042
      6 C         -25.1519   -0.8370   28.1792 C.ar    1  UNL1       -0.0175
      7 C         -25.1266    1.1744   26.2946 C.ar    1  UNL1        0.0001
      8 C         -23.9065   -0.4909   27.5569 C.ar    1  UNL1       -0.0041
      9 C         -23.9564    0.5366   26.6142 C.ar    1  UNL1       -0.0003
     10 C         -29.0700    0.3875   30.4290 C.3     1  UNL1        0.0937
     11 C         -25.1126   -1.9160   29.1513 C.3     1  UNL1        0.0312
     12 C         -29.7156    1.3798   30.6119 C.3     1  UNL1        0.0216
     13 C         -29.1814    2.6616   30.5312 C.3     1  UNL1        0.0035
     14 C         -27.9951    2.8662   29.7745 C.3     1  UNL1        0.0216
     15 C         -27.3469    1.8028   29.3481 C.3     1  UNL1        0.0937
@<TRIPOS>BOND
     1     1     2    2
     2     2     3    1
     3     2     4   am
     4     4    10    1
     5     6    11    1
     6    12    13    1
     7     4    15    1
     8    14    15    1
     9    10    12    1
    10    13    14    1
    11     3     5   ar
    12     5     7   ar
    13     7     9   ar
    14     9     8   ar
    15     8     6   ar
    16     6     3   ar
