@<TRIPOS>MOLECULE
No_4941-gen_results/8p0m/2024-11-26-14-13-15/
 29 31 0 0 0
SMALL
GASTEIGER

@<TRIPOS>ATOM
      1 C         -28.0162   -0.8135   28.8779 C.ar    1  UNL1       -0.0003
      2 C         -28.4690   -0.7850   29.8287 C.ar    1  UNL1       -0.0000
      3 C         -28.1960    0.3478   28.0550 C.ar    1  UNL1       -0.0043
      4 C         -27.4421    0.5100   26.7946 C.ar    1  UNL1       -0.0218
      5 C         -26.1689   -0.0794   26.6787 C.ar    1  UNL1       -0.0043
      6 C         -25.7312   -0.9607   27.6875 C.ar    1  UNL1       -0.0003
      7 C         -26.5043   -1.2222   28.7582 C.ar    1  UNL1       -0.0003
      8 C         -28.3432   -2.0040   30.7789 C.ar    1  UNL1       -0.0000
      9 C         -27.1022   -2.6901   30.6797 C.ar    1  UNL1       -0.0003
     10 C         -26.1200   -2.3552   29.6514 C.ar    1  UNL1       -0.0026
     11 C         -24.9752   -3.1271   29.4458 C.2     1  UNL1       -0.0049
     12 C         -23.8019   -2.6251   29.0905 C.2     1  UNL1       -0.0032
     13 C         -25.2051   -4.5220   29.3429 C.3     1  UNL1        0.1140
     14 N         -26.3453   -5.1330   29.5238 N.3     1  UNL1       -0.1281
     15 C         -24.1184   -5.4161   29.1194 C.3     1  UNL1        0.0253
     16 C         -27.8457    1.4574   25.7750 C.3     1  UNL1        0.0338
     17 C         -28.1813    0.9770   24.5354 C.3     1  UNL1        0.0055
     18 C         -27.9151    2.8667   26.0936 C.3     1  UNL1        0.0911
     19 C         -26.8431    3.5348   26.5715 C.ar    1  UNL1       -0.0146
     20 C         -25.5807    3.2830   26.3071 C.ar    1  UNL1       -0.0038
     21 C         -24.4730    3.9741   26.9614 C.ar    1  UNL1       -0.0001
     22 C         -24.7581    4.9820   27.8420 C.ar    1  UNL1        0.0066
     23 C         -27.1650    4.6138   27.5749 C.ar    1  UNL1        0.0027
     24 C         -26.0485    5.2596   28.1823 C.ar    1  UNL1        0.0795
     25 C         -29.1593    3.4917   25.7858 C.2     1  UNL1        0.2116
     26 C         -26.2955    6.3308   29.2018 C.2     1  UNL1        0.3877
     27 O         -26.1954    6.2120   30.3067 O.co2   1  UNL1       -0.2406
     28 O         -26.6533    7.4825   28.5916 O.co2   1  UNL1       -0.2406
     29 O         -29.6293    3.3066   24.5803 O.2     1  UNL1       -0.2879
@<TRIPOS>BOND
     1    10    11    1
     2    11    12    2
     3    11    13    1
     4    13    14    1
     5    13    15    1
     6     4    16    1
     7    16    17    1
     8    16    18    1
     9    18    19    1
    10    18    25    1
    11    24    26    1
    12    26    27   ar
    13    26    28   ar
    14    25    29    2
    15    19    20   ar
    16    20    21   ar
    17    21    22   ar
    18    22    24   ar
    19    24    23   ar
    20    23    19   ar
    21     1     2   ar
    22     2     8   ar
    23     8     9   ar
    24     9    10   ar
    25    10     7   ar
    26     1     3   ar
    27     3     4   ar
    28     4     5   ar
    29     5     6   ar
    30     6     7   ar
    31     7     1   ar
