@<TRIPOS>MOLECULE
No_4942-gen_results/8p0m/2024-11-26-14-13-15/
 13 14 0 0 0
SMALL
GASTEIGER

@<TRIPOS>ATOM
      1 C         -28.0162   -0.8135   28.8779 C.3     1  UNL1        0.0648
      2 C         -28.4690   -0.7850   29.8287 C.3     1  UNL1        0.0078
      3 C         -26.5455   -0.8762   28.8500 C.2     1  UNL1        0.1543
      4 C         -25.8041   -1.0324   30.0571 C.3     1  UNL1        0.0798
      5 C         -26.5373   -1.0386   31.2171 C.3     1  UNL1        0.0117
      6 C         -27.8843   -0.9532   31.1862 C.3     1  UNL1        0.0012
      7 C         -24.3555   -1.1121   30.0346 C.ar    1  UNL1       -0.0155
      8 C         -23.7079   -1.1920   30.8827 C.ar    1  UNL1       -0.0039
      9 C         -22.1991   -1.0954   30.9345 C.ar    1  UNL1       -0.0003
     10 C         -21.6564   -0.8348   29.7237 C.ar    1  UNL1       -0.0000
     11 C         -22.4112   -0.6494   28.5512 C.ar    1  UNL1       -0.0003
     12 C         -23.8549   -0.7781   28.7009 C.ar    1  UNL1       -0.0039
     13 O         -25.8643   -0.8375   27.7241 O.2     1  UNL1       -0.2957
@<TRIPOS>BOND
     1     1     3    1
     2     3     4    1
     3     4     5    1
     4     2     6    1
     5     5     6    1
     6     4     7    1
     7     3    13    2
     8     1     2    1
     9     7     8   ar
    10     8     9   ar
    11     9    10   ar
    12    10    11   ar
    13    11    12   ar
    14    12     7   ar
