@<TRIPOS>MOLECULE
No_4943-gen_results/8p0m/2024-11-26-14-13-15/
 31 33 0 0 0
SMALL
GASTEIGER

@<TRIPOS>ATOM
      1 BR        -28.1146   -0.6256   29.0813 Br      1  UNL1       -0.0458
      2 C         -26.9268    0.4545   28.6846 C.ar    1  UNL1        0.0692
      3 C         -25.8457    0.7043   29.3312 C.ar    1  UNL1        0.0111
      4 C         -24.8514    1.6413   28.9474 C.ar    1  UNL1        0.0189
      5 C         -25.0097    2.3205   27.7273 C.ar    1  UNL1        0.0951
      6 C         -26.1307    2.0369   26.9913 C.ar    1  UNL1        0.0906
      7 C         -27.0265    1.1434   27.3985 C.ar    1  UNL1        0.1558
      8 N         -24.0333    3.2226   27.3329 N.pl3   1  UNL1       -0.1278
      9 O         -28.1140    0.8945   26.6363 O.3     1  UNL1       -0.4497
     10 C         -29.1818    0.6985   26.8288 C.2     1  UNL1        0.1809
     11 C         -30.0881    1.6642   26.4166 C.2     1  UNL1        0.0554
     12 C         -29.8228    2.7122   25.9682 C.2     1  UNL1        0.0079
     13 C         -28.5005    3.1997   25.9688 C.2     1  UNL1        0.0423
     14 C         -27.2159    2.6761   26.2746 C.2     1  UNL1        0.1999
     15 O         -26.3554    3.1309   25.1870 O.2     1  UNL1       -0.2864
     16 C         -31.5508    1.2906   26.4138 C.ar    1  UNL1        0.0857
     17 N         -31.9495    0.2774   27.0202 N.ar    1  UNL1       -0.2306
     18 C         -32.9911   -0.4172   26.8182 C.ar    1  UNL1        0.1321
     19 C         -33.7911   -0.2046   25.9998 C.ar    1  UNL1        0.0343
     20 C         -33.5046    0.9915   25.1390 C.ar    1  UNL1        0.0044
     21 C         -32.3121    1.6646   25.2918 C.ar    1  UNL1        0.0193
     22 N         -33.2591   -1.5280   27.7286 N.pl3   1  UNL1       -0.2804
     23 C         -32.5184   -1.6097   28.8790 C.3     1  UNL1        0.1966
     24 C         -33.1859   -1.8154   30.1161 C.3     1  UNL1        0.4156
     25 F         -34.2440   -2.2603   30.1386 F       1  UNL1       -0.1682
     26 F         -33.3452   -0.5402   30.7222 F       1  UNL1       -0.1682
     27 F         -32.4332   -2.3268   31.1445 F       1  UNL1       -0.1682
     28 C         -33.2750   -2.8397   27.0117 C.3     1  UNL1        0.1393
     29 C         -34.2721   -3.6888   27.3231 C.3     1  UNL1        0.0300
     30 C         -32.2708   -3.1311   26.1219 C.2     1  UNL1        0.2268
     31 O         -31.4185   -2.3732   25.6150 O.2     1  UNL1       -0.2865
@<TRIPOS>BOND
     1     1     2    1
     2     5     8    1
     3     7     9    1
     4     9    10    1
     5    10    11    2
     6    11    12    1
     7    12    13    2
     8     6    14    1
     9    13    14    1
    10    14    15    2
    11    11    16    1
    12    18    22    1
    13    22    23    1
    14    23    24    1
    15    24    25    1
    16    24    26    1
    17    24    27    1
    18    22    28    1
    19    28    29    1
    20    28    30    1
    21    30    31    2
    22     2     3   ar
    23     3     4   ar
    24     4     5   ar
    25     5     6   ar
    26     6     7   ar
    27     7     2   ar
    28    16    17   ar
    29    17    18   ar
    30    18    19   ar
    31    19    20   ar
    32    20    21   ar
    33    21    16   ar
