@<TRIPOS>MOLECULE
No_4944-gen_results/8p0m/2024-11-26-14-13-15/
 15 16 0 0 0
SMALL
GASTEIGER

@<TRIPOS>ATOM
      1 C         -28.0162   -0.8135   28.8779 C.ar    1  UNL1        0.0350
      2 C         -27.0636   -0.1190   28.6079 C.ar    1  UNL1        0.1392
      3 N         -25.8176   -0.3427   29.0488 N.ar    1  UNL1       -0.2285
      4 C         -25.6067   -1.4414   29.8929 C.ar    1  UNL1        0.1003
      5 C         -26.6760   -2.2193   30.2363 C.ar    1  UNL1        0.0208
      6 C         -27.8635   -1.9317   29.7671 C.ar    1  UNL1        0.0045
      7 N         -27.1319    1.0287   27.8069 N.pl3   1  UNL1       -0.2499
      8 C         -27.8145    1.1379   26.7229 C.ar    1  UNL1        0.0569
      9 C         -28.5947    0.3561   26.3063 C.ar    1  UNL1        0.0152
     10 C         -29.2868    0.4894   25.0124 C.ar    1  UNL1        0.0013
     11 C         -28.9672    1.6014   24.2729 C.ar    1  UNL1        0.0001
     12 C         -28.0759    2.5641   24.7221 C.ar    1  UNL1        0.0013
     13 C         -27.4567    2.3961   25.9308 C.ar    1  UNL1        0.0152
     14 C         -26.1706    2.1494   28.2324 C.2     1  UNL1        0.0708
     15 C         -26.2140    3.1344   28.0575 C.2     1  UNL1        0.0178
@<TRIPOS>BOND
     1     2     7    1
     2     7     8    1
     3     7    14    1
     4    14    15    2
     5     1     2   ar
     6     2     3   ar
     7     3     4   ar
     8     4     5   ar
     9     5     6   ar
    10     6     1   ar
    11     8     9   ar
    12     9    10   ar
    13    10    11   ar
    14    11    12   ar
    15    12    13   ar
    16    13     8   ar
