@<TRIPOS>MOLECULE
No_4946-gen_results/8p0m/2024-11-26-14-13-15/
 22 23 0 0 0
SMALL
GASTEIGER

@<TRIPOS>ATOM
      1 C         -28.0162   -0.8135   28.8779 C.ar    1  UNL1        0.0026
      2 C         -28.4690   -0.7850   29.8287 C.ar    1  UNL1        0.0795
      3 C         -26.5042   -0.7777   28.8766 C.ar    1  UNL1       -0.0176
      4 C         -25.6540   -0.6597   27.7191 C.3     1  UNL1        0.0523
      5 C         -27.9180   -0.9374   31.1824 C.ar    1  UNL1        0.0066
      6 C         -26.5423   -0.9399   31.2606 C.ar    1  UNL1       -0.0001
      7 C         -25.7832   -0.8935   30.1201 C.ar    1  UNL1       -0.0039
      8 C         -25.2134    0.6923   27.3830 C.ar    1  UNL1       -0.0214
      9 C         -25.3646    1.1004   26.0936 C.ar    1  UNL1       -0.0214
     10 C         -24.5956    1.5253   28.2924 C.ar    1  UNL1       -0.0042
     11 C         -24.1066    2.7629   27.8572 C.ar    1  UNL1       -0.0003
     12 C         -24.9108    2.3417   25.6397 C.ar    1  UNL1       -0.0042
     13 C         -24.2373    3.2107   26.5798 C.ar    1  UNL1       -0.0003
     14 C         -30.0301   -0.8219   30.0086 C.2     1  UNL1        0.3877
     15 O         -30.6716   -1.7281   30.2899 O.co2   1  UNL1       -0.2406
     16 O         -30.6319    0.2885   29.5835 O.co2   1  UNL1       -0.2406
     17 C         -25.9803    0.2989   25.0630 C.3     1  UNL1        0.0520
     18 C         -27.4074    0.1287   25.0478 C.2     1  UNL1       -0.0214
     19 C         -28.1497    0.9928   25.8794 C.2     1  UNL1       -0.0046
     20 C         -29.3299    1.3313   25.5228 C.2     1  UNL1       -0.0049
     21 C         -30.0847    0.5911   24.6266 C.2     1  UNL1       -0.0258
     22 C         -31.4374    0.8094   24.4260 C.3     1  UNL1        0.0307
@<TRIPOS>BOND
     1     3     4    1
     2     4     8    1
     3     2    14    1
     4    14    15   ar
     5    14    16   ar
     6     9    17    1
     7    17    18    1
     8    18    19    2
     9    19    20    1
    10    20    21    2
    11    21    22    1
    12     8     9   ar
    13     9    12   ar
    14    12    13   ar
    15    13    11   ar
    16    11    10   ar
    17    10     8   ar
    18     1     2   ar
    19     2     5   ar
    20     5     6   ar
    21     6     7   ar
    22     7     3   ar
    23     3     1   ar
