@<TRIPOS>MOLECULE
No_4947-gen_results/8p0m/2024-11-26-14-13-15/
 24 25 0 0 0
SMALL
GASTEIGER

@<TRIPOS>ATOM
      1 C         -28.0162   -0.8135   28.8779 C.ar    1  UNL1        0.0377
      2 C         -28.4690   -0.7850   29.8287 C.ar    1  UNL1        0.1489
      3 C         -27.0871    0.2903   28.6377 C.ar    1  UNL1        0.0060
      4 C         -26.8317    1.2487   29.5869 C.ar    1  UNL1        0.0041
      5 C         -28.3914    0.0801   31.0065 C.ar    1  UNL1        0.0415
      6 C         -27.4940    1.1521   30.7841 C.ar    1  UNL1        0.0745
      7 C         -26.3172    0.3994   27.3653 C.ar    1  UNL1        0.0381
      8 C         -26.8815    0.9711   26.3721 C.ar    1  UNL1        0.0598
      9 C         -26.1465    0.9703   25.0973 C.ar    1  UNL1        0.0115
     10 C         -24.7793    0.5609   25.1117 C.ar    1  UNL1        0.0032
     11 C         -25.0074   -0.1159   27.2986 C.ar    1  UNL1        0.1409
     12 C         -24.2881    0.0057   26.2234 C.ar    1  UNL1        0.0297
     13 F         -24.5465   -0.5750   28.5080 F       1  UNL1       -0.2041
     14 CL        -28.5020    1.4950   26.2450 Cl      1  UNL1       -0.0822
     15 O         -29.3939   -1.8779   30.1495 O.3     1  UNL1       -0.4165
     16 C         -30.6520   -1.6377   30.0868 C.2     1  UNL1        0.4267
     17 C         -31.3543   -2.8314   29.9685 C.2     1  UNL1        0.4625
     18 O         -32.1823   -2.9589   29.1536 O.co2   1  UNL1       -0.2332
     19 O         -31.3990   -3.6935   30.9864 O.co2   1  UNL1       -0.2332
     20 O         -31.1395   -0.5522   29.9104 O.2     1  UNL1       -0.2370
     21 C         -27.2950    2.1566   31.8678 C.3     1  UNL1        0.4187
     22 F         -27.5604    1.8443   33.0042 F       1  UNL1       -0.1659
     23 F         -27.9721    3.3258   31.5567 F       1  UNL1       -0.1659
     24 F         -25.9719    2.5344   31.8263 F       1  UNL1       -0.1659
@<TRIPOS>BOND
     1     3     7    1
     2    11    13    1
     3     8    14    1
     4     2    15    1
     5    15    16    1
     6    16    17    1
     7    17    18   ar
     8    17    19   ar
     9    16    20    2
    10     6    21    1
    11    21    22    1
    12    21    23    1
    13    21    24    1
    14     7     8   ar
    15     8     9   ar
    16     9    10   ar
    17    10    12   ar
    18    12    11   ar
    19    11     7   ar
    20     1     2   ar
    21     2     5   ar
    22     5     6   ar
    23     6     4   ar
    24     4     3   ar
    25     3     1   ar
