@<TRIPOS>MOLECULE
No_4949-gen_results/8p0m/2024-11-26-14-13-15/
 19 21 0 0 0
SMALL
GASTEIGER

@<TRIPOS>ATOM
      1 N         -28.0544   -1.0498   28.7246 N.ar    1  UNL1       -0.2116
      2 C         -28.6544   -0.5669   29.5076 C.ar    1  UNL1        0.2280
      3 C         -26.6945   -1.3221   29.0236 C.ar    1  UNL1        0.1035
      4 C         -26.2777   -1.0466   30.3588 C.ar    1  UNL1        0.0414
      5 N         -28.4400   -0.2351   30.6472 N.ar    1  UNL1       -0.2116
      6 C         -27.2193   -0.4170   31.1652 C.ar    1  UNL1        0.1035
      7 N         -30.0667   -0.2837   29.1716 N.pl3   1  UNL1       -0.2345
      8 C         -31.0345   -0.7992   29.2347 C.ar    1  UNL1        0.0774
      9 C         -31.2164   -1.7694   30.0564 C.ar    1  UNL1        0.0184
     10 C         -32.1791   -0.5039   28.3497 C.ar    1  UNL1        0.1140
     11 C         -32.4115   -2.6561   30.1083 C.ar    1  UNL1        0.0220
     12 N         -33.3157   -1.2630   28.4021 N.ar    1  UNL1       -0.2410
     13 C         -33.4157   -2.2099   29.2893 C.ar    1  UNL1        0.0990
     14 C         -30.1754    1.2168   29.0455 C.ar    1  UNL1        0.0583
     15 C         -29.0824    1.9942   28.7791 C.ar    1  UNL1        0.0152
     16 C         -29.3266    3.3343   28.4967 C.ar    1  UNL1        0.0013
     17 C         -30.5930    3.8509   28.5644 C.ar    1  UNL1        0.0001
     18 C         -31.4215    1.8360   29.0787 C.ar    1  UNL1        0.0152
     19 C         -31.5752    3.1542   28.9354 C.ar    1  UNL1        0.0013
@<TRIPOS>BOND
     1     2     7    1
     2     7     8    1
     3     7    14    1
     4     8     9   ar
     5     9    11   ar
     6    11    13   ar
     7    13    12   ar
     8    12    10   ar
     9    10     8   ar
    10    14    15   ar
    11    15    16   ar
    12    16    17   ar
    13    17    19   ar
    14    19    18   ar
    15    18    14   ar
    16     1     2   ar
    17     2     5   ar
    18     5     6   ar
    19     6     4   ar
    20     4     3   ar
    21     3     1   ar
