@<TRIPOS>MOLECULE
No_4950-gen_results/8p0m/2024-11-26-14-13-15/
 33 37 0 0 0
SMALL
GASTEIGER

@<TRIPOS>ATOM
      1 O         -28.1229   -1.3353   28.4874 O.2     1  UNL1       -0.2692
      2 C         -27.4806   -0.4044   28.7094 C.2     1  UNL1        0.2588
      3 C         -26.3804   -0.0867   27.9394 C.ar    1  UNL1        0.0544
      4 N         -27.6664    0.4468   29.8988 N.am    1  UNL1       -0.2002
      5 C         -25.1773   -0.4388   28.3946 C.ar    1  UNL1        0.0045
      6 C         -26.5259    0.6036   26.6867 C.ar    1  UNL1        0.0073
      7 C         -23.9372    0.0372   27.6524 C.ar    1  UNL1        0.0001
      8 C         -25.3817    0.9698   25.9434 C.ar    1  UNL1        0.0002
      9 C         -24.1031    0.7250   26.4412 C.ar    1  UNL1        0.0000
     10 C         -28.7588    0.1102   30.7851 C.2     1  UNL1        0.2588
     11 C         -26.8485    1.5208   30.1933 C.2     1  UNL1        0.0711
     12 C         -27.1731    2.5424   30.3599 C.2     1  UNL1       -0.0047
     13 C         -27.0639    3.5378   29.7951 C.3     1  UNL1        0.0568
     14 C         -26.6948    3.5555   28.4395 C.ar    1  UNL1        0.0168
     15 C         -25.2684    3.7867   28.3054 C.ar    1  UNL1       -0.0009
     16 C         -27.4874    3.5651   27.3442 C.ar    1  UNL1        0.1416
     17 C         -24.7341    4.0647   26.9473 C.ar    1  UNL1       -0.0001
     18 C         -27.0207    3.9544   26.0731 C.ar    1  UNL1        0.0372
     19 C         -25.5765    4.1982   25.9070 C.ar    1  UNL1        0.0031
     20 C         -27.8417    0.8005   26.1333 C.ar    1  UNL1        0.0347
     21 C         -28.3875   -0.0529   25.3158 C.ar    1  UNL1        0.0030
     22 C         -29.6833    0.0640   24.7791 C.ar    1  UNL1        0.0002
     23 C         -30.5143    1.0785   25.2449 C.ar    1  UNL1        0.0031
     24 C         -30.0447    1.9856   26.1679 C.ar    1  UNL1        0.0375
     25 C         -28.7324    1.8286   26.7329 C.ar    1  UNL1        0.1452
     26 O         -28.4670    2.8161   27.4010 O.3     1  UNL1       -0.4538
     27 O         -29.5654    0.8359   30.7853 O.2     1  UNL1       -0.2692
     28 C         -28.5614   -1.0844   31.4556 C.ar    1  UNL1        0.0543
     29 C         -29.4879   -1.2112   32.4136 C.ar    1  UNL1        0.0045
     30 C         -29.9342   -2.5956   32.5887 C.ar    1  UNL1        0.0001
     31 C         -29.2804   -3.6617   31.9412 C.ar    1  UNL1        0.0000
     32 C         -28.3306   -3.3998   30.9398 C.ar    1  UNL1        0.0001
     33 C         -27.5670   -2.0432   31.3864 C.ar    1  UNL1        0.0045
@<TRIPOS>BOND
     1     1     2    2
     2     2     3    1
     3     2     4   am
     4     4    10   am
     5     4    11    1
     6    11    12    2
     7    12    13    1
     8    13    14    1
     9     6    20    1
    10    16    26    1
    11    25    26    1
    12    10    27    2
    13    10    28    1
    14    20    21   ar
    15    21    22   ar
    16    22    23   ar
    17    23    24   ar
    18    24    25   ar
    19    25    20   ar
    20    28    29   ar
    21    29    30   ar
    22    30    31   ar
    23    31    32   ar
    24    32    33   ar
    25    33    28   ar
    26    14    15   ar
    27    15    17   ar
    28    17    19   ar
    29    19    18   ar
    30    18    16   ar
    31    16    14   ar
    32     3     5   ar
    33     5     7   ar
    34     7     9   ar
    35     9     8   ar
    36     8     6   ar
    37     6     3   ar
