@<TRIPOS>MOLECULE
No_4951-gen_results/8p0m/2024-11-26-14-13-15/
 34 37 0 0 0
SMALL
GASTEIGER

@<TRIPOS>ATOM
      1 C         -28.0162   -0.8135   28.8779 C.ar    1  UNL1        0.0161
      2 C         -28.4690   -0.7850   29.8287 C.ar    1  UNL1        0.0563
      3 C         -26.5455   -0.8762   28.8500 C.ar    1  UNL1        0.0622
      4 C         -25.8041   -1.0324   30.0571 C.ar    1  UNL1        0.0641
      5 C         -27.9437   -0.9869   31.2075 C.ar    1  UNL1        0.0048
      6 C         -26.5825   -1.0386   31.2231 C.ar    1  UNL1        0.0055
      7 C         -24.3810   -1.1082   30.0855 C.2     1  UNL1        0.2498
      8 N         -23.7397    0.0683   29.8430 N.am    1  UNL1       -0.2761
      9 C         -22.5879    0.1899   29.0935 C.3     1  UNL1        0.0937
     10 C         -24.1939    1.2701   30.4138 C.3     1  UNL1        0.0937
     11 C         -22.2069    1.2974   28.3426 C.3     1  UNL1        0.0216
     12 C         -23.9483    2.5072   29.7577 C.3     1  UNL1        0.0216
     13 C         -22.8189    2.5585   28.8554 C.3     1  UNL1        0.0035
     14 CL        -25.7669   -0.6667   27.3267 Cl      1  UNL1       -0.0821
     15 C         -30.0967   -0.7527   29.8727 C.2     1  UNL1        0.2716
     16 O         -30.7544   -1.5815   30.2938 O.2     1  UNL1       -0.2679
     17 N         -30.6148    0.3475   29.2853 N.am    1  UNL1       -0.1371
     18 C         -32.0259    0.5180   29.1552 C.2     1  UNL1        0.2716
     19 C         -32.3624    1.2418   28.1627 C.ar    1  UNL1        0.0556
     20 C         -33.4546    1.4666   27.6805 C.ar    1  UNL1        0.0046
     21 C         -31.3229    2.2555   27.6487 C.ar    1  UNL1        0.0078
     22 C         -31.5705    3.1109   26.5566 C.ar    1  UNL1        0.0391
     23 C         -33.8331    2.3204   26.5522 C.ar    1  UNL1        0.0002
     24 C         -32.8569    3.1799   26.0630 C.ar    1  UNL1        0.0032
     25 O         -32.7426   -0.0657   29.8764 O.2     1  UNL1       -0.2679
     26 O         -23.8286   -2.1557   30.2940 O.2     1  UNL1       -0.2699
     27 C         -30.5138    4.0053   26.0784 C.2     1  UNL1        0.1955
     28 C         -29.2066    3.6840   26.3888 C.ar    1  UNL1        0.0390
     29 C         -28.4070    3.3597   25.4363 C.ar    1  UNL1        0.0032
     30 C         -27.0706    2.8519   25.7602 C.ar    1  UNL1        0.0001
     31 C         -26.4796    3.0319   26.5775 C.ar    1  UNL1        0.0000
     32 C         -26.8817    3.6516   27.6664 C.ar    1  UNL1        0.0001
     33 C         -28.5480    4.0080   27.6515 C.ar    1  UNL1        0.0032
     34 O         -30.8060    5.0666   25.4764 O.2     1  UNL1       -0.2866
@<TRIPOS>BOND
     1     4     7    1
     2     7     8   am
     3     8     9    1
     4     8    10    1
     5    11    13    1
     6    12    13    1
     7     3    14    1
     8     2    15    1
     9    15    16    2
    10    15    17   am
    11    17    18   am
    12    18    19    1
    13    18    25    2
    14     7    26    2
    15    22    27    1
    16    27    28    1
    17    27    34    2
    18     9    11    1
    19    12    10    1
    20    28    29   ar
    21    29    30   ar
    22    30    31   ar
    23    31    32   ar
    24    32    33   ar
    25    33    28   ar
    26     1     2   ar
    27     2     5   ar
    28     5     6   ar
    29     6     4   ar
    30     4     3   ar
    31     3     1   ar
    32    19    20   ar
    33    20    23   ar
    34    23    24   ar
    35    24    22   ar
    36    22    21   ar
    37    21    19   ar
