@<TRIPOS>MOLECULE
No_4952-gen_results/8p0m/2024-11-26-14-13-15/
 21 23 0 0 0
SMALL
GASTEIGER

@<TRIPOS>ATOM
      1 C         -28.0162   -0.8135   28.8779 C.ar    1  UNL1        0.0000
      2 C         -28.4690   -0.7850   29.8287 C.ar    1  UNL1        0.0000
      3 C         -27.1356    0.2359   28.5352 C.ar    1  UNL1        0.0001
      4 C         -26.8745    1.2825   29.3982 C.ar    1  UNL1        0.0044
      5 C         -27.5070    1.2380   30.6295 C.ar    1  UNL1        0.0001
      6 C         -28.3293    0.1745   30.9350 C.ar    1  UNL1        0.0000
      7 C         -26.4077    0.3070   27.2259 C.ar    1  UNL1        0.0000
      8 C         -25.7128    1.4905   26.9213 C.ar    1  UNL1        0.0001
      9 C         -25.4301    2.4538   27.8655 C.ar    1  UNL1        0.0045
     10 C         -26.0916    2.4163   29.0923 C.ar    1  UNL1        0.0539
     11 C         -25.8331    3.5594   30.0163 C.2     1  UNL1        0.2528
     12 O         -25.9556    4.7662   29.5597 O.2     1  UNL1       -0.2696
     13 N         -25.3309    3.3318   31.2445 N.am    1  UNL1       -0.2533
     14 C         -25.0421    4.4453   32.1968 C.ar    1  UNL1        0.0564
     15 C         -24.9183    2.0272   31.7831 C.3     1  UNL1        0.1203
     16 C         -25.9361    4.5561   33.3202 C.ar    1  UNL1        0.0151
     17 C         -25.7471    5.6106   34.0624 C.ar    1  UNL1        0.0036
     18 C         -24.7294    6.5800   33.8335 C.ar    1  UNL1        0.0297
     19 C         -23.8802    6.4139   32.7035 C.ar    1  UNL1        0.1414
     20 C         -24.0636    5.3041   31.9294 C.ar    1  UNL1        0.0445
     21 F         -22.8861    7.2167   32.5759 F       1  UNL1       -0.2041
@<TRIPOS>BOND
     1    10    11    1
     2    11    12    2
     3    11    13   am
     4    13    14    1
     5    13    15    1
     6    19    21    1
     7     4    10   ar
     8    10     9   ar
     9     9     8   ar
    10     8     7   ar
    11     7     3   ar
    12     1     2   ar
    13     2     6   ar
    14     6     5   ar
    15     5     4   ar
    16     4     3   ar
    17     3     1   ar
    18    14    16   ar
    19    16    17   ar
    20    17    18   ar
    21    18    19   ar
    22    19    20   ar
    23    20    14   ar
