@<TRIPOS>MOLECULE
No_4953-gen_results/8p0m/2024-11-26-14-13-15/
 14 15 0 0 0
SMALL
GASTEIGER

@<TRIPOS>ATOM
      1 C         -28.0162   -0.8135   28.8779 C.ar    1  UNL1        0.0033
      2 C         -27.0636   -0.1190   28.6079 C.ar    1  UNL1        0.0001
      3 C         -26.9716    0.7139   27.5060 C.ar    1  UNL1        0.0000
      4 C         -28.1053    0.7744   26.6421 C.ar    1  UNL1        0.0000
      5 C         -28.0677    1.4872   25.5121 C.ar    1  UNL1        0.0000
      6 C         -27.9701   -1.5888   30.1391 C.ar    1  UNL1        0.0422
      7 C         -29.0579   -2.4478   30.5451 C.2     1  UNL1        0.2342
      8 C         -26.8947    2.1862   25.1295 C.ar    1  UNL1        0.0000
      9 C         -25.7754    2.1845   25.9175 C.ar    1  UNL1        0.0000
     10 C         -25.7791    1.4305   27.0777 C.ar    1  UNL1        0.0000
     11 C         -26.6889   -1.6096   30.8082 C.ar    1  UNL1        0.0033
     12 C         -25.5913   -1.0115   30.4217 C.ar    1  UNL1        0.0001
     13 C         -25.6956   -0.2182   29.3350 C.ar    1  UNL1        0.0000
     14 O         -29.7704   -2.7607   29.8908 O.2     1  UNL1       -0.2831
@<TRIPOS>BOND
     1     2     3    1
     2     7    14    2
     3     7     6    1
     4     1     2   ar
     5     2    13   ar
     6    13    12   ar
     7    12    11   ar
     8    11     6   ar
     9     6     1   ar
    10     3     4   ar
    11     4     5   ar
    12     5     8   ar
    13     8     9   ar
    14     9    10   ar
    15    10     3   ar
