@<TRIPOS>MOLECULE
No_4954-gen_results/8p0m/2024-11-26-14-13-15/
 31 34 0 0 0
SMALL
GASTEIGER

@<TRIPOS>ATOM
      1 C         -28.0162   -0.8135   28.8779 C.ar    1  UNL1        0.0045
      2 C         -27.0636   -0.1189   28.6079 C.ar    1  UNL1        0.0001
      3 C         -26.9716    0.7139   27.5060 C.ar    1  UNL1       -0.0000
      4 C         -25.8205    1.4909   27.1160 C.ar    1  UNL1       -0.0001
      5 C         -24.6562    1.4242   27.9180 C.ar    1  UNL1        0.0039
      6 C         -24.7114    0.5419   29.0507 C.ar    1  UNL1        0.0714
      7 C         -25.8042   -0.2058   29.3881 C.ar    1  UNL1        0.0039
      8 C         -28.0309   -1.5903   30.1490 C.ar    1  UNL1        0.0536
      9 C         -26.8104   -1.7964   30.8511 C.ar    1  UNL1        0.0045
     10 C         -25.6958   -1.0684   30.5035 C.ar    1  UNL1        0.0001
     11 C         -28.0906    0.8797   26.5377 C.ar    1  UNL1       -0.0000
     12 C         -29.2470    0.9364   26.8550 C.ar    1  UNL1       -0.0000
     13 C         -30.3083    0.9865   25.9581 C.ar    1  UNL1        0.0000
     14 C         -27.8659    0.4882   25.1882 C.ar    1  UNL1       -0.0000
     15 C         -28.7476    0.4743   24.2472 C.ar    1  UNL1        0.0000
     16 C         -30.0241    0.7446   24.6048 C.ar    1  UNL1        0.0000
     17 C         -23.3822    0.4718   29.8141 C.3     1  UNL1        0.4186
     18 F         -23.5021    1.0201   30.9548 F       1  UNL1       -0.1659
     19 F         -22.3638    1.0876   29.1788 F       1  UNL1       -0.1659
     20 F         -23.0219   -0.8079   29.9194 F       1  UNL1       -0.1659
     21 C         -29.2085   -2.4089   30.4906 C.2     1  UNL1        0.2493
     22 O         -30.2910   -1.9875   30.3869 O.2     1  UNL1       -0.2699
     23 N         -28.9999   -3.8118   30.6345 N.am    1  UNL1       -0.2702
     24 C         -27.7771   -4.4468   30.6203 C.3     1  UNL1        0.1155
     25 C         -30.1725   -4.6013   30.3721 C.3     1  UNL1        0.1205
     26 C         -30.6050   -5.3153   31.3031 C.ar    1  UNL1       -0.0023
     27 C         -30.0403   -5.1624   32.6219 C.ar    1  UNL1       -0.0026
     28 C         -30.4276   -6.1277   33.6686 C.ar    1  UNL1       -0.0003
     29 C         -31.4198   -7.0078   33.3464 C.ar    1  UNL1       -0.0000
     30 C         -31.9604   -7.1516   32.0862 C.ar    1  UNL1       -0.0003
     31 C         -31.5130   -6.3307   31.0588 C.ar    1  UNL1       -0.0026
@<TRIPOS>BOND
     1     3    11    1
     2     6    17    1
     3    17    18    1
     4    17    19    1
     5    17    20    1
     6     8    21    1
     7    21    22    2
     8    21    23   am
     9    23    24    1
    10    23    25    1
    11    25    26    1
    12    26    27   ar
    13    27    28   ar
    14    28    29   ar
    15    29    30   ar
    16    30    31   ar
    17    31    26   ar
    18     2     3   ar
    19     3     4   ar
    20     4     5   ar
    21     5     6   ar
    22     6     7   ar
    23     1     2   ar
    24     2     7   ar
    25     7    10   ar
    26    10     9   ar
    27     9     8   ar
    28     8     1   ar
    29    11    12   ar
    30    12    13   ar
    31    13    16   ar
    32    16    15   ar
    33    15    14   ar
    34    14    11   ar
