@<TRIPOS>MOLECULE
No_4955-gen_results/8p0m/2024-11-26-14-13-15/
 19 20 0 0 0
SMALL
GASTEIGER

@<TRIPOS>ATOM
      1 C         -28.0162   -0.8135   28.8779 C.ar    1  UNL1        0.0293
      2 C         -27.0636   -0.1189   28.6079 C.ar    1  UNL1        0.0289
      3 C         -25.7647   -0.3897   29.0360 C.ar    1  UNL1        0.1380
      4 C         -25.5296   -1.5302   29.9014 C.ar    1  UNL1        0.0317
      5 C         -26.6888   -2.2893   30.1810 C.ar    1  UNL1        0.0319
      6 C         -27.8727   -1.9508   29.7373 C.ar    1  UNL1        0.1400
      7 F         -24.6993    0.3604   28.7753 F       1  UNL1       -0.2044
      8 F         -28.9352   -2.7184   30.0509 F       1  UNL1       -0.2042
      9 C         -27.1383    1.1380   27.7288 C.3     1  UNL1        0.1360
     10 N         -26.7310    1.1507   26.5238 N.3     1  UNL1       -0.2495
     11 C         -26.8626    0.3995   25.8081 C.3     1  UNL1        0.1643
     12 N         -26.2367    0.4644   24.5277 N.3     1  UNL1       -0.1994
     13 C         -25.6803    2.0051   25.9793 C.3     1  UNL1        0.0769
     14 C         -25.0650    3.1397   26.6160 C.3     1  UNL1        0.0189
     15 C         -25.3912    1.4822   24.7172 C.3     1  UNL1        0.1062
     16 P         -28.1427    2.4184   28.3417 P.3     1  UNL1        0.1359
     17 O         -28.1143    2.4438   29.6618 O.3     1  UNL1       -0.3560
     18 O         -27.4686    3.5948   27.8083 O.2     1  UNL1       -0.4584
     19 O         -29.4320    2.2300   27.6755 O.3     1  UNL1       -0.3560
@<TRIPOS>BOND
     1     3     7    1
     2     6     8    1
     3     2     9    1
     4     9    10    1
     5    10    11    1
     6    11    12    1
     7    10    13    1
     8    13    14    1
     9    12    15    1
    10    13    15    1
    11     9    16    1
    12    16    17    1
    13    16    18    2
    14    16    19    1
    15     1     2   ar
    16     2     3   ar
    17     3     4   ar
    18     4     5   ar
    19     5     6   ar
    20     6     1   ar
