@<TRIPOS>MOLECULE
No_4956-gen_results/8p0m/2024-11-26-14-13-15/
 9 9 0 0 0
SMALL
GASTEIGER

@<TRIPOS>ATOM
      1 C         -28.0162   -0.8135   28.8779 C.ar    1  UNL1        0.0013
      2 C         -27.0636   -0.1189   28.6079 C.ar    1  UNL1        0.0001
      3 C         -27.0010    0.6913   27.4910 C.ar    1  UNL1        0.0013
      4 C         -28.1373    0.7363   26.6350 C.ar    1  UNL1        0.0161
      5 C         -29.2360    0.0765   27.0690 C.ar    1  UNL1        0.0653
      6 C         -29.2177   -0.6429   28.1747 C.ar    1  UNL1        0.0161
      7 N         -30.3516    0.1564   26.2430 N.pl3   1  UNL1       -0.2376
      8 C         -30.2688    0.1234   24.9366 C.3     1  UNL1        0.1123
      9 C         -29.2051    0.9027   24.3928 C.3     1  UNL1        0.0251
@<TRIPOS>BOND
     1     5     7    1
     2     7     8    1
     3     8     9    1
     4     1     2   ar
     5     2     3   ar
     6     3     4   ar
     7     4     5   ar
     8     5     6   ar
     9     6     1   ar
