@<TRIPOS>MOLECULE
No_4957-gen_results/8p0m/2024-11-26-14-13-15/
 14 15 0 0 0
SMALL
GASTEIGER

@<TRIPOS>ATOM
      1 C         -28.0162   -0.8135   28.8779 C.ar    1  UNL1        0.0028
      2 C         -28.4690   -0.7850   29.8287 C.ar    1  UNL1        0.0343
      3 C         -26.5042   -0.7777   28.8766 C.ar    1  UNL1       -0.0173
      4 C         -25.6540   -0.6597   27.7191 C.3     1  UNL1        0.0526
      5 C         -27.9180   -0.9374   31.1824 C.ar    1  UNL1        0.0067
      6 C         -26.5423   -0.9399   31.2606 C.ar    1  UNL1        0.0002
      7 C         -25.7832   -0.8935   30.1201 C.ar    1  UNL1       -0.0039
      8 C         -25.2204    0.6866   27.3939 C.ar    1  UNL1       -0.0178
      9 C         -25.9002    1.6430   27.3541 C.ar    1  UNL1       -0.0039
     10 C         -25.3143    2.9594   27.0319 C.ar    1  UNL1       -0.0003
     11 C         -23.9540    3.0887   26.6884 C.ar    1  UNL1       -0.0000
     12 C         -23.7539    0.8227   27.1399 C.ar    1  UNL1       -0.0039
     13 C         -23.1847    2.0062   26.8449 C.ar    1  UNL1       -0.0003
     14 BR        -30.4481   -0.8120   29.8398 Br      1  UNL1       -0.0490
@<TRIPOS>BOND
     1     3     4    1
     2     4     8    1
     3     2    14    1
     4     1     2   ar
     5     2     5   ar
     6     5     6   ar
     7     6     7   ar
     8     7     3   ar
     9     3     1   ar
    10     8     9   ar
    11     9    10   ar
    12    10    11   ar
    13    11    13   ar
    14    13    12   ar
    15    12     8   ar
