@<TRIPOS>MOLECULE
No_4958-gen_results/8p0m/2024-11-26-14-13-15/
 35 36 0 0 0
SMALL
GASTEIGER

@<TRIPOS>ATOM
      1 C         -28.0162   -0.8135   28.8779 C.3     1  UNL1        0.3439
      2 C         -27.0636   -0.1190   28.6079 C.ar    1  UNL1        0.0775
      3 C         -26.9716    0.7139   27.5060 C.ar    1  UNL1        0.1406
      4 C         -25.8205    1.4909   27.1160 C.ar    1  UNL1        0.0413
      5 C         -24.6562    1.4242   27.9180 C.ar    1  UNL1        0.0580
      6 C         -24.7114    0.5419   29.0507 C.ar    1  UNL1        0.0046
      7 C         -25.8042   -0.2058   29.3881 C.ar    1  UNL1        0.0043
      8 F         -27.8742   -1.9903   29.2637 F       1  UNL1       -0.1931
      9 F         -29.1952   -0.4442   28.7262 F       1  UNL1       -0.1931
     10 C         -23.4718    2.1654   27.6310 C.2     1  UNL1        0.2649
     11 N         -22.4198    1.6768   27.3292 N.am    1  UNL1       -0.2017
     12 O         -23.6615    3.4378   27.4384 O.2     1  UNL1       -0.2684
     13 C         -21.8488    0.4912   27.9142 C.3     1  UNL1        0.1155
     14 C         -21.1351    0.7722   29.2291 C.3     1  UNL1        0.0253
     15 O         -27.9908    0.8176   26.6685 O.3     1  UNL1       -0.4657
     16 C         -27.8475    0.4401   25.3628 C.3     1  UNL1        0.2916
     17 C         -29.0810    0.0628   24.7788 C.2     1  UNL1        0.2926
     18 O         -29.1050   -0.7918   23.9468 O.2     1  UNL1       -0.2688
     19 N         -30.1660    0.8076   24.8883 N.am    1  UNL1       -0.1378
     20 C         -31.4309    0.5629   24.3218 C.2     1  UNL1        0.2714
     21 C         -32.0847    1.5011   23.7974 C.ar    1  UNL1        0.0554
     22 C         -31.6198    2.6582   23.6869 C.ar    1  UNL1        0.0043
     23 C         -32.3010    3.8347   23.1268 C.ar    1  UNL1       -0.0024
     24 C         -33.3638    3.7635   22.8566 C.ar    1  UNL1       -0.0007
     25 C         -34.1162    2.5195   22.8026 C.ar    1  UNL1       -0.0024
     26 C         -33.4606    1.4027   23.2917 C.ar    1  UNL1        0.0043
     27 O         -31.8181   -0.6663   24.3493 O.2     1  UNL1       -0.2679
     28 C         -34.1840    4.9544   22.2911 C.3     1  UNL1        0.1386
     29 N         -34.3818    5.9399   23.0989 N.pl3   1  UNL1       -0.2315
     30 C         -34.3977    5.8189   24.4011 C.2     1  UNL1        0.0805
     31 C         -34.8274    4.9531   25.0803 C.2     1  UNL1        0.0174
     32 C         -35.7961    4.0827   24.7065 C.2     1  UNL1        0.0014
     33 C         -36.3619    3.1613   25.6404 C.2     1  UNL1        0.0000
     34 C         -37.3354    2.2467   25.2579 C.2     1  UNL1        0.0000
     35 C         -37.7795    2.3026   23.9293 C.2     1  UNL1        0.0000
@<TRIPOS>BOND
     1     1     8    1
     2     1     9    1
     3     5    10    1
     4    10    11   am
     5    10    12    2
     6    11    13    1
     7    13    14    1
     8     3    15    1
     9    15    16    1
    10    16    17    1
    11    17    18    2
    12    17    19   am
    13    19    20   am
    14    20    21    1
    15    20    27    2
    16    24    28    1
    17    28    29    1
    18    29    30    1
    19    30    31    2
    20    31    32    1
    21    32    33    2
    22    33    34    1
    23    34    35    2
    24     1     2    1
    25     2     3   ar
    26     3     4   ar
    27     4     5   ar
    28     5     6   ar
    29     6     7   ar
    30     7     2   ar
    31    21    22   ar
    32    22    23   ar
    33    23    24   ar
    34    24    25   ar
    35    25    26   ar
    36    26    21   ar
