@<TRIPOS>MOLECULE
No_4959-gen_results/8p0m/2024-11-26-14-13-15/
 25 28 0 0 0
SMALL
GASTEIGER

@<TRIPOS>ATOM
      1 C         -28.0162   -0.8135   28.8779 C.ar    1  UNL1        0.0796
      2 C         -27.0636   -0.1190   28.6079 C.ar    1  UNL1        0.0023
      3 C         -26.9716    0.7139   27.5060 C.ar    1  UNL1       -0.0220
      4 C         -28.1053    0.7744   26.6421 C.ar    1  UNL1       -0.0201
      5 C         -29.2008    0.1044   27.0527 C.ar    1  UNL1        0.0496
      6 C         -28.0219   -1.5899   30.0879 C.2     1  UNL1        0.3877
      7 C         -29.1640   -0.6394   28.1484 C.ar    1  UNL1        0.0108
      8 O         -28.8451   -1.9567   30.6618 O.co2   1  UNL1       -0.2406
      9 O         -26.7801   -1.7818   30.6624 O.co2   1  UNL1       -0.2406
     10 C         -30.3711    0.2054   26.1626 C.2     1  UNL1        0.2488
     11 N         -30.3507    0.4176   24.9534 N.am    1  UNL1       -0.2740
     12 O         -31.5120   -0.1194   26.6968 O.2     1  UNL1       -0.2699
     13 C         -29.1094    0.7951   24.2137 C.3     1  UNL1        0.0980
     14 C         -28.2870    1.0533   24.8529 C.3     1  UNL1        0.0420
     15 C         -26.8213    1.5745   24.5684 C.3     1  UNL1        0.0067
     16 C         -31.5395    0.3660   24.0480 C.3     1  UNL1        0.1152
     17 C         -25.7163    1.6259   25.4248 C.3     1  UNL1        0.0091
     18 C         -25.7492    1.3075   26.8235 C.3     1  UNL1        0.0451
     19 C         -24.5449    1.4313   27.6680 C.ar    1  UNL1       -0.0079
     20 C         -23.8042    0.3895   27.9359 C.ar    1  UNL1       -0.0031
     21 C         -22.5132    0.6224   28.6092 C.ar    1  UNL1       -0.0003
     22 C         -24.0961    2.7450   27.9149 C.ar    1  UNL1        0.0540
     23 C         -22.8419    2.9312   28.5980 C.ar    1  UNL1        0.0111
     24 C         -22.1383    1.8168   28.9275 C.ar    1  UNL1        0.0008
     25 CL        -25.0104    4.1592   27.5641 Cl      1  UNL1       -0.0826
@<TRIPOS>BOND
     1     1     6    1
     2     6     8   ar
     3     6     9   ar
     4     5    10    1
     5    10    11   am
     6    10    12    2
     7    11    13    1
     8     4    14    1
     9    14    15    1
    10    11    16    1
    11    15    17    1
    12     3    18    1
    13    17    18    1
    14    18    19    1
    15    22    25    1
    16    14    13    1
    17    19    20   ar
    18    20    21   ar
    19    21    24   ar
    20    24    23   ar
    21    23    22   ar
    22    22    19   ar
    23     1     2   ar
    24     2     3   ar
    25     3     4   ar
    26     4     5   ar
    27     5     7   ar
    28     7     1   ar
