@<TRIPOS>MOLECULE
No_496-gen_results/8p0m/2024-11-26-14-13-15/
 14 14 0 0 0
SMALL
GASTEIGER

@<TRIPOS>ATOM
      1 C         -28.0162   -0.8135   28.8779 C.3     1  UNL1        0.0309
      2 C         -28.4690   -0.7850   29.8287 C.2     1  UNL1       -0.0303
      3 C         -27.0871    0.2903   28.6377 C.3     1  UNL1        0.0372
      4 C         -26.0238    0.3644   29.2526 C.3     1  UNL1        0.0700
      5 C         -26.2460    0.4334   30.7986 C.3     1  UNL1        0.1103
      6 C         -28.1805   -0.0692   30.9083 C.2     1  UNL1       -0.0304
      7 C         -26.8312    0.1207   31.9725 C.3     1  UNL1        0.0350
      8 C         -24.8947    1.0131   31.3411 C.3     1  UNL1        0.3986
      9 F         -24.9139    1.2073   32.4492 F       1  UNL1       -0.1700
     10 F         -23.7949    0.2415   30.9626 F       1  UNL1       -0.1700
     11 F         -24.6910    2.2612   30.6526 F       1  UNL1       -0.1700
     12 BR        -25.9944    0.3161   29.7121 Br      1  UNL1       -0.0810
     13 C         -27.3570    0.8774   27.2563 C.2     1  UNL1       -0.0253
     14 C         -28.5457    1.2666   26.8407 C.2     1  UNL1       -0.0049
@<TRIPOS>BOND
     1     1     2    1
     2     1     3    1
     3     3     4    1
     4     4     5    1
     5     2     6    2
     6     5     7    1
     7     6     7    1
     8     5     8    1
     9     8     9    1
    10     8    10    1
    11     8    11    1
    12     4    12    1
    13     3    13    1
    14    13    14    2
