@<TRIPOS>MOLECULE
No_4960-gen_results/8p0m/2024-11-26-14-13-15/
 22 23 0 0 0
SMALL
GASTEIGER

@<TRIPOS>ATOM
      1 C         -28.0162   -0.8135   28.8779 C.ar    1  UNL1        0.0369
      2 C         -27.0636   -0.1190   28.6079 C.ar    1  UNL1        0.0031
      3 C         -25.7923   -0.4302   29.0761 C.ar    1  UNL1        0.0003
      4 C         -24.5456    0.3494   28.8225 C.ar    1  UNL1        0.0032
      5 C         -23.2409    0.0217   29.3323 C.ar    1  UNL1        0.0002
      6 C         -27.8820   -1.8995   29.8633 C.ar    1  UNL1        0.1386
      7 C         -26.6526   -2.3142   30.3138 C.ar    1  UNL1        0.0369
      8 C         -25.5153   -1.5607   29.9787 C.ar    1  UNL1        0.0031
      9 C         -22.1645    0.7936   28.9524 C.ar    1  UNL1        0.0033
     10 C         -22.1241    1.7484   27.9889 C.ar    1  UNL1        0.0420
     11 C         -24.3434    1.1968   27.6433 C.ar    1  UNL1        0.0420
     12 C         -23.2700    1.9328   27.3447 C.ar    1  UNL1        0.1957
     13 O         -28.9623   -2.6534   30.2417 O.3     1  UNL1       -0.4751
     14 O         -23.3698    2.8313   26.3311 O.3     1  UNL1       -0.2866
     15 C         -28.8372   -3.9341   30.6823 C.3     1  UNL1        0.2101
     16 C         -29.8921   -4.2472   31.6522 C.3     1  UNL1        0.0733
     17 C         -30.3627   -3.3408   32.3192 C.2     1  UNL1       -0.0223
     18 C         -29.7370   -2.3220   32.7039 C.2     1  UNL1       -0.0045
     19 C         -30.2801   -1.2626   33.4898 C.2     1  UNL1       -0.0003
     20 C         -29.4127   -0.3392   34.1015 C.2     1  UNL1       -0.0000
     21 C         -28.0276   -0.2010   33.7252 C.2     1  UNL1       -0.0000
     22 C         -27.5261   -1.2550   32.9161 C.2     1  UNL1       -0.0000
@<TRIPOS>BOND
     1     3     4    1
     2     6    13    1
     3    12    14    1
     4    13    15    1
     5    15    16    1
     6    16    17    1
     7    17    18    2
     8    18    19    1
     9    19    20    2
    10    20    21    1
    11    21    22    2
    12     1     2   ar
    13     2     3   ar
    14     3     8   ar
    15     8     7   ar
    16     7     6   ar
    17     6     1   ar
    18     4     5   ar
    19     5     9   ar
    20     9    10   ar
    21    10    12   ar
    22    12    11   ar
    23    11     4   ar
