@<TRIPOS>MOLECULE
No_4961-gen_results/8p0m/2024-11-26-14-13-15/
 21 24 0 0 0
SMALL
GASTEIGER

@<TRIPOS>ATOM
      1 C         -28.0162   -0.8135   28.8779 C.ar    1  UNL1        0.0058
      2 C         -28.4690   -0.7850   29.8287 C.ar    1  UNL1        0.0002
      3 C         -27.0871    0.2903   28.6377 C.ar    1  UNL1        0.0690
      4 C         -26.2516    0.4114   27.4223 C.2     1  UNL1        0.2702
      5 C         -28.3913    0.1041   30.9805 C.ar    1  UNL1        0.0013
      6 C         -27.5332    1.1666   30.7866 C.ar    1  UNL1        0.0150
      7 C         -26.8281    1.2557   29.6454 C.ar    1  UNL1        0.0565
      8 N         -25.1894    0.4694   27.3614 N.am    1  UNL1       -0.1741
      9 O         -26.9287    0.0634   26.2698 O.2     1  UNL1       -0.2680
     10 C         -24.2450    0.7371   28.5158 C.ar    1  UNL1        0.0872
     11 C         -23.3049   -0.3885   28.6751 C.ar    1  UNL1        0.0179
     12 C         -22.9089   -0.5551   29.8309 C.ar    1  UNL1        0.0014
     13 C         -22.9279    0.4291   30.9283 C.ar    1  UNL1        0.0014
     14 C         -23.8050    1.5123   30.6708 C.ar    1  UNL1        0.0162
     15 C         -24.5390    1.5753   29.4738 C.ar    1  UNL1        0.0676
     16 N         -25.9213    1.4533   29.9806 N.pl3   1  UNL1       -0.2796
     17 C         -25.9391    2.8249   30.9931 C.3     1  UNL1        0.1217
     18 C         -25.4663    3.8595   30.6599 C.2     1  UNL1       -0.0020
     19 C         -25.5555    4.9821   31.4395 C.2     1  UNL1       -0.0029
     20 C         -26.0442    4.8281   32.7675 C.2     1  UNL1       -0.0029
     21 C         -26.4151    3.0036   32.3538 C.2     1  UNL1       -0.0020
@<TRIPOS>BOND
     1     3     4    1
     2     4     8   am
     3     4     9    2
     4     8    10    1
     5     7    16    1
     6    15    16    1
     7    16    17    1
     8    17    18    1
     9    18    19    2
    10    19    20    1
    11    17    21    1
    12    20    21    2
    13     1     2   ar
    14     2     5   ar
    15     5     6   ar
    16     6     7   ar
    17     7     3   ar
    18     3     1   ar
    19    10    11   ar
    20    11    12   ar
    21    12    13   ar
    22    13    14   ar
    23    14    15   ar
    24    15    10   ar
