@<TRIPOS>MOLECULE
No_4962-gen_results/8p0m/2024-11-26-14-13-15/
 17 18 0 0 0
SMALL
GASTEIGER

@<TRIPOS>ATOM
      1 C         -28.0162   -0.8135   28.8779 C.ar    1  UNL1       -0.0001
      2 C         -27.0636   -0.1190   28.6079 C.ar    1  UNL1       -0.0000
      3 C         -26.9716    0.7139   27.5060 C.ar    1  UNL1        0.0001
      4 C         -28.1053    0.7744   26.6421 C.ar    1  UNL1        0.0039
      5 C         -29.2041    0.1179   27.0477 C.ar    1  UNL1        0.0714
      6 C         -29.2127   -0.6088   28.1281 C.ar    1  UNL1        0.0039
      7 C         -25.7106    1.4518   27.1380 C.ar    1  UNL1        0.0032
      8 C         -25.3772    2.0455   26.1738 C.ar    1  UNL1        0.0002
      9 C         -24.0750    2.7193   25.9782 C.ar    1  UNL1        0.0033
     10 C         -23.0770    2.4988   26.9483 C.ar    1  UNL1        0.0420
     11 C         -23.3638    1.6220   28.0103 C.ar    1  UNL1        0.1957
     12 C         -24.6236    1.0878   28.1748 C.ar    1  UNL1        0.0420
     13 C         -30.4028    0.2680   26.1859 C.3     1  UNL1        0.4186
     14 F         -31.0341    1.3243   26.4722 F       1  UNL1       -0.1659
     15 F         -30.1088    0.2376   24.8946 F       1  UNL1       -0.1659
     16 F         -31.2316   -0.7862   26.2880 F       1  UNL1       -0.1659
     17 O         -22.3416    1.4435   28.8874 O.3     1  UNL1       -0.2866
@<TRIPOS>BOND
     1     3     7    1
     2     5    13    1
     3    13    14    1
     4    13    15    1
     5    13    16    1
     6    11    17    1
     7     1     2   ar
     8     2     3   ar
     9     3     4   ar
    10     4     5   ar
    11     5     6   ar
    12     6     1   ar
    13     7     8   ar
    14     8     9   ar
    15     9    10   ar
    16    10    11   ar
    17    11    12   ar
    18    12     7   ar
