@<TRIPOS>MOLECULE
No_4963-gen_results/8p0m/2024-11-26-14-13-15/
 33 35 0 0 0
SMALL
GASTEIGER

@<TRIPOS>ATOM
      1 C         -28.0162   -0.8135   28.8779 C.ar    1  UNL1        0.0746
      2 C         -27.0636   -0.1190   28.6079 C.ar    1  UNL1        0.1518
      3 C         -25.7647   -0.3897   29.0360 C.ar    1  UNL1        0.0350
      4 C         -25.5296   -1.5302   29.9014 C.ar    1  UNL1        0.0061
      5 C         -26.6888   -2.2893   30.1810 C.ar    1  UNL1        0.0373
      6 C         -27.8727   -1.9508   29.7373 C.ar    1  UNL1        0.1473
      7 C         -24.5491    0.4100   28.7341 C.ar    1  UNL1        0.0060
      8 C         -24.4789    1.1871   27.6843 C.ar    1  UNL1        0.0370
      9 C         -23.2716    1.8973   27.3731 C.ar    1  UNL1        0.1387
     10 C         -22.1063    1.7032   28.0412 C.ar    1  UNL1        0.0369
     11 C         -23.3188    0.1792   29.4669 C.ar    1  UNL1        0.0003
     12 C         -22.1165    0.8402   29.1011 C.ar    1  UNL1        0.0031
     13 O         -28.9582   -2.7065   30.1017 O.3     1  UNL1       -0.4242
     14 C         -30.0727   -2.1325   30.5809 C.3     1  UNL1        0.4999
     15 C         -30.5134   -2.8394   31.7130 C.3     1  UNL1        0.4968
     16 F         -31.5172   -2.4028   32.1720 F       1  UNL1       -0.1619
     17 F         -29.5641   -2.7424   32.6830 F       1  UNL1       -0.1619
     18 F         -30.6388   -4.1472   31.4666 F       1  UNL1       -0.1619
     19 F         -29.8123   -0.8822   30.8381 F       1  UNL1       -0.1557
     20 F         -30.9744   -2.1573   29.5769 F       1  UNL1       -0.1557
     21 O         -23.3215    2.7688   26.3062 O.3     1  UNL1       -0.4714
     22 C         -24.5856    3.2719   25.9682 C.3     1  UNL1        0.2525
     23 O         -27.1725    0.9758   27.7830 O.3     1  UNL1       -0.4178
     24 C         -27.9244    0.8388   26.6336 C.2     1  UNL1        0.4002
     25 C         -29.1294    1.4476   26.6916 C.2     1  UNL1        0.3255
     26 O         -29.4942    2.0441   27.6321 O.2     1  UNL1       -0.2628
     27 N         -30.1048    0.8852   25.8579 N.am    1  UNL1       -0.2708
     28 C         -31.5106    1.2288   25.9285 C.3     1  UNL1        0.0939
     29 O         -27.3194    0.4043   25.6263 O.2     1  UNL1       -0.2393
     30 C         -32.2719    0.4590   25.2676 C.3     1  UNL1        0.0216
     31 C         -31.7849   -0.5299   24.4375 C.3     1  UNL1        0.0035
     32 C         -30.4016   -0.8581   24.3899 C.3     1  UNL1        0.0216
     33 C         -29.5666   -0.1459   25.1826 C.3     1  UNL1        0.0939
@<TRIPOS>BOND
     1     3     7    1
     2     6    13    1
     3    13    14    1
     4    14    15    1
     5    15    16    1
     6    15    17    1
     7    15    18    1
     8    14    19    1
     9    14    20    1
    10     9    21    1
    11    21    22    1
    12     2    23    1
    13    23    24    1
    14    24    25    1
    15    25    26    2
    16    25    27   am
    17    27    28    1
    18    24    29    2
    19    30    31    1
    20    31    32    1
    21    27    33    1
    22    32    33    1
    23    28    30    1
    24     7     8   ar
    25     8     9   ar
    26     9    10   ar
    27    10    12   ar
    28    12    11   ar
    29    11     7   ar
    30     1     2   ar
    31     2     3   ar
    32     3     4   ar
    33     4     5   ar
    34     5     6   ar
    35     6     1   ar
