@<TRIPOS>MOLECULE
No_4964-gen_results/8p0m/2024-11-26-14-13-15/
 26 28 0 0 0
SMALL
GASTEIGER

@<TRIPOS>ATOM
      1 C         -28.0162   -0.8135   28.8779 C.ar    1  UNL1       -0.0043
      2 C         -28.4690   -0.7850   29.8287 C.ar    1  UNL1       -0.0003
      3 C         -26.5042   -0.7777   28.8766 C.ar    1  UNL1       -0.0219
      4 C         -25.9150   -0.6580   29.9230 C.ar    1  UNL1       -0.0040
      5 C         -27.9691   -0.7243   31.2047 C.ar    1  UNL1       -0.0000
      6 C         -26.5847   -0.6393   31.2062 C.ar    1  UNL1       -0.0003
      7 C         -24.4026   -0.5847   30.0419 C.2     1  UNL1       -0.0003
      8 C         -23.7439   -1.3708   30.5510 C.2     1  UNL1       -0.0000
      9 C         -23.8173    0.7718   30.0026 C.ar    1  UNL1       -0.0000
     10 C         -22.9511    1.1072   29.4723 C.ar    1  UNL1       -0.0000
     11 C         -22.5999    2.4632   29.0603 C.ar    1  UNL1       -0.0000
     12 C         -24.6804    1.9156   30.6262 C.ar    1  UNL1       -0.0000
     13 C         -24.4662    3.2143   30.3597 C.ar    1  UNL1       -0.0000
     14 C         -23.3572    3.4802   29.5703 C.ar    1  UNL1        0.0000
     15 C         -25.7728   -0.7104   27.5573 C.3     1  UNL1        0.0307
     16 C         -26.1697    0.2475   26.5140 C.3     1  UNL1        0.0267
     17 C         -25.4859    0.3001   25.3760 C.3     1  UNL1        0.0050
     18 C         -26.3776    1.6295   26.9860 C.ar    1  UNL1       -0.0222
     19 C         -26.5559    2.6895   26.1266 C.ar    1  UNL1       -0.0043
     20 C         -26.6497    3.9742   26.7166 C.ar    1  UNL1       -0.0003
     21 C         -27.0818    4.2085   27.9339 C.ar    1  UNL1       -0.0000
     22 C         -27.2443    3.0510   28.8118 C.ar    1  UNL1       -0.0006
     23 C         -26.9285    1.8187   28.3675 C.ar    1  UNL1       -0.0043
     24 C         -27.7557    3.3484   30.1854 C.2     1  UNL1       -0.0046
     25 C         -28.4883    2.3075   30.8128 C.2     1  UNL1       -0.0258
     26 C         -29.1872    2.7304   31.8594 C.3     1  UNL1        0.0307
@<TRIPOS>BOND
     1     4     7    1
     2     7     8    2
     3     7     9    1
     4     3    15    1
     5    15    16    1
     6    16    17    1
     7    16    18    1
     8    22    24    1
     9    24    25    2
    10    25    26    1
    11    18    19   ar
    12    19    20   ar
    13    20    21   ar
    14    21    22   ar
    15    22    23   ar
    16    23    18   ar
    17     9    10   ar
    18    10    11   ar
    19    11    14   ar
    20    14    13   ar
    21    13    12   ar
    22    12     9   ar
    23     1     2   ar
    24     2     5   ar
    25     5     6   ar
    26     6     4   ar
    27     4     3   ar
    28     3     1   ar
