@<TRIPOS>MOLECULE
No_4966-gen_results/8p0m/2024-11-26-14-13-15/
 35 38 0 0 0
SMALL
GASTEIGER

@<TRIPOS>ATOM
      1 C         -28.0162   -0.8135   28.8779 C.ar    1  UNL1        0.0483
      2 C         -28.4690   -0.7850   29.8287 C.ar    1  UNL1        0.0829
      3 C         -26.5455   -0.8762   28.8500 C.ar    1  UNL1        0.1922
      4 C         -25.8041   -1.0324   30.0571 C.ar    1  UNL1        0.0208
      5 C         -27.9437   -0.9869   31.2075 C.ar    1  UNL1        0.0065
      6 C         -26.5825   -1.0386   31.2231 C.ar    1  UNL1       -0.0006
      7 C         -24.3810   -1.1082   30.0855 C.3     1  UNL1        0.0512
      8 C         -23.7054    0.0955   29.8440 C.2     1  UNL1       -0.0441
      9 C         -22.4285    0.1160   29.2171 C.2     1  UNL1       -0.0343
     10 C         -21.8149    1.2942   28.8765 C.3     1  UNL1        0.0254
     11 C         -24.1974    1.3766   30.2708 C.3     1  UNL1        0.0250
     12 C         -25.4179    1.4203   31.0567 C.3     1  UNL1        0.0257
     13 C         -22.3474    1.9215   27.7574 C.3     1  UNL1        0.0051
     14 C         -25.7347    2.8954   31.4165 C.3     1  UNL1        0.0941
     15 C         -23.7114    2.3925   27.7639 C.3     1  UNL1        0.0097
     16 C         -24.4703    2.0967   29.0278 C.3     1  UNL1        0.0802
     17 C         -25.5624    3.1500   29.1114 C.2     1  UNL1        0.2257
     18 N         -26.2408    3.3473   30.2584 N.am    1  UNL1       -0.2754
     19 C         -27.4644    4.0786   30.2463 C.3     1  UNL1        0.1201
     20 O         -26.1043    3.6041   28.0314 O.2     1  UNL1       -0.2749
     21 C         -23.1433    2.1140   31.2439 C.3     1  UNL1        0.0046
     22 O         -25.8312   -0.7964   27.7140 O.3     1  UNL1       -0.2869
     23 C         -30.0980   -0.6743   29.8582 C.2     1  UNL1        0.3879
     24 O         -30.6186    0.4130   30.4231 O.co2   1  UNL1       -0.2406
     25 O         -30.7206   -1.1892   28.9732 O.co2   1  UNL1       -0.2406
     26 C         -27.5518    5.2524   30.8356 C.ar    1  UNL1       -0.0023
     27 C         -27.8855    6.2533   30.6775 C.ar    1  UNL1       -0.0024
     28 C         -27.8894    7.5080   31.4856 C.ar    1  UNL1       -0.0003
     29 C         -27.3422    7.5114   32.3671 C.ar    1  UNL1       -0.0000
     30 C         -26.6001    6.3909   32.9711 C.ar    1  UNL1       -0.0003
     31 C         -26.6751    5.2027   32.1899 C.ar    1  UNL1       -0.0026
     32 C         -28.7344    6.3954   29.3289 C.2     1  UNL1       -0.0003
     33 C         -29.8612    5.6477   29.2495 C.2     1  UNL1       -0.0000
     34 C         -30.5855    5.6415   28.0522 C.2     1  UNL1       -0.0000
     35 C         -30.0967    6.4627   27.0104 C.2     1  UNL1       -0.0000
@<TRIPOS>BOND
     1     4     7    1
     2     7     8    1
     3     8     9    2
     4     9    10    1
     5     8    11    1
     6    11    12    1
     7    10    13    1
     8    13    15    1
     9    11    16    1
    10    16    17    1
    11    14    18    1
    12    17    18   am
    13    18    19    1
    14    17    20    2
    15    11    21    1
    16     3    22    1
    17     2    23    1
    18    23    24   ar
    19    23    25   ar
    20    19    26    1
    21    27    32    1
    22    32    33    2
    23    33    34    1
    24    34    35    2
    25    15    16    1
    26    14    12    1
    27    26    27   ar
    28    27    28   ar
    29    28    29   ar
    30    29    30   ar
    31    30    31   ar
    32    31    26   ar
    33     1     2   ar
    34     2     5   ar
    35     5     6   ar
    36     6     4   ar
    37     4     3   ar
    38     3     1   ar
