@<TRIPOS>MOLECULE
No_4967-gen_results/8p0m/2024-11-26-14-13-15/
 6 5 0 0 0
SMALL
GASTEIGER

@<TRIPOS>ATOM
      1 CL        -28.1493   -0.8198   28.9079 Cl      1  UNL1       -0.1086
      2 C         -26.9116   -0.0797   28.9452 C.3     1  UNL1        0.1205
      3 C         -25.9665   -0.2123   29.6235 C.2     1  UNL1       -0.0133
      4 C         -24.7620    0.6059   29.6315 C.2     1  UNL1       -0.0294
      5 C         -24.6120    1.2810   28.7235 C.3     1  UNL1        0.0257
      6 C         -23.4044    2.1958   28.5732 C.3     1  UNL1        0.0050
@<TRIPOS>BOND
     1     1     2    1
     2     2     3    1
     3     3     4    2
     4     4     5    1
     5     5     6    1
