@<TRIPOS>MOLECULE
No_4968-gen_results/8p0m/2024-11-26-14-13-15/
 33 35 0 0 0
SMALL
GASTEIGER

@<TRIPOS>ATOM
      1 C         -28.0162   -0.8135   28.8779 C.ar    1  UNL1        0.0070
      2 C         -28.4690   -0.7850   29.8287 C.ar    1  UNL1        0.0581
      3 C         -28.1816    0.4277   28.1134 C.ar    1  UNL1        0.0305
      4 C         -27.4498    0.6435   26.8500 C.ar    1  UNL1        0.1402
      5 C         -27.8596    1.4573   25.9076 C.ar    1  UNL1        0.0296
      6 C         -29.4263    0.1097   30.4178 C.ar    1  UNL1        0.0415
      7 C         -29.6233    1.2198   29.7351 C.ar    1  UNL1        0.1392
      8 C         -28.9609    1.4529   28.5513 C.ar    1  UNL1        0.0362
      9 C         -28.7886    2.5164   26.2663 C.ar    1  UNL1        0.0024
     10 C         -29.2995    2.4792   27.5997 C.ar    1  UNL1        0.0032
     11 F         -26.6190   -0.2886   26.3994 F       1  UNL1       -0.2042
     12 O         -30.5132    2.1704   30.2077 O.3     1  UNL1       -0.4706
     13 C         -30.0383    3.1993   30.8429 C.3     1  UNL1        0.2322
     14 C         -30.6408    4.3978   30.5331 C.ar    1  UNL1        0.0275
     15 C         -31.8224    4.5572   30.0822 C.ar    1  UNL1       -0.0005
     16 C         -32.4163    5.8127   29.6899 C.ar    1  UNL1       -0.0002
     17 C         -31.6118    6.9717   29.9272 C.ar    1  UNL1        0.0002
     18 C         -30.3573    6.9036   30.4121 C.ar    1  UNL1        0.0064
     19 C         -29.8299    5.6506   30.7290 C.ar    1  UNL1        0.0793
     20 C         -28.4668    5.5780   31.2376 C.2     1  UNL1        0.3876
     21 O         -28.0333    4.5120   31.5520 O.co2   1  UNL1       -0.2406
     22 O         -27.7104    6.5929   30.9154 O.co2   1  UNL1       -0.2406
     23 C         -28.2960   -2.1259   30.7900 C.2     1  UNL1        0.2649
     24 O         -27.5941   -3.0230   30.3874 O.2     1  UNL1       -0.2684
     25 N         -28.9691   -2.2372   31.9139 N.am    1  UNL1       -0.2013
     26 C         -29.4329   -3.1766   32.4162 C.3     1  UNL1        0.1201
     27 C         -30.8779   -3.3631   32.3760 C.3     1  UNL1        0.0495
     28 C         -31.6698   -2.3590   32.2328 C.2     1  UNL1       -0.0243
     29 C         -31.5919   -1.3724   33.2009 C.2     1  UNL1       -0.0045
     30 C         -32.4919   -0.1711   32.9510 C.2     1  UNL1       -0.0003
     31 C         -32.4267    0.9487   33.8364 C.2     1  UNL1       -0.0000
     32 C         -31.4604    0.9195   34.8787 C.2     1  UNL1       -0.0000
     33 C         -30.6158   -0.1611   35.0604 C.2     1  UNL1       -0.0000
@<TRIPOS>BOND
     1     4    11    1
     2     7    12    1
     3    12    13    1
     4    19    20    1
     5    20    21   ar
     6    20    22   ar
     7     2    23    1
     8    23    24    2
     9    23    25   am
    10    25    26    1
    11    26    27    1
    12    27    28    1
    13    28    29    2
    14    29    30    1
    15    30    31    2
    16    31    32    1
    17    32    33    2
    18    13    14    1
    19    14    15   ar
    20    15    16   ar
    21    16    17   ar
    22    17    18   ar
    23    18    19   ar
    24    19    14   ar
    25     3     4   ar
    26     4     5   ar
    27     5     9   ar
    28     9    10   ar
    29    10     8   ar
    30     1     2   ar
    31     2     6   ar
    32     6     7   ar
    33     7     8   ar
    34     8     3   ar
    35     3     1   ar
