@<TRIPOS>MOLECULE
No_497-gen_results/8p0m/2024-11-26-14-13-15/
 10 10 0 0 0
SMALL
GASTEIGER

@<TRIPOS>ATOM
      1 O         -28.1229   -1.3353   28.4874 O.2     1  UNL1       -0.2733
      2 C         -27.4806   -0.4044   28.7094 C.2     1  UNL1        0.2420
      3 C         -27.1904    0.2460   29.5268 C.3     1  UNL1        0.0783
      4 N         -26.6021   -0.1576   27.5515 N.am    1  UNL1       -0.1905
      5 C         -25.6421    0.9031   27.5822 C.3     1  UNL1        0.1738
      6 C         -25.5004    1.6142   28.7368 C.3     1  UNL1        0.0389
      7 C         -26.2553    1.3158   29.8133 C.3     1  UNL1        0.0122
      8 CL        -24.7065    1.2076   26.2125 Cl      1  UNL1       -0.0910
      9 C         -28.0731   -0.2140   30.8229 C.3     1  UNL1        0.0091
     10 C         -29.1833   -0.7725   30.6189 C.3     1  UNL1        0.0005
@<TRIPOS>BOND
     1     1     2    2
     2     2     3    1
     3     2     4   am
     4     4     5    1
     5     5     6    1
     6     6     7    1
     7     5     8    1
     8     3     9    1
     9     9    10    1
    10     3     7    1
