@<TRIPOS>MOLECULE
No_4970-gen_results/8p0m/2024-11-26-14-13-15/
 25 27 0 0 0
SMALL
GASTEIGER

@<TRIPOS>ATOM
      1 C         -28.0162   -0.8135   28.8779 C.ar    1  UNL1        0.0293
      2 C         -28.4690   -0.7850   29.8287 C.ar    1  UNL1        0.1401
      3 C         -26.5042   -0.7777   28.8766 C.ar    1  UNL1       -0.0017
      4 C         -25.8103   -0.8531   30.1028 C.ar    1  UNL1       -0.0182
      5 C         -27.9906   -0.8916   31.2257 C.ar    1  UNL1        0.0293
      6 C         -26.6042   -0.8676   31.2652 C.ar    1  UNL1       -0.0017
      7 F         -29.9203   -0.8331   29.8239 F       1  UNL1       -0.2042
      8 C         -24.3796   -0.8022   30.1424 C.3     1  UNL1        0.0461
      9 C         -23.6323   -0.3170   29.1196 C.ar    1  UNL1        0.0007
     10 C         -22.1884   -0.2415   29.2461 C.ar    1  UNL1        0.0949
     11 N         -21.5218    0.3195   28.2388 N.ar    1  UNL1       -0.2426
     12 C         -22.1422    1.1800   27.3870 C.ar    1  UNL1        0.0988
     13 C         -23.5032    1.3129   27.3623 C.ar    1  UNL1        0.0189
     14 C         -24.2578    0.6717   28.2966 C.ar    1  UNL1       -0.0009
     15 C         -24.2530    2.2389   26.5244 C.ar    1  UNL1        0.0014
     16 C         -23.8216    3.2888   26.0460 C.ar    1  UNL1        0.0000
     17 C         -25.4933    1.7173   26.0207 C.ar    1  UNL1        0.0039
     18 C         -26.4476    2.5556   25.5196 C.ar    1  UNL1        0.0714
     19 C         -24.6614    4.3119   25.4897 C.ar    1  UNL1       -0.0001
     20 C         -25.9432    3.8781   25.1397 C.ar    1  UNL1        0.0039
     21 C         -27.7433    2.2142   25.1181 C.3     1  UNL1        0.4186
     22 F         -28.6109    2.3312   25.9899 F       1  UNL1       -0.1659
     23 F         -28.1898    2.9157   24.0590 F       1  UNL1       -0.1659
     24 F         -27.6694    0.9106   24.6995 F       1  UNL1       -0.1659
     25 C         -23.9852   -0.2724   31.5227 C.3     1  UNL1        0.0095
@<TRIPOS>BOND
     1     2     7    1
     2     4     8    1
     3    13    15    1
     4    18    21    1
     5    21    22    1
     6    21    23    1
     7    21    24    1
     8     8    25    1
     9     8     9    1
    10     9    10   ar
    11    10    11   ar
    12    11    12   ar
    13    12    13   ar
    14    13    14   ar
    15    14     9   ar
    16     1     2   ar
    17     2     5   ar
    18     5     6   ar
    19     6     4   ar
    20     4     3   ar
    21     3     1   ar
    22    15    16   ar
    23    16    19   ar
    24    19    20   ar
    25    20    18   ar
    26    18    17   ar
    27    17    15   ar
