@<TRIPOS>MOLECULE
No_4971-gen_results/8p0m/2024-11-26-14-13-15/
 14 15 0 0 0
SMALL
GASTEIGER

@<TRIPOS>ATOM
      1 C         -28.0162   -0.8135   28.8779 C.ar    1  UNL1        0.0045
      2 C         -28.4690   -0.7850   29.8287 C.ar    1  UNL1        0.0536
      3 C         -26.5042   -0.7777   28.8766 C.ar    1  UNL1        0.0001
      4 C         -25.8103   -0.8531   30.1028 C.ar    1  UNL1        0.0000
      5 C         -27.9906   -0.8916   31.2257 C.ar    1  UNL1        0.0045
      6 C         -26.6042   -0.8676   31.2652 C.ar    1  UNL1        0.0001
      7 C         -30.0417   -0.7687   29.6526 C.2     1  UNL1        0.2490
      8 N         -30.5239   -0.1500   28.7686 N.am    1  UNL1       -0.2761
      9 O         -30.7114   -1.7251   30.3179 O.2     1  UNL1       -0.2699
     10 C         -31.9391   -0.2206   28.4040 C.3     1  UNL1        0.0937
     11 C         -32.3814    0.8705   27.9679 C.3     1  UNL1        0.0216
     12 C         -31.5584    1.8943   27.3802 C.3     1  UNL1        0.0035
     13 C         -30.1613    1.8382   27.6131 C.3     1  UNL1        0.0216
     14 C         -29.7375    0.9583   28.3551 C.3     1  UNL1        0.0937
@<TRIPOS>BOND
     1     2     7    1
     2     7     8   am
     3     7     9    2
     4     8    10    1
     5    11    12    1
     6     8    14    1
     7    13    14    1
     8    10    11    1
     9    12    13    1
    10     1     2   ar
    11     2     5   ar
    12     5     6   ar
    13     6     4   ar
    14     4     3   ar
    15     3     1   ar
