@<TRIPOS>MOLECULE
No_4972-gen_results/8p0m/2024-11-26-14-13-15/
 30 32 0 0 0
SMALL
GASTEIGER

@<TRIPOS>ATOM
      1 C         -28.0162   -0.8135   28.8779 C.ar    1  UNL1        0.0360
      2 C         -28.4690   -0.7850   29.8287 C.ar    1  UNL1        0.1406
      3 C         -26.5042   -0.7777   28.8766 C.ar    1  UNL1        0.0328
      4 C         -25.8103   -0.8531   30.1028 C.ar    1  UNL1       -0.0152
      5 C         -27.9906   -0.8916   31.2257 C.ar    1  UNL1        0.0293
      6 C         -26.6042   -0.8676   31.2652 C.ar    1  UNL1       -0.0015
      7 F         -29.9203   -0.8331   29.8239 F       1  UNL1       -0.2042
      8 C         -24.3796   -0.8022   30.1424 C.3     1  UNL1        0.0397
      9 C         -23.8075    0.5641   30.1478 C.3     1  UNL1        0.1218
     10 C         -24.2519    1.6206   30.5267 C.ar    1  UNL1       -0.0116
     11 C         -25.5317    1.6829   31.1507 C.ar    1  UNL1        0.0288
     12 C         -25.9638    3.0639   31.6129 C.ar    1  UNL1        0.1741
     13 C         -25.2504    4.1008   31.1664 C.ar    1  UNL1        0.1726
     14 C         -24.1368    4.0133   30.4138 C.ar    1  UNL1        0.0395
     15 C         -23.5960    2.8090   30.1424 C.ar    1  UNL1       -0.0007
     16 C         -22.4025    0.4295   29.4743 C.3     1  UNL1        0.4015
     17 BR        -25.4838   -0.6433   27.2993 Br      1  UNL1       -0.0493
     18 F         -21.6442   -0.3269   30.0240 F       1  UNL1       -0.1697
     19 F         -22.5746    0.1447   28.1169 F       1  UNL1       -0.1697
     20 F         -21.7042    1.4885   29.4556 F       1  UNL1       -0.1697
     21 F         -27.1008    3.1146   32.2919 F       1  UNL1       -0.2010
     22 O         -25.7604    5.3204   31.5885 O.3     1  UNL1       -0.4481
     23 C         -26.0405    6.2494   31.3382 C.2     1  UNL1        0.1796
     24 C         -26.8769    6.9145   31.3266 C.2     1  UNL1        0.0407
     25 C         -28.1063    6.4860   32.0576 C.ar    1  UNL1        0.0031
     26 C         -28.0939    5.9698   33.0469 C.ar    1  UNL1        0.0001
     27 C         -29.3039    5.5512   33.8780 C.ar    1  UNL1        0.0000
     28 C         -30.5030    5.7399   33.2119 C.ar    1  UNL1        0.0000
     29 C         -30.5568    6.3481   31.9828 C.ar    1  UNL1        0.0000
     30 C         -29.4208    6.7885   31.4084 C.ar    1  UNL1        0.0001
@<TRIPOS>BOND
     1     2     7    1
     2     4     8    1
     3     8     9    1
     4     9    16    1
     5     3    17    1
     6    16    18    1
     7    16    19    1
     8    16    20    1
     9    12    21    1
    10    13    22    1
    11    22    23    1
    12    23    24    2
    13    24    25    1
    14     9    10    1
    15    25    26   ar
    16    26    27   ar
    17    27    28   ar
    18    28    29   ar
    19    29    30   ar
    20    30    25   ar
    21     1     2   ar
    22     2     5   ar
    23     5     6   ar
    24     6     4   ar
    25     4     3   ar
    26     3     1   ar
    27    10    11   ar
    28    11    12   ar
    29    12    13   ar
    30    13    14   ar
    31    14    15   ar
    32    15    10   ar
