@<TRIPOS>MOLECULE
No_4973-gen_results/8p0m/2024-11-26-14-13-15/
 35 39 0 0 0
SMALL
GASTEIGER

@<TRIPOS>ATOM
      1 O         -28.1229   -1.3353   28.4874 O.2     1  UNL1       -0.2730
      2 C         -27.4806   -0.4044   28.7094 C.2     1  UNL1        0.2456
      3 N         -26.4599   -0.1104   28.0051 N.am    1  UNL1       -0.2024
      4 C         -25.8102    0.6598   28.0792 C.3     1  UNL1        0.1178
      5 C         -24.5746    0.9445   27.2765 C.ar    1  UNL1       -0.0026
      6 C         -27.8572    0.7437   29.6813 C.3     1  UNL1        0.1045
      7 C         -24.0884    0.4117   26.3678 C.ar    1  UNL1       -0.0026
      8 C         -27.0383    1.7652   29.8539 C.3     1  UNL1        0.0368
      9 C         -25.8735    1.8747   29.0326 C.3     1  UNL1        0.0313
     10 C         -23.6628    2.1779   27.6702 C.ar    1  UNL1       -0.0026
     11 C         -22.4075    2.3167   26.9244 C.ar    1  UNL1       -0.0003
     12 C         -23.2167    0.7963   25.3832 C.ar    1  UNL1       -0.0003
     13 C         -22.3410    1.8206   25.7491 C.ar    1  UNL1       -0.0000
     14 C         -29.0652    0.4458   30.4910 C.ar    1  UNL1       -0.0135
     15 C         -28.9826   -0.1637   31.5931 C.ar    1  UNL1       -0.0038
     16 C         -30.1639   -0.3730   32.4409 C.ar    1  UNL1       -0.0003
     17 C         -31.3707    0.0297   31.9436 C.ar    1  UNL1       -0.0000
     18 C         -31.4225    0.6656   30.7314 C.ar    1  UNL1       -0.0003
     19 C         -30.2923    0.9210   29.9904 C.ar    1  UNL1       -0.0038
     20 C         -27.3132    2.8290   30.8473 C.ar    1  UNL1       -0.0259
     21 C         -26.5022    2.8441   31.8752 C.ar    1  UNL1       -0.0258
     22 C         -25.2895    2.1872   32.0501 C.3     1  UNL1        0.0307
     23 C         -26.9031    3.8221   32.9856 C.ar    1  UNL1       -0.0046
     24 C         -26.4526    3.7127   34.2019 C.ar    1  UNL1       -0.0003
     25 C         -26.8945    4.7192   35.1363 C.ar    1  UNL1       -0.0000
     26 C         -27.8084    5.6055   34.7920 C.ar    1  UNL1       -0.0000
     27 C         -27.8599    4.8264   32.7016 C.ar    1  UNL1       -0.0043
     28 C         -28.3079    5.6919   33.6021 C.ar    1  UNL1       -0.0003
     29 C         -28.3845    3.6895   30.4718 C.ar    1  UNL1       -0.0088
     30 C         -28.5531    4.6314   31.3835 C.ar    1  UNL1       -0.0222
     31 C         -29.7182    5.6439   31.1014 C.3     1  UNL1        0.0310
     32 C         -29.3296    6.8497   30.6636 C.3     1  UNL1        0.0304
     33 C         -28.3862    7.2231   30.1600 C.2     1  UNL1       -0.0303
     34 C         -28.0141    8.5752   29.8017 C.2     1  UNL1       -0.0303
     35 C         -29.0434    9.4904   29.8796 C.3     1  UNL1        0.0303
@<TRIPOS>BOND
     1     1     2    2
     2     2     3   am
     3     3     4    1
     4     4     5    1
     5     2     6    1
     6     4     9    1
     7     8     9    1
     8     6    14    1
     9     8    20    1
    10    21    22    1
    11    30    31    1
    12    31    32    1
    13    32    33    1
    14    33    34    2
    15    34    35    1
    16     8     6    1
    17    23    24   ar
    18    24    25   ar
    19    25    26   ar
    20    26    28   ar
    21    28    27   ar
    22    20    21   ar
    23    21    23   ar
    24    23    27   ar
    25    27    30   ar
    26    30    29   ar
    27    29    20   ar
    28    14    15   ar
    29    15    16   ar
    30    16    17   ar
    31    17    18   ar
    32    18    19   ar
    33    19    14   ar
    34     5     7   ar
    35     7    12   ar
    36    12    13   ar
    37    13    11   ar
    38    11    10   ar
    39    10     5   ar
