@<TRIPOS>MOLECULE
No_4975-gen_results/8p0m/2024-11-26-14-13-15/
 9 8 0 0 0
SMALL
GASTEIGER

@<TRIPOS>ATOM
      1 P         -27.9505   -0.5786   29.0402 P.3     1  UNL1        0.5887
      2 O         -27.2401    0.0613   28.4283 O.2     1  UNL1       -0.3970
      3 O         -29.3621   -0.5774   28.6194 O.2     1  UNL1       -0.2114
      4 O         -27.9298   -0.0063   30.5563 O.3     1  UNL1       -0.1039
      5 O         -27.5440   -2.0509   29.4296 O.3     1  UNL1       -0.1039
      6 C         -25.8618    0.1287   28.5871 C.2     1  UNL1        0.1786
      7 C         -25.2107    1.3917   28.9193 C.2     1  UNL1        0.0144
      8 C         -23.8344    1.3507   28.9657 C.3     1  UNL1        0.0293
      9 C         -23.2652    0.8079   30.1317 C.3     1  UNL1        0.0051
@<TRIPOS>BOND
     1     1     2    1
     2     1     3    2
     3     1     4    1
     4     1     5    1
     5     2     6    1
     6     6     7    2
     7     7     8    1
     8     8     9    1
