@<TRIPOS>MOLECULE
No_4976-gen_results/8p0m/2024-11-26-14-13-15/
 17 18 0 0 0
SMALL
GASTEIGER

@<TRIPOS>ATOM
      1 N         -28.0544   -1.0498   28.7246 N.ar    1  UNL1       -0.2288
      2 C         -26.9659   -0.4722   28.7709 C.ar    1  UNL1        0.1357
      3 C         -25.8527   -0.9249   29.3786 C.ar    1  UNL1        0.0347
      4 C         -25.9072   -2.2339   30.0315 C.ar    1  UNL1        0.0045
      5 C         -27.1345   -2.8280   29.9947 C.ar    1  UNL1        0.0208
      6 C         -28.1751   -2.2461   29.4397 C.ar    1  UNL1        0.1003
      7 N         -27.0330    0.7802   28.1345 N.pl3   1  UNL1       -0.2681
      8 C         -25.8364    1.3448   27.6993 C.ar    1  UNL1        0.0530
      9 C         -25.5442    2.4935   27.9132 C.ar    1  UNL1        0.0149
     10 C         -24.2633    3.1025   27.4908 C.ar    1  UNL1        0.0013
     11 C         -23.3672    2.2818   26.8214 C.ar    1  UNL1        0.0001
     12 C         -23.6724    0.9194   26.7328 C.ar    1  UNL1        0.0013
     13 C         -24.8586    0.4301   27.1359 C.ar    1  UNL1        0.0149
     14 C         -28.0570    0.9427   27.0719 C.3     1  UNL1        0.1229
     15 C         -29.2125    1.4911   27.6396 C.2     1  UNL1       -0.0089
     16 C         -30.3086    1.4718   26.9011 C.2     1  UNL1       -0.0286
     17 C         -31.5531    1.9162   27.4738 C.3     1  UNL1        0.0304
@<TRIPOS>BOND
     1     2     7    1
     2     7     8    1
     3     7    14    1
     4    14    15    1
     5    15    16    2
     6    16    17    1
     7     1     2   ar
     8     2     3   ar
     9     3     4   ar
    10     4     5   ar
    11     5     6   ar
    12     6     1   ar
    13     8     9   ar
    14     9    10   ar
    15    10    11   ar
    16    11    12   ar
    17    12    13   ar
    18    13     8   ar
