@<TRIPOS>MOLECULE
No_4977-gen_results/8p0m/2024-11-26-14-13-15/
 16 17 0 0 0
SMALL
GASTEIGER

@<TRIPOS>ATOM
      1 C         -28.0162   -0.8135   28.8779 C.3     1  UNL1        0.1154
      2 C         -27.0636   -0.1189   28.6079 C.ar    1  UNL1       -0.0048
      3 C         -26.9716    0.7139   27.5060 C.ar    1  UNL1       -0.0029
      4 C         -25.8205    1.4909   27.1160 C.ar    1  UNL1       -0.0003
      5 C         -24.6562    1.4242   27.9180 C.ar    1  UNL1       -0.0000
      6 C         -24.6847    0.5901   29.0659 C.ar    1  UNL1       -0.0003
      7 C         -25.8099   -0.1265   29.3338 C.ar    1  UNL1       -0.0029
      8 N         -29.1935   -0.1896   29.0164 N.3     1  UNL1       -0.2085
      9 C         -23.4634    2.1759   27.6079 C.ar    1  UNL1       -0.0000
     10 C         -23.4401    3.0141   26.6984 C.ar    1  UNL1       -0.0000
     11 C         -24.6932    3.2435   25.8521 C.ar    1  UNL1       -0.0000
     12 C         -25.8279    2.4454   26.0812 C.ar    1  UNL1       -0.0000
     13 C         -30.2599   -0.6978   29.6482 C.3     1  UNL1        0.1148
     14 C         -31.5527   -0.4560   29.0930 C.2     1  UNL1       -0.0120
     15 C         -31.5047    0.1986   27.9893 C.2     1  UNL1       -0.0289
     16 C         -32.3469    0.5529   27.1882 C.3     1  UNL1        0.0304
@<TRIPOS>BOND
     1     1     8    1
     2     8    13    1
     3    13    14    1
     4    14    15    2
     5    15    16    1
     6     1     2    1
     7     2     3   ar
     8     3     4   ar
     9     5     6   ar
    10     6     7   ar
    11     7     2   ar
    12     4     5   ar
    13     5     9   ar
    14     9    10   ar
    15    10    11   ar
    16    11    12   ar
    17    12     4   ar
