@<TRIPOS>MOLECULE
No_4978-gen_results/8p0m/2024-11-26-14-13-15/
 9 9 0 0 0
SMALL
GASTEIGER

@<TRIPOS>ATOM
      1 O         -28.1229   -1.3353   28.4874 O.2     1  UNL1       -0.2730
      2 C         -27.0637   -0.8242   28.8687 C.2     1  UNL1        0.2455
      3 C         -26.4017   -0.0623   28.6224 C.3     1  UNL1        0.1086
      4 N         -26.2652   -1.8674   29.7609 N.am    1  UNL1       -0.2048
      5 C         -25.0436    0.3924   29.0662 C.2     1  UNL1       -0.0376
      6 C         -24.2642    1.5358   28.7186 C.2     1  UNL1       -0.0337
      7 C         -25.0148   -1.6871   30.2265 C.3     1  UNL1        0.1195
      8 C         -24.3245   -0.5767   29.9226 C.3     1  UNL1        0.0456
      9 C         -24.8990    2.6832   28.4319 C.3     1  UNL1        0.0300
@<TRIPOS>BOND
     1     1     2    2
     2     2     3    1
     3     2     4   am
     4     3     5    1
     5     5     6    2
     6     4     7    1
     7     5     8    1
     8     7     8    1
     9     6     9    1
