@<TRIPOS>MOLECULE
No_498-gen_results/8p0m/2024-11-26-14-13-15/
 31 34 0 0 0
SMALL
GASTEIGER

@<TRIPOS>ATOM
      1 C         -28.0162   -0.8135   28.8779 C.ar    1  UNL1        0.0552
      2 C         -27.0636   -0.1190   28.6079 C.ar    1  UNL1        0.0046
      3 C         -26.9716    0.7139   27.5060 C.ar    1  UNL1        0.0003
      4 C         -28.1053    0.7744   26.6421 C.ar    1  UNL1        0.0045
      5 C         -29.2008    0.1044   27.0527 C.ar    1  UNL1        0.0537
      6 C         -29.2096   -0.6029   28.1853 C.ar    1  UNL1        0.0091
      7 C         -30.3702    0.2264   26.1604 C.2     1  UNL1        0.2493
      8 O         -30.3387    0.2161   24.9661 O.2     1  UNL1       -0.2699
      9 N         -31.5729    0.5319   26.7640 N.am    1  UNL1       -0.2702
     10 C         -31.7703    0.6994   28.1565 C.3     1  UNL1        0.1205
     11 C         -31.5055    1.9407   28.5544 C.ar    1  UNL1       -0.0023
     12 C         -32.0844    2.5417   29.2466 C.ar    1  UNL1       -0.0026
     13 C         -31.8362    3.9601   29.6635 C.ar    1  UNL1       -0.0003
     14 C         -30.6639    4.5639   29.1588 C.ar    1  UNL1       -0.0000
     15 C         -30.2579    2.7033   28.0202 C.ar    1  UNL1       -0.0026
     16 C         -29.9193    3.9377   28.3362 C.ar    1  UNL1       -0.0003
     17 C         -28.0743   -1.6684   30.1354 C.2     1  UNL1        0.2651
     18 N         -28.7947   -1.5764   31.0310 N.am    1  UNL1       -0.1968
     19 O         -26.9907   -2.4247   30.2637 O.2     1  UNL1       -0.2684
     20 C         -29.1690   -2.2137   31.8981 C.3     1  UNL1        0.1418
     21 C         -32.7514    0.5810   25.9299 C.3     1  UNL1        0.1155
     22 C         -29.9279   -3.3084   31.7355 C.ar    1  UNL1       -0.0006
     23 C         -30.5489   -3.4796   30.5636 C.ar    1  UNL1       -0.0026
     24 C         -31.3058   -4.6752   30.2154 C.ar    1  UNL1       -0.0003
     25 C         -31.3150   -5.6646   31.2240 C.ar    1  UNL1       -0.0000
     26 C         -30.6794   -5.5548   32.4437 C.ar    1  UNL1       -0.0003
     27 C         -29.9624   -4.4169   32.7263 C.ar    1  UNL1       -0.0026
     28 C         -32.0087   -4.8391   28.9739 C.ar    1  UNL1       -0.0000
     29 C         -31.8212   -5.9085   28.2729 C.ar    1  UNL1       -0.0000
     30 C         -30.9508   -6.9428   28.7280 C.ar    1  UNL1       -0.0000
     31 C         -30.9897   -7.1070   30.2595 C.ar    1  UNL1       -0.0000
@<TRIPOS>BOND
     1     5     7    1
     2     7     8    2
     3     7     9   am
     4     9    10    1
     5    10    11    1
     6     1    17    1
     7    17    18   am
     8    17    19    2
     9    18    20    1
    10     9    21    1
    11    20    22    1
    12     1     2   ar
    13     2     3   ar
    14     3     4   ar
    15     4     5   ar
    16     5     6   ar
    17     6     1   ar
    18    22    23   ar
    19    23    24   ar
    20    25    26   ar
    21    26    27   ar
    22    27    22   ar
    23    11    12   ar
    24    12    13   ar
    25    13    14   ar
    26    14    16   ar
    27    16    15   ar
    28    15    11   ar
    29    24    25   ar
    30    25    31   ar
    31    31    30   ar
    32    30    29   ar
    33    29    28   ar
    34    28    24   ar
