@<TRIPOS>MOLECULE
No_4981-gen_results/8p0m/2024-11-26-14-13-15/
 22 24 0 0 0
SMALL
GASTEIGER

@<TRIPOS>ATOM
      1 C         -28.0162   -0.8135   28.8779 C.3     1  UNL1        0.0092
      2 C         -27.0636   -0.1189   28.6079 C.3     1  UNL1        0.0439
      3 C         -27.0010    0.6913   27.4910 C.2     1  UNL1       -0.0266
      4 C         -27.1778    1.9037   27.5632 C.2     1  UNL1       -0.0302
      5 C         -29.3113   -0.2245   28.4756 C.3     1  UNL1        0.0101
      6 C         -28.7654    2.1211   27.8478 C.3     1  UNL1        0.0303
      7 C         -29.4738    0.8296   28.1859 C.3     1  UNL1        0.0807
      8 C         -25.6464   -0.6502   29.0965 C.ar    1  UNL1       -0.0184
      9 C         -25.2382   -0.1703   30.3071 C.ar    1  UNL1       -0.0040
     10 C         -24.8958   -1.6203   28.4905 C.ar    1  UNL1       -0.0040
     11 C         -23.6598   -2.0692   29.0254 C.ar    1  UNL1       -0.0003
     12 C         -24.0231   -0.5707   30.9443 C.ar    1  UNL1       -0.0003
     13 C         -23.1982   -1.5335   30.2712 C.ar    1  UNL1       -0.0000
     14 C         -31.0217    1.3854   28.2876 C.2     1  UNL1        0.2255
     15 O         -31.7871    1.0182   27.4680 O.2     1  UNL1       -0.2749
     16 N         -31.3178    2.1748   29.3591 N.am    1  UNL1       -0.2795
     17 C         -32.6477    2.5914   29.5482 C.3     1  UNL1        0.0934
     18 C         -32.7378    3.3219   30.5159 C.3     1  UNL1        0.0216
     19 C         -31.7167    3.7078   31.3769 C.3     1  UNL1        0.0035
     20 C         -30.4018    3.2570   31.1445 C.3     1  UNL1        0.0216
     21 C         -30.2009    2.4355   30.0859 C.3     1  UNL1        0.0934
     22 C         -29.3144    3.1362   26.9540 C.3     1  UNL1        0.0052
@<TRIPOS>BOND
     1     1     2    1
     2     2     3    1
     3     3     4    2
     4     1     5    1
     5     4     6    1
     6     5     7    1
     7     6     7    1
     8     2     8    1
     9     7    14    1
    10    14    15    2
    11    14    16   am
    12    16    17    1
    13    18    19    1
    14    16    21    1
    15    20    21    1
    16     6    22    1
    17    17    18    1
    18    19    20    1
    19     8     9   ar
    20     9    12   ar
    21    12    13   ar
    22    13    11   ar
    23    11    10   ar
    24    10     8   ar
