@<TRIPOS>MOLECULE
No_4982-gen_results/8p0m/2024-11-26-14-13-15/
 14 14 0 0 0
SMALL
GASTEIGER

@<TRIPOS>ATOM
      1 C         -28.0162   -0.8135   28.8779 C.ar    1  UNL1        0.0165
      2 C         -28.4690   -0.7850   29.8287 C.ar    1  UNL1        0.0705
      3 C         -26.5455   -0.8762   28.8500 C.ar    1  UNL1        0.0013
      4 C         -25.8041   -1.0324   30.0571 C.ar    1  UNL1        0.0001
      5 C         -27.9437   -0.9869   31.2075 C.ar    1  UNL1        0.0165
      6 C         -26.5825   -1.0386   31.2231 C.ar    1  UNL1        0.0013
      7 N         -29.9648   -0.7353   29.8902 N.pl3   1  UNL1       -0.2112
      8 C         -30.7710   -1.5353   30.3549 C.2     1  UNL1        0.0856
      9 C         -30.4814   -2.5338   30.9481 C.2     1  UNL1        0.0178
     10 C         -30.7831   -3.5080   31.1168 C.2     1  UNL1        0.0014
     11 C         -30.2559   -4.6999   31.9011 C.2     1  UNL1       -0.0003
     12 C         -30.6049   -5.8968   32.0085 C.2     1  UNL1       -0.0046
     13 C         -31.7240   -6.2848   31.1769 C.2     1  UNL1       -0.0258
     14 C         -32.3092   -5.3580   30.3767 C.3     1  UNL1        0.0307
@<TRIPOS>BOND
     1     2     7    1
     2     7     8    1
     3     8     9    2
     4     9    10    1
     5    10    11    2
     6    11    12    1
     7    12    13    2
     8    13    14    1
     9     1     2   ar
    10     2     5   ar
    11     5     6   ar
    12     6     4   ar
    13     4     3   ar
    14     3     1   ar
