@<TRIPOS>MOLECULE
No_4983-gen_results/8p0m/2024-11-26-14-13-15/
 21 23 0 0 0
SMALL
GASTEIGER

@<TRIPOS>ATOM
      1 C         -28.0162   -0.8135   28.8779 C.ar    1  UNL1       -0.0000
      2 C         -27.0636   -0.1190   28.6079 C.ar    1  UNL1       -0.0003
      3 C         -25.7923   -0.4302   29.0761 C.ar    1  UNL1       -0.0000
      4 C         -25.5756   -1.5654   29.9363 C.ar    1  UNL1       -0.0000
      5 C         -26.7354   -2.3004   30.2173 C.ar    1  UNL1       -0.0000
      6 C         -27.9184   -1.9537   29.7629 C.ar    1  UNL1       -0.0000
      7 C         -26.8968    1.1016   27.7052 C.2     1  UNL1       -0.0024
      8 C         -26.6638    2.1999   27.9486 C.2     1  UNL1       -0.0214
      9 C         -26.2708    2.5380   29.3969 C.3     1  UNL1        0.0523
     10 C         -26.6627    3.4811   30.0793 C.ar    1  UNL1       -0.0178
     11 C         -25.9069    4.7130   30.0161 C.ar    1  UNL1       -0.0039
     12 C         -27.3698    0.7709   26.3059 C.ar    1  UNL1        0.0189
     13 C         -28.6087    0.8375   26.0079 C.ar    1  UNL1        0.0988
     14 C         -26.4004    0.6971   25.3125 C.ar    1  UNL1        0.0031
     15 N         -29.0184    0.4393   24.7597 N.ar    1  UNL1       -0.2423
     16 C         -26.7582    0.2757   24.0351 C.ar    1  UNL1        0.0207
     17 C         -28.1096    0.2160   23.8405 C.ar    1  UNL1        0.0989
     18 C         -26.1485    5.6787   31.0569 C.ar    1  UNL1       -0.0003
     19 C         -27.8507    3.4439   30.8580 C.ar    1  UNL1       -0.0039
     20 C         -28.1149    4.5543   31.8142 C.ar    1  UNL1       -0.0003
     21 C         -27.2654    5.7216   31.8483 C.ar    1  UNL1       -0.0000
@<TRIPOS>BOND
     1     2     7    1
     2     7     8    2
     3     8     9    1
     4     7    12    1
     5     9    10    1
     6    10    11   ar
     7    11    18   ar
     8    18    21   ar
     9    21    20   ar
    10    20    19   ar
    11    19    10   ar
    12     1     2   ar
    13     2     3   ar
    14     3     4   ar
    15     4     5   ar
    16     5     6   ar
    17     6     1   ar
    18    12    13   ar
    19    13    15   ar
    20    15    17   ar
    21    17    16   ar
    22    16    14   ar
    23    14    12   ar
