@<TRIPOS>MOLECULE
No_4984-gen_results/8p0m/2024-11-26-14-13-15/
 35 40 0 0 0
SMALL
GASTEIGER

@<TRIPOS>ATOM
      1 C         -28.0162   -0.8135   28.8779 C.ar    1  UNL1        0.1696
      2 C         -28.4690   -0.7850   29.8287 C.ar    1  UNL1        0.1616
      3 C         -28.1816    0.4277   28.1134 C.ar    1  UNL1        0.0120
      4 C         -28.9841    1.4155   28.5154 C.ar    1  UNL1        0.0025
      5 C         -29.3802    0.1384   30.4612 C.ar    1  UNL1        0.0198
      6 C         -29.5415    1.2736   29.7242 C.ar    1  UNL1        0.0524
      7 C         -27.4452    0.4872   26.7726 C.3     1  UNL1        0.0727
      8 C         -26.0008    0.3969   26.7906 C.3     1  UNL1        0.0353
      9 C         -25.3172   -0.0117   27.8848 C.ar    1  UNL1       -0.0115
     10 C         -23.8903    0.0318   27.8973 C.ar    1  UNL1       -0.0077
     11 C         -23.1462   -0.4528   29.0421 C.ar    1  UNL1       -0.0221
     12 C         -23.8342   -1.2474   29.9699 C.ar    1  UNL1       -0.0034
     13 C         -25.1776   -1.3534   29.9283 C.ar    1  UNL1        0.0108
     14 C         -25.8932   -0.8173   28.9367 C.ar    1  UNL1        0.0537
     15 CL        -26.1715   -1.7868   28.6549 Cl      1  UNL1       -0.0826
     16 F         -29.2534   -1.2699   28.0278 F       1  UNL1       -0.2013
     17 C         -21.7213   -0.2247   29.1473 C.3     1  UNL1        0.0310
     18 C         -28.1607    0.7703   25.6512 C.3     1  UNL1        0.2210
     19 BR        -27.7727    0.3046   24.4734 Br      1  UNL1       -0.0427
     20 F         -29.3262    1.3538   25.9089 F       1  UNL1       -0.2244
     21 O         -28.3206   -1.9098   30.8148 O.3     1  UNL1       -0.4735
     22 C         -28.4358   -1.8165   32.1288 C.3     1  UNL1        0.2058
     23 C         -30.3354    2.4730   30.2941 C.2     1  UNL1        0.2488
     24 O         -30.9777    3.1709   29.6825 O.2     1  UNL1       -0.2699
     25 N         -30.3970    2.4357   31.7339 N.am    1  UNL1       -0.2774
     26 C         -31.1167    3.4763   32.3862 C.3     1  UNL1        0.0941
     27 C         -31.4895    3.1046   33.5287 C.3     1  UNL1        0.0293
     28 C         -30.9418    2.1193   34.1748 C.3     1  UNL1        0.0682
     29 C         -30.1619    1.1211   33.5534 C.3     1  UNL1        0.0261
     30 C         -29.9142    1.3174   32.3030 C.3     1  UNL1        0.0802
     31 C         -29.3432    0.2931   31.5827 C.3     1  UNL1        0.0473
     32 C         -28.9836   -0.8274   32.5733 C.3     1  UNL1        0.0496
     33 C         -29.3639   -0.5829   33.9786 C.3     1  UNL1        0.0062
     34 C         -31.1970    1.7219   35.7361 C.2     1  UNL1        0.2071
     35 O         -32.2391    1.4817   36.1015 O.2     1  UNL1       -0.2883
@<TRIPOS>BOND
     1     3     7    1
     2     7     8    1
     3    14    15    1
     4     1    16    1
     5    11    17    1
     6     7    18    1
     7    18    19    1
     8    18    20    1
     9     2    21    1
    10    21    22    1
    11     6    23    1
    12    23    24    2
    13    23    25   am
    14    25    26    1
    15    27    28    1
    16    28    29    1
    17    25    30    1
    18     5    31    1
    19    30    31    1
    20    22    32    1
    21    31    32    1
    22    29    33    1
    23    32    33    1
    24    28    34    1
    25    34    35    2
    26     8     9    1
    27    26    27    1
    28    29    30    1
    29     9    10   ar
    30    10    11   ar
    31    11    12   ar
    32    12    13   ar
    33    13    14   ar
    34    14     9   ar
    35     1     2   ar
    36     2     5   ar
    37     5     6   ar
    38     6     4   ar
    39     4     3   ar
    40     3     1   ar
