@<TRIPOS>MOLECULE
No_4985-gen_results/8p0m/2024-11-26-14-13-15/
 35 37 0 0 0
SMALL
GASTEIGER

@<TRIPOS>ATOM
      1 C         -28.0162   -0.8135   28.8779 C.3     1  UNL1        0.1211
      2 C         -27.0636   -0.1189   28.6079 C.ar    1  UNL1        0.0080
      3 C         -25.7923   -0.4302   29.0761 C.ar    1  UNL1       -0.0054
      4 C         -24.5456    0.3494   28.8225 C.ar    1  UNL1       -0.0079
      5 C         -24.6586    1.4196   27.8878 C.ar    1  UNL1        0.0524
      6 C         -25.9471    1.6811   27.3792 C.ar    1  UNL1        0.0154
      7 C         -27.0439    0.9739   27.6871 C.ar    1  UNL1        0.0554
      8 N         -28.6643   -0.5274   30.1017 N.am    1  UNL1       -0.2725
      9 C         -29.6646   -0.3963   30.4406 C.2     1  UNL1        0.2661
     10 O         -30.5800   -0.4891   29.5997 O.2     1  UNL1       -0.2710
     11 C         -30.0636   -0.0013   31.9105 C.3     1  UNL1        0.2414
     12 C         -23.4544    2.1690   27.5969 C.2     1  UNL1        0.2645
     13 N         -22.2554    1.7562   28.0726 N.am    1  UNL1       -0.2008
     14 O         -23.5034    3.0264   26.6737 O.2     1  UNL1       -0.2684
     15 C         -29.3388   -0.4398   32.7684 C.3     1  UNL1        0.0549
     16 C         -27.8683   -0.3170   32.5756 C.3     1  UNL1        0.0257
     17 C         -27.4741   -0.6461   31.2628 C.3     1  UNL1        0.0940
     18 CL        -28.5112    1.4418   26.9661 Cl      1  UNL1       -0.0825
     19 C         -22.0185    0.8132   28.9969 C.3     1  UNL1        0.1289
     20 C         -23.2337   -0.0158   29.3843 C.3     1  UNL1        0.1222
     21 O         -31.3759    0.3428   32.0745 O.2     1  UNL1       -0.4672
     22 C         -23.0598   -1.1255   30.2680 C.2     1  UNL1        0.2468
     23 N         -23.2193   -2.1956   30.1418 N.am    1  UNL1       -0.2049
     24 O         -22.6514   -0.7254   31.4457 O.2     1  UNL1       -0.2729
     25 C         -23.9283   -2.8496   29.0151 C.3     1  UNL1        0.1210
     26 C         -24.4571   -4.1807   29.2939 C.3     1  UNL1        0.0957
     27 C         -24.1581   -5.2050   28.7632 C.3     1  UNL1        0.3203
     28 F         -23.3144   -5.1405   27.7292 F       1  UNL1       -0.1984
     29 F         -24.6565   -6.3753   28.9733 F       1  UNL1       -0.1984
     30 C         -31.6392    1.0567   33.0065 C.2     1  UNL1        0.1685
     31 C         -32.6728    1.9511   32.8356 C.2     1  UNL1        0.0186
     32 C         -33.3935    2.0669   31.8022 C.3     1  UNL1        0.0549
     33 C         -34.4476    3.0403   31.5511 C.2     1  UNL1       -0.0259
     34 C         -34.6985    3.9179   32.6083 C.2     1  UNL1       -0.0300
     35 C         -33.9934    3.8691   33.7701 C.3     1  UNL1        0.0304
@<TRIPOS>BOND
     1     1     2    1
     2     1     8    1
     3     8     9   am
     4     9    10    2
     5     9    11    1
     6     5    12    1
     7    12    13   am
     8    12    14    2
     9    11    15    1
    10     8    17    1
    11    16    17    1
    12     7    18    1
    13    13    19    1
    14     4    20    1
    15    11    21    1
    16    20    22    1
    17    22    23   am
    18    22    24    2
    19    23    25    1
    20    25    26    1
    21    26    27    1
    22    27    28    1
    23    27    29    1
    24    21    30    1
    25    30    31    2
    26    31    32    1
    27    32    33    1
    28    33    34    2
    29    34    35    1
    30    15    16    1
    31    20    19    1
    32     2     3   ar
    33     3     4   ar
    34     4     5   ar
    35     5     6   ar
    36     6     7   ar
    37     7     2   ar
