@<TRIPOS>MOLECULE
No_4986-gen_results/8p0m/2024-11-26-14-13-15/
 7 6 0 0 0
SMALL
GASTEIGER

@<TRIPOS>ATOM
      1 C         -28.0162   -0.8135   28.8779 C.3     1  UNL1        0.0764
      2 C         -27.0636   -0.1189   28.6079 C.1     1  UNL1       -0.0864
      3 C         -25.7923   -0.4302   29.0761 C.1     1  UNL1       -0.0638
      4 C         -24.5523    0.3182   28.8150 C.2     1  UNL1        0.0493
      5 C         -23.2607    0.0039   29.3333 C.2     1  UNL1        0.0095
      6 C         -27.8839   -1.8963   29.8940 C.3     1  UNL1        0.0140
      7 C         -26.6545   -2.3147   30.3371 C.3     1  UNL1        0.0011
@<TRIPOS>BOND
     1     1     2    1
     2     2     3    3
     3     3     4    1
     4     4     5    2
     5     1     6    1
     6     6     7    1
