@<TRIPOS>MOLECULE
No_4987-gen_results/8p0m/2024-11-26-14-13-15/
 14 14 0 0 0
SMALL
GASTEIGER

@<TRIPOS>ATOM
      1 C         -28.0162   -0.8135   28.8779 C.3     1  UNL1        0.1386
      2 C         -27.0636   -0.1189   28.6079 C.ar    1  UNL1       -0.0007
      3 C         -26.9716    0.7139   27.5060 C.ar    1  UNL1       -0.0024
      4 C         -25.8206    1.4909   27.1160 C.ar    1  UNL1        0.0043
      5 C         -24.6562    1.4242   27.9180 C.ar    1  UNL1        0.0566
      6 C         -24.6847    0.5901   29.0659 C.ar    1  UNL1        0.0043
      7 C         -25.8099   -0.1265   29.3338 C.ar    1  UNL1       -0.0024
      8 N         -29.1935   -0.1896   29.0164 N.pl3   1  UNL1       -0.2319
      9 C         -23.4634    2.1759   27.6079 C.2     1  UNL1        0.2842
     10 N         -22.4185    1.6506   27.2095 N.am    1  UNL1       -0.0837
     11 C         -30.2501   -0.7525   29.6494 C.2     1  UNL1        0.0759
     12 O         -23.6258    3.4674   27.4875 O.2     1  UNL1       -0.2667
     13 C         -30.5647   -0.5741   30.8349 C.2     1  UNL1       -0.0084
     14 C         -31.6807   -1.1909   31.5484 C.3     1  UNL1        0.0321
@<TRIPOS>BOND
     1     1     8    1
     2     5     9    1
     3     9    10   am
     4     8    11    1
     5     9    12    2
     6    11    13    2
     7    13    14    1
     8     1     2    1
     9     2     3   ar
    10     3     4   ar
    11     4     5   ar
    12     5     6   ar
    13     6     7   ar
    14     7     2   ar
