@<TRIPOS>MOLECULE
No_4989-gen_results/8p0m/2024-11-26-14-13-15/
 21 24 0 0 0
SMALL
GASTEIGER

@<TRIPOS>ATOM
      1 C         -28.0162   -0.8135   28.8779 C.ar    1  UNL1        0.0030
      2 C         -27.0636   -0.1189   28.6079 C.ar    1  UNL1        0.0350
      3 C         -26.9716    0.7139   27.5060 C.ar    1  UNL1       -0.0191
      4 C         -28.1053    0.7744   26.6421 C.ar    1  UNL1       -0.0195
      5 C         -29.2041    0.1179   27.0477 C.ar    1  UNL1        0.0509
      6 C         -29.2127   -0.6088   28.1281 C.ar    1  UNL1        0.0043
      7 C         -25.7106    1.4519   27.1380 C.3     1  UNL1        0.0445
      8 C         -24.6052    0.9253   27.6902 C.ar    1  UNL1       -0.0154
      9 C         -23.3376    1.6509   27.5494 C.ar    1  UNL1       -0.0039
     10 C         -22.1760    1.2278   28.2868 C.ar    1  UNL1       -0.0003
     11 C         -22.1814    0.0854   29.0261 C.ar    1  UNL1        0.0001
     12 C         -23.3607   -0.6934   29.1008 C.ar    1  UNL1        0.0029
     13 C         -24.5306   -0.2411   28.4874 C.ar    1  UNL1        0.0353
     14 C         -25.7150   -0.6112   29.1351 C.2     1  UNL1        0.1949
     15 C         -25.7732    2.6005   26.3017 C.3     1  UNL1        0.0094
     16 O         -25.7682   -1.4828   30.0763 O.2     1  UNL1       -0.2866
     17 C         -30.3550    0.4039   26.1187 C.2     1  UNL1        0.2645
     18 O         -31.3852    0.0559   26.3085 O.2     1  UNL1       -0.2684
     19 N         -30.1349    1.2770   25.1162 N.am    1  UNL1       -0.2013
     20 C         -29.1157    2.0482   24.7580 C.3     1  UNL1        0.1201
     21 C         -28.0231    1.8051   25.5819 C.3     1  UNL1        0.0496
@<TRIPOS>BOND
     1     3     7    1
     2     7     8    1
     3     2    14    1
     4    13    14    1
     5     7    15    1
     6    14    16    2
     7     5    17    1
     8    17    18    2
     9    17    19   am
    10    19    20    1
    11     4    21    1
    12    21    20    1
    13     1     2   ar
    14     2     3   ar
    15     3     4   ar
    16     4     5   ar
    17     5     6   ar
    18     6     1   ar
    19     8     9   ar
    20     9    10   ar
    21    10    11   ar
    22    11    12   ar
    23    12    13   ar
    24    13     8   ar
