@<TRIPOS>MOLECULE
No_4990-gen_results/8p0m/2024-11-26-14-13-15/
 22 23 0 0 0
SMALL
GASTEIGER

@<TRIPOS>ATOM
      1 C         -28.0162   -0.8135   28.8779 C.3     1  UNL1        0.1179
      2 C         -27.0636   -0.1189   28.6079 C.ar    1  UNL1       -0.0024
      3 C         -25.7647   -0.3897   29.0360 C.ar    1  UNL1       -0.0024
      4 C         -24.5516    0.4058   28.7646 C.ar    1  UNL1        0.0063
      5 C         -24.6957    1.4480   27.7988 C.ar    1  UNL1        0.0798
      6 C         -25.9755    1.7250   27.3077 C.ar    1  UNL1        0.0063
      7 C         -27.0718    1.0134   27.6535 C.ar    1  UNL1       -0.0024
      8 N         -29.1869   -0.1649   29.1026 N.pl3   1  UNL1       -0.2963
      9 C         -23.4964    2.1689   27.4760 C.2     1  UNL1        0.3878
     10 O         -23.5395    3.1311   26.7104 O.co2   1  UNL1       -0.2406
     11 O         -22.2919    1.7826   27.8591 O.co2   1  UNL1       -0.2406
     12 C         -29.6633    0.1047   30.2609 C.ar    1  UNL1        0.0483
     13 C         -30.2396   -0.5663   28.0827 C.3     1  UNL1        0.1955
     14 C         -30.4968    0.4084   27.1109 C.3     1  UNL1        0.4156
     15 F         -30.5367   -0.1708   26.0184 F       1  UNL1       -0.1682
     16 F         -29.5414    1.3033   26.9516 F       1  UNL1       -0.1682
     17 F         -31.4660    1.1530   27.3562 F       1  UNL1       -0.1682
     18 C         -29.6711    0.9480   30.9220 C.ar    1  UNL1        0.0145
     19 C         -29.9192   -1.1695   30.9730 C.ar    1  UNL1        0.0145
     20 C         -30.1082    1.2127   32.2175 C.ar    1  UNL1        0.0013
     21 C         -30.4210   -1.1022   32.3212 C.ar    1  UNL1        0.0013
     22 C         -30.4652    0.0983   32.9508 C.ar    1  UNL1        0.0001
@<TRIPOS>BOND
     1     1     8    1
     2     5     9    1
     3     9    10   ar
     4     9    11   ar
     5     8    12    1
     6     8    13    1
     7    13    14    1
     8    14    15    1
     9    14    16    1
    10    14    17    1
    11     1     2    1
    12    12    18   ar
    13    18    20   ar
    14    20    22   ar
    15    22    21   ar
    16    21    19   ar
    17    19    12   ar
    18     2     3   ar
    19     3     4   ar
    20     4     5   ar
    21     5     6   ar
    22     6     7   ar
    23     7     2   ar
