@<TRIPOS>MOLECULE
No_4991-gen_results/8p0m/2024-11-26-14-13-15/
 18 19 0 0 0
SMALL
GASTEIGER

@<TRIPOS>ATOM
      1 O         -28.1229   -1.3353   28.4874 O.2     1  UNL1       -0.2733
      2 C         -27.0637   -0.8242   28.8687 C.2     1  UNL1        0.2440
      3 C         -25.9464   -1.0396   28.8492 C.3     1  UNL1        0.0914
      4 C         -24.7602   -0.1562   29.1644 C.3     1  UNL1        0.0362
      5 C         -23.3890   -0.4551   29.0162 C.ar    1  UNL1       -0.0174
      6 N         -27.3395    0.3833   29.7633 N.am    1  UNL1       -0.1728
      7 C         -26.4205    1.2770   30.1889 C.3     1  UNL1        0.2558
      8 C         -25.0644    1.0553   29.9319 C.3     1  UNL1        0.0631
      9 C         -22.7456   -1.5426   29.5224 C.ar    1  UNL1       -0.0041
     10 C         -22.5780    0.5851   28.3459 C.ar    1  UNL1        0.0511
     11 C         -21.1410    0.3923   28.2591 C.ar    1  UNL1        0.0042
     12 C         -20.5945   -0.7681   28.8102 C.ar    1  UNL1        0.0001
     13 C         -21.3561   -1.7338   29.3807 C.ar    1  UNL1       -0.0003
     14 F         -26.8422    2.2834   30.8565 F       1  UNL1       -0.2131
     15 C         -23.1419    1.7935   27.8142 C.2     1  UNL1        0.2645
     16 O         -23.6810    2.6634   28.3737 O.2     1  UNL1       -0.2684
     17 N         -23.0661    1.8407   26.4044 N.am    1  UNL1       -0.1998
     18 C         -23.6024    2.8929   25.5831 C.3     1  UNL1        0.1388
@<TRIPOS>BOND
     1     1     2    2
     2     2     3    1
     3     3     4    1
     4     4     5    1
     5     2     6   am
     6     4     8    1
     7     7     8    1
     8     7    14    1
     9    10    15    1
    10    15    16    2
    11    15    17   am
    12    17    18    1
    13     7     6    1
    14     5     9   ar
    15     9    13   ar
    16    13    12   ar
    17    12    11   ar
    18    11    10   ar
    19    10     5   ar
