@<TRIPOS>MOLECULE
No_4994-gen_results/8p0m/2024-11-26-14-13-15/
 6 5 0 0 0
SMALL
GASTEIGER

@<TRIPOS>ATOM
      1 F         -28.0727   -1.2542   28.5316 F       1  UNL1       -0.2311
      2 C         -27.3591   -0.3792   28.7224 C.3     1  UNL1        0.1992
      3 C         -26.3323   -0.6441   29.4520 C.3     1  UNL1        0.1346
      4 C         -26.9743    0.2865   27.4190 C.2     1  UNL1        0.0097
      5 CL        -24.9010   -0.1812   29.3940 Cl      1  UNL1       -0.1103
      6 C         -25.7296    0.6417   27.2318 C.2     1  UNL1       -0.0021
@<TRIPOS>BOND
     1     1     2    1
     2     2     3    1
     3     2     4    1
     4     3     5    1
     5     4     6    2
