@<TRIPOS>MOLECULE
No_4995-gen_results/8p0m/2024-11-26-14-13-15/
 28 30 0 0 0
SMALL
GASTEIGER

@<TRIPOS>ATOM
      1 C         -28.0162   -0.8135   28.8779 C.ar    1  UNL1        0.0369
      2 C         -27.0636   -0.1190   28.6079 C.ar    1  UNL1        0.0030
      3 C         -25.7923   -0.4302   29.0761 C.ar    1  UNL1        0.0002
      4 C         -25.5681   -1.2411   29.7572 C.ar    1  UNL1        0.0031
      5 C         -26.6114   -2.1840   30.2439 C.ar    1  UNL1        0.0369
      6 C         -27.8191   -1.9189   29.8034 C.ar    1  UNL1        0.1393
      7 O         -28.8528   -2.7193   30.2109 O.3     1  UNL1       -0.4656
      8 C         -29.1753   -2.8477   31.5232 C.3     1  UNL1        0.2911
      9 C         -29.8097   -4.1122   31.7840 C.2     1  UNL1        0.2859
     10 O         -29.6395   -5.0142   31.1357 O.2     1  UNL1       -0.2693
     11 N         -30.5296   -4.2882   32.9292 N.am    1  UNL1       -0.2004
     12 C         -31.1781   -5.5235   33.2631 C.3     1  UNL1        0.1386
     13 C         -27.2505    1.0556   27.6367 C.ar    1  UNL1       -0.0002
     14 C         -26.8218    2.0223   27.4743 C.ar    1  UNL1       -0.0000
     15 C         -27.0209    3.0156   26.4011 C.ar    1  UNL1       -0.0003
     16 C         -27.8778    2.6405   25.3729 C.ar    1  UNL1       -0.0039
     17 C         -28.1863    0.6585   26.4553 C.ar    1  UNL1       -0.0039
     18 C         -28.3977    1.4591   25.4503 C.ar    1  UNL1       -0.0152
     19 C         -29.3023    1.0710   24.3391 C.3     1  UNL1        0.0841
     20 C         -30.4083    1.8062   24.1042 C.2     1  UNL1        0.1767
     21 C         -31.5311    1.7252   24.7247 C.ar    1  UNL1        0.0350
     22 C         -31.7885    0.8461   25.5450 C.ar    1  UNL1        0.0029
     23 C         -32.8364    0.8238   26.4289 C.ar    1  UNL1        0.0001
     24 C         -33.8065    1.8402   26.2712 C.ar    1  UNL1        0.0000
     25 C         -33.6525    2.8354   25.3676 C.ar    1  UNL1        0.0001
     26 C         -32.4821    2.9270   24.6002 C.ar    1  UNL1        0.0029
     27 C         -29.1579   -0.2102   23.7421 C.3     1  UNL1        0.0129
     28 O         -30.1206    2.7297   23.1364 O.2     1  UNL1       -0.2910
@<TRIPOS>BOND
     1     6     7    1
     2     7     8    1
     3     8     9    1
     4     9    10    2
     5     9    11   am
     6    11    12    1
     7     2    13    1
     8    18    19    1
     9    19    20    1
    10    20    21    1
    11    19    27    1
    12    20    28    2
    13     1     2   ar
    14     2     3   ar
    15     3     4   ar
    16     4     5   ar
    17     5     6   ar
    18     6     1   ar
    19    13    14   ar
    20    14    15   ar
    21    15    16   ar
    22    16    18   ar
    23    18    17   ar
    24    17    13   ar
    25    21    22   ar
    26    22    23   ar
    27    23    24   ar
    28    24    25   ar
    29    25    26   ar
    30    26    21   ar
