@<TRIPOS>MOLECULE
No_4997-gen_results/8p0m/2024-11-26-14-13-15/
 7 6 0 0 0
SMALL
GASTEIGER

@<TRIPOS>ATOM
      1 CL        -28.1493   -0.8198   28.9079 Cl      1  UNL1       -0.1085
      2 C         -27.8339    0.4961   29.0598 C.3     1  UNL1        0.1208
      3 C         -27.6022    1.0128   30.2974 C.2     1  UNL1       -0.0087
      4 C         -27.5822    0.3544   31.3106 C.2     1  UNL1       -0.0024
      5 C         -27.8896   -1.0945   31.2200 C.2     1  UNL1        0.0120
      6 C         -28.1177   -1.6158   30.0901 C.2     1  UNL1        0.0682
      7 CL        -28.4545   -3.3101   30.0443 Cl      1  UNL1       -0.0814
@<TRIPOS>BOND
     1     1     2    1
     2     2     3    1
     3     3     4    2
     4     4     5    1
     5     5     6    2
     6     6     7    1
