@<TRIPOS>MOLECULE
No_4998-gen_results/8p0m/2024-11-26-14-13-15/
 17 18 0 0 0
SMALL
GASTEIGER

@<TRIPOS>ATOM
      1 C         -28.0162   -0.8135   28.8779 C.ar    1  UNL1        0.0045
      2 C         -28.4690   -0.7850   29.8287 C.ar    1  UNL1        0.0536
      3 C         -26.5042   -0.7777   28.8766 C.ar    1  UNL1        0.0001
      4 C         -25.8103   -0.8531   30.1028 C.ar    1  UNL1        0.0000
      5 C         -27.9906   -0.8916   31.2257 C.ar    1  UNL1        0.0045
      6 C         -26.6042   -0.8676   31.2652 C.ar    1  UNL1        0.0001
      7 C         -30.0739   -0.8360   29.8615 C.2     1  UNL1        0.2493
      8 O         -30.6891   -1.6554   30.2229 O.2     1  UNL1       -0.2699
      9 N         -30.6139    0.2846   29.2227 N.am    1  UNL1       -0.2702
     10 C         -32.0200    0.3382   29.0215 C.3     1  UNL1        0.1155
     11 C         -29.8434    1.4263   28.7505 C.3     1  UNL1        0.1205
     12 C         -30.0696    2.5922   29.5725 C.ar    1  UNL1       -0.0023
     13 C         -29.3221    3.5645   29.2494 C.ar    1  UNL1       -0.0026
     14 C         -29.2624    4.8163   30.1016 C.ar    1  UNL1       -0.0003
     15 C         -30.2470    4.8573   31.1196 C.ar    1  UNL1       -0.0000
     16 C         -31.0352    3.7563   31.3591 C.ar    1  UNL1       -0.0003
     17 C         -30.8963    2.5993   30.6585 C.ar    1  UNL1       -0.0026
@<TRIPOS>BOND
     1     2     7    1
     2     7     8    2
     3     7     9   am
     4     9    10    1
     5     9    11    1
     6    11    12    1
     7    12    13   ar
     8    13    14   ar
     9    14    15   ar
    10    15    16   ar
    11    16    17   ar
    12    17    12   ar
    13     1     2   ar
    14     2     5   ar
    15     5     6   ar
    16     6     4   ar
    17     4     3   ar
    18     3     1   ar
