@<TRIPOS>MOLECULE
No_4999-gen_results/8p0m/2024-11-26-14-13-15/
 8 7 0 0 0
SMALL
GASTEIGER

@<TRIPOS>ATOM
      1 CL        -28.1493   -0.8198   28.9079 Cl      1  UNL1       -0.0719
      2 C         -26.9116   -0.0797   28.9452 C.3     1  UNL1        0.2617
      3 F         -26.2828   -0.1883   27.9884 F       1  UNL1       -0.2143
      4 C         -26.3333    0.5804   30.0971 C.2     1  UNL1        0.0253
      5 C         -26.8929    0.8276   31.1584 C.2     1  UNL1       -0.0009
      6 C         -26.2157    1.5886   32.2473 C.2     1  UNL1       -0.0048
      7 C         -24.9033    2.0342   31.9481 C.2     1  UNL1       -0.0258
      8 C         -24.3040    1.7699   30.7425 C.3     1  UNL1        0.0307
@<TRIPOS>BOND
     1     1     2    1
     2     2     3    1
     3     2     4    1
     4     4     5    2
     5     5     6    1
     6     6     7    2
     7     7     8    1
