@<TRIPOS>MOLECULE
No_5-gen_results/8p0m/2024-11-26-14-13-15/
 19 21 0 0 0
SMALL
GASTEIGER

@<TRIPOS>ATOM
      1 C         -28.0162   -0.8135   28.8779 C.3     1  UNL1        0.0319
      2 C         -28.4690   -0.7850   29.8287 C.ar    1  UNL1       -0.0066
      3 C         -27.0871    0.2903   28.6377 C.3     1  UNL1        0.0267
      4 C         -26.9102    0.8486   27.4199 C.2     1  UNL1       -0.0261
      5 C         -29.6069   -1.6266   30.1338 C.ar    1  UNL1        0.0943
      6 C         -27.6424    1.1427   26.6727 C.2     1  UNL1       -0.0037
      7 C         -29.0200    1.0855   26.9318 C.ar    1  UNL1        0.0103
      8 C         -27.8992   -0.1613   31.1078 C.ar    1  UNL1       -0.0231
      9 C         -28.4494   -0.3742   32.4597 C.ar    1  UNL1        0.0161
     10 N         -30.0999   -1.9309   31.4324 N.ar    1  UNL1       -0.2427
     11 C         -29.5822   -1.2164   32.5389 C.ar    1  UNL1        0.0985
     12 C         -26.2752    0.6536   29.7960 C.3     1  UNL1        0.0093
     13 C         -26.7772    0.5668   30.9642 C.3     1  UNL1        0.0265
     14 C         -30.0753    1.4608   25.9939 C.ar    1  UNL1        0.0008
     15 C         -31.3922    1.3724   26.2717 C.ar    1  UNL1        0.0001
     16 C         -31.7668    0.7985   27.4970 C.ar    1  UNL1        0.0009
     17 C         -30.8181    0.4615   28.4429 C.ar    1  UNL1        0.0114
     18 C         -29.5195    0.6047   28.1764 C.ar    1  UNL1        0.0576
     19 CL        -29.7941    2.1689   29.0175 Cl      1  UNL1       -0.0822
@<TRIPOS>BOND
     1     1     2    1
     2     1     3    1
     3     3     4    1
     4     4     6    2
     5     6     7    1
     6     3    12    1
     7     8    13    1
     8    12    13    1
     9    18    19    1
    10     2     5   ar
    11     5    10   ar
    12    10    11   ar
    13    11     9   ar
    14     9     8   ar
    15     8     2   ar
    16     7    14   ar
    17    14    15   ar
    18    15    16   ar
    19    16    17   ar
    20    17    18   ar
    21    18     7   ar
