@<TRIPOS>MOLECULE
No_50-gen_results/8p0m/2024-11-26-14-13-15/
 35 38 0 0 0
SMALL
GASTEIGER

@<TRIPOS>ATOM
      1 CL        -28.1493   -0.8198   28.9079 Cl      1  UNL1       -0.0822
      2 C         -26.9116   -0.0797   28.9452 C.ar    1  UNL1        0.0576
      3 C         -26.7384    1.0439   29.2535 C.ar    1  UNL1        0.0107
      4 C         -25.4392    1.7115   29.2755 C.ar    1  UNL1        0.0055
      5 C         -24.2812    0.9888   28.8542 C.ar    1  UNL1        0.0567
      6 C         -24.4869   -0.3041   28.4957 C.ar    1  UNL1        0.0055
      7 C         -25.7046   -0.8667   28.5244 C.ar    1  UNL1        0.0115
      8 C         -22.9690    1.6346   28.7977 C.2     1  UNL1        0.2842
      9 N         -22.2916    1.7090   27.7663 N.am    1  UNL1       -0.0837
     10 O         -22.2536    1.6231   29.8685 O.2     1  UNL1       -0.2667
     11 C         -27.8265    1.9621   29.7355 C.ar    1  UNL1        0.0008
     12 C         -28.4433    1.8004   30.7999 C.ar    1  UNL1        0.0002
     13 C         -29.5280    2.6267   31.2018 C.ar    1  UNL1        0.0046
     14 C         -28.4677    2.7388   28.6718 C.ar    1  UNL1        0.0002
     15 C         -29.5388    3.5686   28.9905 C.ar    1  UNL1        0.0046
     16 C         -30.0691    3.5075   30.2817 C.ar    1  UNL1        0.0554
     17 C         -31.2161    4.3711   30.6259 C.2     1  UNL1        0.2690
     18 N         -31.2133    4.8981   31.7206 N.am    1  UNL1       -0.1754
     19 O         -32.2612    4.2301   29.9430 O.2     1  UNL1       -0.2680
     20 C         -31.9409    5.7509   32.2241 C.ar    1  UNL1        0.0737
     21 C         -32.5461    6.6783   31.8384 C.ar    1  UNL1        0.0166
     22 C         -33.4314    7.5889   32.5248 C.ar    1  UNL1        0.0013
     23 C         -33.5810    7.3696   33.9004 C.ar    1  UNL1        0.0001
     24 C         -32.9246    6.3181   34.4927 C.ar    1  UNL1        0.0013
     25 C         -32.0640    5.4992   33.7893 C.ar    1  UNL1        0.0166
     26 C         -34.4625    8.2751   34.6586 C.ar    1  UNL1        0.0000
     27 C         -35.4664    8.6111   34.7704 C.ar    1  UNL1        0.0001
     28 C         -36.0962    9.5373   35.6507 C.ar    1  UNL1        0.0046
     29 C         -33.5726    8.9505   35.7636 C.ar    1  UNL1        0.0001
     30 C         -34.0434    9.7982   36.6455 C.ar    1  UNL1        0.0046
     31 C         -35.3472   10.1306   36.6124 C.ar    1  UNL1        0.0550
     32 C         -35.9658   11.0878   37.5628 C.2     1  UNL1        0.2648
     33 N         -35.2326   11.6292   38.4016 N.am    1  UNL1       -0.1998
     34 O         -37.1158   11.4802   37.3026 O.2     1  UNL1       -0.2684
     35 C         -35.7439   12.5872   39.3711 C.3     1  UNL1        0.1388
@<TRIPOS>BOND
     1     1     2    1
     2     5     8    1
     3     8     9   am
     4     8    10    2
     5     3    11    1
     6    16    17    1
     7    17    18   am
     8    17    19    2
     9    18    20    1
    10    23    26    1
    11    31    32    1
    12    32    33   am
    13    32    34    2
    14    33    35    1
    15    20    21   ar
    16    21    22   ar
    17    22    23   ar
    18    23    24   ar
    19    24    25   ar
    20    25    20   ar
    21     2     3   ar
    22     3     4   ar
    23     4     5   ar
    24     5     6   ar
    25     6     7   ar
    26     7     2   ar
    27    26    27   ar
    28    27    28   ar
    29    28    31   ar
    30    31    30   ar
    31    30    29   ar
    32    29    26   ar
    33    11    12   ar
    34    12    13   ar
    35    13    16   ar
    36    16    15   ar
    37    15    14   ar
    38    14    11   ar
