@<TRIPOS>MOLECULE
No_501-gen_results/8p0m/2024-11-26-14-13-15/
 35 38 0 0 0
SMALL
GASTEIGER

@<TRIPOS>ATOM
      1 C         -28.0162   -0.8135   28.8779 C.ar    1  UNL1        0.0046
      2 C         -27.0636   -0.1190   28.6079 C.ar    1  UNL1        0.0043
      3 C         -27.0010    0.6913   27.4910 C.ar    1  UNL1        0.0552
      4 C         -25.8548    1.4825   27.0830 C.ar    1  UNL1        0.0108
      5 C         -24.6901    1.4526   27.8807 C.ar    1  UNL1        0.0760
      6 C         -24.7379    0.6010   29.0416 C.ar    1  UNL1       -0.0161
      7 C         -25.8234   -0.1688   29.3887 C.ar    1  UNL1       -0.0036
      8 C         -28.0352   -1.4960   30.2343 C.ar    1  UNL1        0.0536
      9 C         -26.8424   -1.7341   30.9037 C.ar    1  UNL1        0.0045
     10 C         -25.7456   -0.9655   30.5714 C.ar    1  UNL1       -0.0002
     11 C         -28.0939    0.7867   26.5026 C.2     1  UNL1        0.2648
     12 O         -29.0417    0.4080   26.6294 O.2     1  UNL1       -0.2684
     13 N         -27.8814    1.7026   25.4781 N.am    1  UNL1       -0.2013
     14 C         -28.8763    1.8785   24.4100 C.3     1  UNL1        0.1201
     15 C         -23.4256    0.5923   29.8585 C.3     1  UNL1        0.0226
     16 C         -22.3419   -0.2113   29.4120 C.3     1  UNL1        0.0047
     17 C         -23.5188    2.2640   27.5220 C.2     1  UNL1        0.3874
     18 O         -22.7839    2.7197   28.3439 O.co2   1  UNL1       -0.2406
     19 O         -23.3184    2.6322   26.2814 O.co2   1  UNL1       -0.2406
     20 C         -29.2929    3.1036   24.3574 C.3     1  UNL1        0.0498
     21 C         -30.3743    3.4884   25.1327 C.ar    1  UNL1       -0.0204
     22 C         -30.9633    4.6724   25.0853 C.ar    1  UNL1       -0.0042
     23 C         -31.9563    5.1409   26.0207 C.ar    1  UNL1       -0.0003
     24 C         -32.3510    4.1987   27.0034 C.ar    1  UNL1       -0.0000
     25 C         -31.7367    2.9804   27.0921 C.ar    1  UNL1       -0.0003
     26 C         -30.7625    2.6453   26.2596 C.ar    1  UNL1       -0.0042
     27 C         -29.2205   -2.3310   30.5899 C.2     1  UNL1        0.2490
     28 O         -29.1891   -3.4591   30.7775 O.2     1  UNL1       -0.2699
     29 N         -30.4227   -1.6728   30.6291 N.am    1  UNL1       -0.2761
     30 C         -30.6785   -0.2944   30.4405 C.3     1  UNL1        0.0937
     31 C         -32.0809   -0.0175   30.2161 C.3     1  UNL1        0.0216
     32 C         -32.7649   -0.4829   29.5697 C.3     1  UNL1        0.0035
     33 C         -32.5028   -1.9476   29.2796 C.3     1  UNL1        0.0216
     34 C         -31.4352   -2.4403   29.8657 C.3     1  UNL1        0.0937
     35 C         -23.4307    1.2590   31.0987 C.3     1  UNL1        0.0047
@<TRIPOS>BOND
     1     3    11    1
     2    11    12    2
     3    11    13   am
     4    13    14    1
     5     6    15    1
     6    15    16    1
     7     5    17    1
     8    17    18   ar
     9    17    19   ar
    10    14    20    1
    11    20    21    1
    12     8    27    1
    13    27    28    2
    14    27    29   am
    15    29    30    1
    16    31    32    1
    17    29    34    1
    18    33    34    1
    19    15    35    1
    20    30    31    1
    21    32    33    1
    22     2     3   ar
    23     3     4   ar
    24     4     5   ar
    25     5     6   ar
    26     6     7   ar
    27     1     2   ar
    28     2     7   ar
    29     7    10   ar
    30    10     9   ar
    31     9     8   ar
    32     8     1   ar
    33    21    22   ar
    34    22    23   ar
    35    23    24   ar
    36    24    25   ar
    37    25    26   ar
    38    26    21   ar
