@<TRIPOS>MOLECULE
No_502-gen_results/8p0m/2024-11-26-14-13-15/
 13 14 0 0 0
SMALL
GASTEIGER

@<TRIPOS>ATOM
      1 C         -28.0162   -0.8135   28.8779 C.ar    1  UNL1        0.0000
      2 C         -28.4690   -0.7850   29.8287 C.ar    1  UNL1        0.0000
      3 C         -27.1356    0.2359   28.5352 C.ar    1  UNL1        0.0000
      4 C         -26.8745    1.2825   29.3982 C.ar    1  UNL1        0.0002
      5 C         -27.5070    1.2380   30.6295 C.ar    1  UNL1        0.0000
      6 C         -28.3293    0.1745   30.9350 C.ar    1  UNL1        0.0000
      7 C         -26.3848    0.5209   27.2533 C.ar    1  UNL1        0.0002
      8 C         -25.1527    0.6094   27.2133 C.ar    1  UNL1        0.0066
      9 C         -24.5102    1.3909   28.2868 C.ar    1  UNL1        0.0798
     10 C         -23.1059    1.7432   28.2856 C.2     1  UNL1        0.3878
     11 C         -25.3788    1.6540   29.5075 C.ar    1  UNL1        0.0066
     12 O         -22.4210    1.7762   29.2690 O.co2   1  UNL1       -0.2406
     13 O         -22.5614    2.0764   27.1087 O.co2   1  UNL1       -0.2406
@<TRIPOS>BOND
     1     9    10    1
     2    10    12   ar
     3    10    13   ar
     4     1     2   ar
     5     2     6   ar
     6     6     5   ar
     7     5     4   ar
     8     3     1   ar
     9     3     4   ar
    10     4    11   ar
    11    11     9   ar
    12     9     8   ar
    13     8     7   ar
    14     7     3   ar
