@<TRIPOS>MOLECULE
No_503-gen_results/8p0m/2024-11-26-14-13-15/
 20 22 0 0 0
SMALL
GASTEIGER

@<TRIPOS>ATOM
      1 C         -28.0162   -0.8135   28.8779 C.ar    1  UNL1        0.0384
      2 C         -28.4690   -0.7850   29.8287 C.ar    1  UNL1        0.1488
      3 C         -28.1816    0.4277   28.1134 C.ar    1  UNL1        0.0136
      4 C         -27.4498    0.6435   26.8500 C.ar    1  UNL1        0.0577
      5 C         -27.8596    1.4573   25.9076 C.ar    1  UNL1        0.0114
      6 C         -29.4263    0.1097   30.4178 C.ar    1  UNL1        0.0376
      7 C         -29.6233    1.2198   29.7351 C.ar    1  UNL1        0.0032
      8 C         -28.9609    1.4529   28.5513 C.ar    1  UNL1        0.0010
      9 C         -28.7869    2.5467   26.3167 C.ar    1  UNL1        0.0009
     10 C         -29.4265    2.4288   27.5639 C.ar    1  UNL1        0.0001
     11 CL        -26.4613   -0.6296   26.3303 Cl      1  UNL1       -0.0822
     12 O         -28.2380   -2.0054   30.7282 O.3     1  UNL1       -0.4210
     13 C         -27.8395   -3.1007   30.4424 C.2     1  UNL1        0.3457
     14 C         -26.5921   -3.2814   29.9063 C.ar    1  UNL1        0.0760
     15 C         -26.0493   -4.5206   29.4338 C.ar    1  UNL1        0.0065
     16 C         -24.8306   -4.5920   28.8329 C.ar    1  UNL1        0.0002
     17 C         -24.0816   -3.3891   28.6496 C.ar    1  UNL1        0.0000
     18 C         -25.5491   -2.2834   29.5860 C.ar    1  UNL1        0.0065
     19 C         -24.4334   -2.2580   29.1062 C.ar    1  UNL1        0.0002
     20 O         -28.5250   -4.1187   30.6912 O.2     1  UNL1       -0.2445
@<TRIPOS>BOND
     1     4    11    1
     2     2    12    1
     3    12    13    1
     4    13    14    1
     5    13    20    2
     6    14    15   ar
     7    15    16   ar
     8    16    17   ar
     9    17    19   ar
    10    19    18   ar
    11    18    14   ar
    12     3     4   ar
    13     4     5   ar
    14     5     9   ar
    15     9    10   ar
    16    10     8   ar
    17     1     2   ar
    18     2     6   ar
    19     6     7   ar
    20     7     8   ar
    21     8     3   ar
    22     3     1   ar
