@<TRIPOS>MOLECULE
No_504-gen_results/8p0m/2024-11-26-14-13-15/
 32 35 0 0 0
SMALL
GASTEIGER

@<TRIPOS>ATOM
      1 C         -28.0162   -0.8135   28.8779 C.3     1  UNL1        0.0783
      2 C         -28.4690   -0.7850   29.8287 C.3     1  UNL1        0.1693
      3 C         -27.0871    0.2903   28.6377 C.3     1  UNL1        0.1648
      4 C         -26.0238    0.3644   29.2526 C.3     1  UNL1        0.0372
      5 C         -27.5370   -0.6187   31.0883 C.3     1  UNL1        0.0433
      6 C         -26.3844    0.1834   30.8012 C.3     1  UNL1        0.0067
      7 O         -29.5100   -1.6195   30.2653 O.3     1  UNL1       -0.4786
      8 C         -30.4605   -1.1092   31.0702 C.ar    1  UNL1        0.1488
      9 C         -30.8147   -0.1051   31.1543 C.ar    1  UNL1        0.0915
     10 C         -31.8694    0.3989   31.9958 C.ar    1  UNL1        0.0145
     11 C         -32.5186   -0.5929   32.7638 C.ar    1  UNL1        0.0011
     12 C         -31.0836   -2.2522   31.9469 C.ar    1  UNL1        0.0378
     13 C         -32.0867   -1.8768   32.7514 C.ar    1  UNL1        0.0032
     14 C         -24.8585    1.2628   29.0734 C.3     1  UNL1        0.0287
     15 C         -24.1512    1.0960   27.9803 C.ar    1  UNL1       -0.0260
     16 C         -24.3522    1.2734   26.9039 C.ar    1  UNL1       -0.0046
     17 C         -23.3462    1.2611   25.8066 C.ar    1  UNL1       -0.0003
     18 C         -22.6664    0.7835   28.3110 C.ar    1  UNL1       -0.0258
     19 C         -22.2323    0.1278   29.4783 C.3     1  UNL1        0.0307
     20 C         -22.0682    1.5694   26.0851 C.ar    1  UNL1       -0.0003
     21 C         -21.6444    1.1154   27.3606 C.ar    1  UNL1       -0.0046
     22 C         -29.3284    0.4552   30.0118 C.3     1  UNL1        0.2182
     23 CL        -31.2144    0.4345   29.9018 Cl      1  UNL1       -0.0791
     24 C         -28.9717    1.4942   29.0181 C.2     1  UNL1        0.1979
     25 C         -29.1522    1.5410   31.3219 C.3     1  UNL1        0.0435
     26 F         -29.5752    1.5311   29.8330 F       1  UNL1       -0.2288
     27 C         -28.9444    2.8991   28.9840 C.3     1  UNL1        0.1398
     28 C         -28.5699    2.9064   31.1830 C.3     1  UNL1        0.0050
     29 CL        -29.1684    3.8817   27.6717 Cl      1  UNL1       -0.1070
     30 C         -28.5652    3.6016   30.1581 C.3     1  UNL1        0.0240
     31 O         -28.6313    1.1143   27.8431 O.2     1  UNL1       -0.2919
     32 F         -26.6784    0.3566   27.2376 F       1  UNL1       -0.2372
@<TRIPOS>BOND
     1     1     2    1
     2     1     3    1
     3     2     5    1
     4     4     6    1
     5     2     7    1
     6     7     8    1
     7     4    14    1
     8    14    15    1
     9    18    19    1
    10     2    22    1
    11     9    23    1
    12    22    24    1
    13    22    25    1
    14    22    26    1
    15    24    27    1
    16    27    29    1
    17    27    30    1
    18    28    30    1
    19    24    31    2
    20     3    32    1
    21     3     4    1
    22     6     5    1
    23    25    28    1
    24    15    16   ar
    25    16    17   ar
    26    17    20   ar
    27    20    21   ar
    28    21    18   ar
    29    18    15   ar
    30     8     9   ar
    31     9    10   ar
    32    10    11   ar
    33    11    13   ar
    34    13    12   ar
    35    12     8   ar
