@<TRIPOS>MOLECULE
No_505-gen_results/8p0m/2024-11-26-14-13-15/
 9 9 0 0 0
SMALL
GASTEIGER

@<TRIPOS>ATOM
      1 F         -28.0727   -1.2542   28.5316 F       1  UNL1       -0.1933
      2 C         -27.3591   -0.3792   28.7224 C.3     1  UNL1        0.3410
      3 C         -26.3323   -0.6441   29.4520 C.ar    1  UNL1        0.0436
      4 C         -25.2562    0.3203   29.7818 C.ar    1  UNL1        0.0011
      5 C         -24.0409    0.1023   30.5300 C.ar    1  UNL1       -0.0001
      6 C         -23.9057   -1.2370   30.9880 C.ar    1  UNL1       -0.0000
      7 C         -24.8275   -2.1880   30.7131 C.ar    1  UNL1       -0.0001
      8 C         -25.9279   -1.9278   29.9544 C.ar    1  UNL1        0.0011
      9 F         -27.9776    0.7150   29.3194 F       1  UNL1       -0.1933
@<TRIPOS>BOND
     1     1     2    1
     2     2     9    1
     3     2     3    1
     4     3     4   ar
     5     4     5   ar
     6     5     6   ar
     7     6     7   ar
     8     7     8   ar
     9     8     3   ar
