@<TRIPOS>MOLECULE
No_506-gen_results/8p0m/2024-11-26-14-13-15/
 21 22 0 0 0
SMALL
GASTEIGER

@<TRIPOS>ATOM
      1 F         -28.0727   -1.2542   28.5316 F       1  UNL1       -0.2018
      2 C         -27.3591   -0.3792   28.7224 C.ar    1  UNL1        0.1673
      3 C         -26.3323   -0.6441   29.4520 C.ar    1  UNL1        0.1676
      4 C         -25.2562    0.3203   29.7818 C.ar    1  UNL1        0.0385
      5 C         -25.4242    1.6275   29.2026 C.ar    1  UNL1        0.0821
      6 C         -26.5263    1.8254   28.4032 C.ar    1  UNL1        0.0090
      7 C         -27.4513    0.8601   28.1355 C.ar    1  UNL1        0.0299
      8 C         -28.5362    1.1997   27.2520 C.ar    1  UNL1        0.0022
      9 C         -28.3742    1.8466   26.1533 C.ar    1  UNL1        0.0001
     10 C         -29.4528    2.1733   25.1922 C.ar    1  UNL1       -0.0001
     11 C         -30.6813    1.6095   25.4510 C.ar    1  UNL1        0.0039
     12 C         -30.8316    0.8133   26.5788 C.ar    1  UNL1        0.0714
     13 C         -29.8103    0.5919   27.4511 C.ar    1  UNL1        0.0039
     14 C         -24.4314    2.6340   29.5104 C.2     1  UNL1        0.3878
     15 O         -24.1663    3.5850   28.7938 O.co2   1  UNL1       -0.2406
     16 O         -23.6847    2.4501   30.6198 O.co2   1  UNL1       -0.2406
     17 C         -32.1700    0.2318   26.8349 C.3     1  UNL1        0.4186
     18 F         -32.8521    0.4115   27.7886 F       1  UNL1       -0.1659
     19 F         -31.9536   -1.1488   26.7479 F       1  UNL1       -0.1659
     20 F         -32.9524    0.3942   25.7357 F       1  UNL1       -0.1659
     21 F         -26.0623   -1.8164   30.0411 F       1  UNL1       -0.2018
@<TRIPOS>BOND
     1     1     2    1
     2     7     8    1
     3     5    14    1
     4    14    15   ar
     5    14    16   ar
     6    12    17    1
     7    17    18    1
     8    17    19    1
     9    17    20    1
    10     3    21    1
    11     2     3   ar
    12     3     4   ar
    13     4     5   ar
    14     5     6   ar
    15     6     7   ar
    16     7     2   ar
    17     8     9   ar
    18     9    10   ar
    19    10    11   ar
    20    11    12   ar
    21    12    13   ar
    22    13     8   ar
