@<TRIPOS>MOLECULE
No_508-gen_results/8p0m/2024-11-26-14-13-15/
 35 38 0 0 0
SMALL
GASTEIGER

@<TRIPOS>ATOM
      1 O         -28.1229   -1.3353   28.4874 O.2     1  UNL1       -0.2726
      2 C         -27.4806   -0.4044   28.7094 C.2     1  UNL1        0.2497
      3 C         -27.1904    0.2460   29.5268 C.3     1  UNL1        0.1115
      4 N         -26.6871   -0.0001   27.4423 N.am    1  UNL1       -0.1793
      5 C         -27.6511    0.1259   30.8798 C.2     1  UNL1        0.0663
      6 C         -25.7508    1.0047   27.4342 C.ar    1  UNL1        0.0694
      7 C         -25.5610    1.6907   28.6120 C.ar    1  UNL1       -0.0060
      8 C         -26.1559    1.3682   29.6808 C.3     1  UNL1        0.0414
      9 C         -28.6339    0.6373   31.3488 C.2     1  UNL1        0.0050
     10 C         -29.2794    1.7223   30.5881 C.ar    1  UNL1        0.0272
     11 C         -30.4139    2.3959   31.1933 C.ar    1  UNL1       -0.0020
     12 C         -31.0573    3.4220   30.5118 C.ar    1  UNL1       -0.0216
     13 C         -30.5835    3.7567   29.1950 C.ar    1  UNL1        0.0025
     14 C         -29.5204    3.0690   28.6229 C.ar    1  UNL1        0.0807
     15 C         -28.9065    2.1131   29.3057 C.ar    1  UNL1        0.1444
     16 F         -28.9997    0.9518   28.4889 F       1  UNL1       -0.2040
     17 C         -29.2090    3.4701   27.2201 C.2     1  UNL1        0.2515
     18 N         -28.1767    3.9519   26.9913 N.am    1  UNL1       -0.2702
     19 O         -29.9272    2.8414   26.2702 O.2     1  UNL1       -0.2698
     20 C         -25.1151    1.2729   26.1763 C.ar    1  UNL1        0.0163
     21 C         -24.1176    2.2675   26.1475 C.ar    1  UNL1        0.0013
     22 C         -23.8769    3.0330   27.3373 C.ar    1  UNL1       -0.0002
     23 C         -24.5189    2.7582   28.5042 C.ar    1  UNL1       -0.0030
     24 C         -27.6080    4.2096   25.6028 C.3     1  UNL1        0.1155
     25 C         -27.3648    4.8052   28.0394 C.3     1  UNL1        0.1205
     26 C         -26.6662    5.9354   27.4864 C.ar    1  UNL1       -0.0023
     27 C         -27.1413    7.2661   27.6411 C.ar    1  UNL1       -0.0026
     28 C         -26.4009    8.2913   27.1052 C.ar    1  UNL1       -0.0003
     29 C         -25.0633    8.0728   26.6042 C.ar    1  UNL1       -0.0000
     30 C         -24.5784    6.7547   26.6172 C.ar    1  UNL1       -0.0003
     31 C         -25.3555    5.7151   27.0899 C.ar    1  UNL1       -0.0026
     32 C         -26.9381   -0.9430   31.7111 C.2     1  UNL1        0.3843
     33 O         -26.1873   -1.5734   31.3385 O.co2   1  UNL1       -0.2409
     34 O         -27.3385   -0.9529   32.9784 O.co2   1  UNL1       -0.2409
     35 C         -32.0690    4.2273   31.1829 C.3     1  UNL1        0.0310
@<TRIPOS>BOND
     1     1     2    2
     2     2     3    1
     3     2     4   am
     4     3     5    1
     5     3     8    1
     6     5     9    2
     7     9    10    1
     8    15    16    1
     9    14    17    1
    10    17    18   am
    11    17    19    2
    12    18    24    1
    13    18    25    1
    14     5    32    1
    15    32    33   ar
    16    32    34   ar
    17    12    35    1
    18    25    26    1
    19     8     7    1
    20     6     4    1
    21     6     7   ar
    22     7    23   ar
    23    23    22   ar
    24    22    21   ar
    25    21    20   ar
    26    20     6   ar
    27    10    11   ar
    28    11    12   ar
    29    12    13   ar
    30    13    14   ar
    31    14    15   ar
    32    15    10   ar
    33    26    27   ar
    34    27    28   ar
    35    28    29   ar
    36    29    30   ar
    37    30    31   ar
    38    31    26   ar
