@<TRIPOS>MOLECULE
No_509-gen_results/8p0m/2024-11-26-14-13-15/
 12 13 0 0 0
SMALL
GASTEIGER

@<TRIPOS>ATOM
      1 C         -28.0162   -0.8135   28.8779 C.ar    1  UNL1        0.0000
      2 C         -28.4690   -0.7850   29.8287 C.ar    1  UNL1        0.0000
      3 C         -26.5455   -0.8762   28.8500 C.ar    1  UNL1        0.0000
      4 C         -25.6825   -0.7773   27.6829 C.ar    1  UNL1        0.0007
      5 C         -27.9181   -1.0034   31.1877 C.ar    1  UNL1        0.0000
      6 C         -26.5308   -1.0794   31.2463 C.ar    1  UNL1        0.0000
      7 C         -25.7798   -1.0462   30.0905 C.ar    1  UNL1        0.0007
      8 C         -24.3676   -0.2501   27.7917 C.ar    1  UNL1        0.0103
      9 C         -23.6808   -0.4762   29.0175 C.ar    1  UNL1        0.0684
     10 C         -24.3689   -0.7866   30.1443 C.ar    1  UNL1        0.0103
     11 C         -22.2194   -0.1933   29.0554 C.1     1  UNL1        0.1004
     12 N         -21.3334    0.7023   28.9229 N.1     1  UNL1       -0.1908
@<TRIPOS>BOND
     1     9    11    1
     2    11    12    3
     3     1     2   ar
     4     2     5   ar
     5     5     6   ar
     6     6     7   ar
     7     3     1   ar
     8     3     4   ar
     9     4     8   ar
    10     8     9   ar
    11     9    10   ar
    12    10     7   ar
    13     7     3   ar
