@<TRIPOS>MOLECULE
No_51-gen_results/8p0m/2024-11-26-14-13-15/
 8 8 0 0 0
SMALL
GASTEIGER

@<TRIPOS>ATOM
      1 C         -28.0162   -0.8135   28.8779 C.2     1  UNL1        0.2267
      2 C         -27.0636   -0.1189   28.6079 C.2     1  UNL1        0.0118
      3 C         -26.9716    0.7139   27.5060 C.3     1  UNL1        0.1013
      4 C         -25.8206    1.4910   27.1160 C.1     1  UNL1       -0.0865
      5 C         -24.6562    1.4242   27.9180 C.1     1  UNL1       -0.0904
      6 C         -24.6968    0.5646   29.0611 C.3     1  UNL1        0.0805
      7 C         -25.8036   -0.1980   29.3950 C.3     1  UNL1        0.0403
      8 O         -29.1259   -0.3061   28.6845 O.2     1  UNL1       -0.2838
@<TRIPOS>BOND
     1     1     2    2
     2     2     3    1
     3     3     4    1
     4     4     5    3
     5     5     6    1
     6     2     7    1
     7     6     7    1
     8     1     8    1
