@<TRIPOS>MOLECULE
No_510-gen_results/8p0m/2024-11-26-14-13-15/
 18 18 0 0 0
SMALL
GASTEIGER

@<TRIPOS>ATOM
      1 O         -28.1229   -1.3353   28.4874 O.2     1  UNL1       -0.2684
      2 C         -27.4806   -0.4044   28.7094 C.2     1  UNL1        0.2648
      3 N         -27.2412    0.3910   29.5098 N.am    1  UNL1       -0.1998
      4 C         -26.6424    0.1187   27.3495 C.ar    1  UNL1        0.0550
      5 C         -26.8725    0.0603   26.3315 C.ar    1  UNL1        0.0046
      6 C         -25.9614    0.5946   25.2636 C.ar    1  UNL1        0.0001
      7 C         -24.7093    1.0619   25.6741 C.ar    1  UNL1       -0.0000
      8 C         -24.4120    1.1106   26.9923 C.ar    1  UNL1        0.0002
      9 C         -25.3014    0.6894   27.9046 C.ar    1  UNL1        0.0046
     10 C         -28.0930    0.0015   30.8177 C.3     1  UNL1        0.1388
     11 C         -23.1359    1.7062   27.3735 C.2     1  UNL1        0.0078
     12 C         -22.5056    1.5033   28.5081 C.2     1  UNL1        0.1232
     13 C         -21.0470    1.7638   28.5564 C.3     1  UNL1        0.3473
     14 C         -23.1276    0.9901   29.6529 C.2     1  UNL1        0.3891
     15 F         -20.5770    1.1354   27.4555 F       1  UNL1       -0.1930
     16 O         -22.9342    0.4046   30.4510 O.co2   1  UNL1       -0.2407
     17 O         -24.1619    1.9857   30.1236 O.co2   1  UNL1       -0.2407
     18 F         -20.7116    2.9657   28.4038 F       1  UNL1       -0.1930
@<TRIPOS>BOND
     1     1     2    2
     2     2     3   am
     3     2     4    1
     4     3    10    1
     5     8    11    1
     6    11    12    2
     7    12    13    1
     8    12    14    1
     9    13    15    1
    10    14    16   ar
    11    14    17   ar
    12    13    18    1
    13     4     5   ar
    14     5     6   ar
    15     6     7   ar
    16     7     8   ar
    17     8     9   ar
    18     9     4   ar
