@<TRIPOS>MOLECULE
No_511-gen_results/8p0m/2024-11-26-14-13-15/
 9 9 0 0 0
SMALL
GASTEIGER

@<TRIPOS>ATOM
      1 C         -28.0162   -0.8135   28.8779 C.ar    1  UNL1        0.0191
      2 C         -27.0636   -0.1189   28.6079 C.ar    1  UNL1        0.0810
      3 N         -25.8176   -0.3427   29.0487 N.ar    1  UNL1       -0.2438
      4 C         -25.6067   -1.4414   29.8929 C.ar    1  UNL1        0.0988
      5 C         -26.6760   -2.2193   30.2363 C.ar    1  UNL1        0.0207
      6 C         -27.8635   -1.9317   29.7671 C.ar    1  UNL1        0.0031
      7 C         -27.1276    1.1048   27.7424 C.2     1  UNL1        0.0145
      8 C         -26.1509    1.9474   27.6712 C.2     1  UNL1       -0.0242
      9 C         -24.8150    1.5412   28.2345 C.3     1  UNL1        0.0307
@<TRIPOS>BOND
     1     2     7    1
     2     7     8    2
     3     8     9    1
     4     1     2   ar
     5     2     3   ar
     6     3     4   ar
     7     4     5   ar
     8     5     6   ar
     9     6     1   ar
