@<TRIPOS>MOLECULE
No_512-gen_results/8p0m/2024-11-26-14-13-15/
 11 11 0 0 0
SMALL
GASTEIGER

@<TRIPOS>ATOM
      1 C         -28.0162   -0.8135   28.8779 C.ar    1  UNL1        0.0296
      2 C         -28.4690   -0.7850   29.8287 C.ar    1  UNL1        0.0062
      3 C         -28.1960    0.3478   28.0550 C.ar    1  UNL1        0.1401
      4 C         -29.0191    1.3501   28.3782 C.ar    1  UNL1        0.0296
      5 C         -29.4107    0.1803   30.3782 C.ar    1  UNL1        0.0716
      6 C         -29.6059    1.2495   29.6193 C.ar    1  UNL1        0.0062
      7 F         -27.5401    0.3372   26.8421 F       1  UNL1       -0.2042
      8 C         -30.0196   -0.0247   31.7541 C.3     1  UNL1        0.4186
      9 F         -30.1981    0.9684   32.4420 F       1  UNL1       -0.1659
     10 F         -29.2170   -0.8967   32.4652 F       1  UNL1       -0.1659
     11 F         -31.2037   -0.6791   31.5248 F       1  UNL1       -0.1659
@<TRIPOS>BOND
     1     3     7    1
     2     5     8    1
     3     8     9    1
     4     8    10    1
     5     8    11    1
     6     1     2   ar
     7     2     5   ar
     8     5     6   ar
     9     6     4   ar
    10     4     3   ar
    11     3     1   ar
