@<TRIPOS>MOLECULE
No_514-gen_results/8p0m/2024-11-26-14-13-15/
 24 27 0 0 0
SMALL
GASTEIGER

@<TRIPOS>ATOM
      1 C         -28.0162   -0.8135   28.8779 C.ar    1  UNL1        0.0045
      2 C         -28.4690   -0.7850   29.8287 C.ar    1  UNL1        0.0536
      3 C         -27.0871    0.2903   28.6377 C.ar    1  UNL1        0.0001
      4 C         -26.0238    0.3644   29.2526 C.ar    1  UNL1        0.0000
      5 C         -27.5370   -0.6187   31.0883 C.ar    1  UNL1        0.0045
      6 C         -26.3844    0.1834   30.8012 C.ar    1  UNL1        0.0001
      7 C         -29.6173   -1.6885   30.3080 C.2     1  UNL1        0.2493
      8 O         -29.5590   -2.7581   30.5861 O.2     1  UNL1       -0.2699
      9 N         -30.8543   -1.0256   30.2357 N.am    1  UNL1       -0.2716
     10 C         -31.9290   -1.3243   30.2101 C.3     1  UNL1        0.0987
     11 C         -32.8507   -1.1248   29.6014 C.3     1  UNL1        0.0476
     12 C         -32.6519   -0.0862   28.5579 C.ar    1  UNL1       -0.0228
     13 C         -33.6308    0.3550   27.6732 C.ar    1  UNL1       -0.0045
     14 C         -33.3058    1.3903   26.7677 C.ar    1  UNL1       -0.0003
     15 C         -31.9983    1.9270   26.7485 C.ar    1  UNL1       -0.0003
     16 C         -31.0315    1.4464   27.6269 C.ar    1  UNL1       -0.0029
     17 C         -31.3541    0.5078   28.4818 C.ar    1  UNL1       -0.0062
     18 C         -30.6155    0.2083   29.4021 C.3     1  UNL1        0.1201
     19 C         -26.9802    0.9017   27.2121 C.ar    1  UNL1        0.0000
     20 C         -27.6708    1.9977   27.0505 C.ar    1  UNL1        0.0000
     21 C         -26.3601    0.2200   26.2141 C.ar    1  UNL1        0.0000
     22 C         -27.6353    2.6094   25.7583 C.ar    1  UNL1        0.0000
     23 C         -26.3071    0.7383   24.9224 C.ar    1  UNL1        0.0000
     24 C         -26.9431    1.9294   24.6669 C.ar    1  UNL1        0.0000
@<TRIPOS>BOND
     1     2     7    1
     2     7     8    2
     3     7     9   am
     4     9    10    1
     5    11    12    1
     6     9    18    1
     7    17    18    1
     8     3    19    1
     9    10    11    1
    10    12    13   ar
    11    13    14   ar
    12    14    15   ar
    13    15    16   ar
    14    16    17   ar
    15    17    12   ar
    16    19    20   ar
    17    20    22   ar
    18    22    24   ar
    19    24    23   ar
    20    23    21   ar
    21    21    19   ar
    22     1     2   ar
    23     2     5   ar
    24     5     6   ar
    25     6     4   ar
    26     4     3   ar
    27     3     1   ar
