@<TRIPOS>MOLECULE
No_516-gen_results/8p0m/2024-11-26-14-13-15/
 9 9 0 0 0
SMALL
GASTEIGER

@<TRIPOS>ATOM
      1 O         -28.1229   -1.3353   28.4874 O.2     1  UNL1       -0.2730
      2 C         -27.4806   -0.4044   28.7094 C.2     1  UNL1        0.2450
      3 C         -27.1904    0.2460   29.5268 C.3     1  UNL1        0.1002
      4 N         -26.6021   -0.1576   27.5515 N.am    1  UNL1       -0.2052
      5 C         -25.6421    0.9031   27.5822 C.3     1  UNL1        0.1152
      6 C         -26.2526    1.3734   29.7933 C.3     1  UNL1        0.0154
      7 C         -25.4742    1.6549   28.6932 C.3     1  UNL1        0.0243
      8 C         -28.0115    0.0221   30.9260 C.2     1  UNL1       -0.0173
      9 C         -28.5733   -1.0641   31.0536 C.2     1  UNL1       -0.0044
@<TRIPOS>BOND
     1     1     2    2
     2     2     3    1
     3     2     4   am
     4     3     6    1
     5     5     7    1
     6     3     8    1
     7     8     9    2
     8     6     7    1
     9     5     4    1
