@<TRIPOS>MOLECULE
No_517-gen_results/8p0m/2024-11-26-14-13-15/
 23 25 0 0 0
SMALL
GASTEIGER

@<TRIPOS>ATOM
      1 C         -28.0162   -0.8135   28.8779 C.ar    1  UNL1        0.0002
      2 C         -28.4690   -0.7850   29.8287 C.ar    1  UNL1        0.0000
      3 C         -27.1356    0.2359   28.5352 C.ar    1  UNL1        0.0064
      4 C         -26.8745    1.2825   29.3982 C.ar    1  UNL1        0.0798
      5 C         -27.5070    1.2380   30.6295 C.ar    1  UNL1        0.0066
      6 C         -28.3293    0.1745   30.9350 C.ar    1  UNL1        0.0002
      7 C         -26.4409    0.0880   27.2474 C.ar    1  UNL1        0.0003
      8 C         -26.9306    0.6938   26.0589 C.ar    1  UNL1        0.0029
      9 C         -25.1027   -0.4086   27.1966 C.ar    1  UNL1        0.0000
     10 C         -28.1972    1.1745   26.0183 C.ar    1  UNL1        0.0340
     11 C         -29.0889    0.9610   25.5998 C.ar    1  UNL1        0.1386
     12 C         -30.3723    1.6696   25.6147 C.ar    1  UNL1        0.0369
     13 C         -26.2783    0.1013   24.9157 C.ar    1  UNL1        0.0001
     14 C         -30.3675    2.8719   26.3382 C.ar    1  UNL1        0.0031
     15 C         -29.2172    3.4006   26.8588 C.ar    1  UNL1        0.0002
     16 C         -28.0735    2.6841   26.7656 C.ar    1  UNL1        0.0030
     17 C         -24.1627   -0.0351   26.4780 C.ar    1  UNL1        0.0000
     18 C         -24.8769    0.2509   25.0467 C.ar    1  UNL1        0.0000
     19 C         -25.9536    2.4037   29.1270 C.2     1  UNL1        0.3878
     20 O         -26.3444    3.5196   29.1129 O.co2   1  UNL1       -0.2406
     21 O         -24.6571    2.1038   28.9333 O.co2   1  UNL1       -0.2406
     22 O         -29.3041   -0.2558   24.9832 O.3     1  UNL1       -0.4714
     23 C         -29.2011   -0.4600   23.6760 C.3     1  UNL1        0.2525
@<TRIPOS>BOND
     1     3     7    1
     2     8    10    1
     3     4    19    1
     4    19    20   ar
     5    19    21   ar
     6    11    22    1
     7    22    23    1
     8     1     2   ar
     9     2     6   ar
    10     6     5   ar
    11     5     4   ar
    12     4     3   ar
    13     3     1   ar
    14     7     8   ar
    15     8    13   ar
    16    13    18   ar
    17    18    17   ar
    18    17     9   ar
    19     9     7   ar
    20    10    11   ar
    21    11    12   ar
    22    12    14   ar
    23    14    15   ar
    24    15    16   ar
    25    16    10   ar
