@<TRIPOS>MOLECULE
No_518-gen_results/8p0m/2024-11-26-14-13-15/
 12 12 0 0 0
SMALL
GASTEIGER

@<TRIPOS>ATOM
      1 C         -28.0162   -0.8135   28.8779 C.ar    1  UNL1        0.0799
      2 C         -27.0636   -0.1189   28.6079 C.ar    1  UNL1        0.0066
      3 C         -27.0010    0.6913   27.4910 C.ar    1  UNL1        0.0004
      4 C         -28.1373    0.7363   26.6350 C.ar    1  UNL1        0.0046
      5 C         -29.2360    0.0765   27.0690 C.ar    1  UNL1        0.0569
      6 C         -29.2177   -0.6429   28.1747 C.ar    1  UNL1        0.0112
      7 C         -28.0030   -1.6604   30.1266 C.2     1  UNL1        0.3878
      8 O         -28.6910   -1.7921   30.8886 O.co2   1  UNL1       -0.2406
      9 O         -26.7226   -2.2446   30.2650 O.co2   1  UNL1       -0.2406
     10 C         -30.4280    0.1662   26.1971 C.2     1  UNL1        0.2842
     11 O         -31.3179   -0.4656   26.3876 O.2     1  UNL1       -0.2667
     12 N         -30.2450    0.7309   24.9043 N.am    1  UNL1       -0.0837
@<TRIPOS>BOND
     1     1     7    1
     2     7     8   ar
     3     7     9   ar
     4     5    10    1
     5    10    11    2
     6    10    12   am
     7     1     2   ar
     8     2     3   ar
     9     3     4   ar
    10     4     5   ar
    11     5     6   ar
    12     6     1   ar
