@<TRIPOS>MOLECULE
No_519-gen_results/8p0m/2024-11-26-14-13-15/
 26 27 0 0 0
SMALL
GASTEIGER

@<TRIPOS>ATOM
      1 C         -28.0162   -0.8135   28.8779 C.ar    1  UNL1        0.0047
      2 C         -28.4690   -0.7850   29.8287 C.ar    1  UNL1        0.0536
      3 C         -26.5455   -0.8762   28.8500 C.ar    1  UNL1        0.0048
      4 C         -25.8041   -1.0324   30.0571 C.ar    1  UNL1        0.0564
      5 C         -30.0055   -0.7457   29.8978 C.2     1  UNL1        0.2490
      6 C         -26.5747   -1.0565   31.2005 C.ar    1  UNL1        0.0048
      7 C         -27.9251   -0.9738   31.1683 C.ar    1  UNL1        0.0047
      8 O         -30.6342   -0.0988   29.1602 O.2     1  UNL1       -0.2699
      9 N         -30.6957   -1.5907   30.8223 N.am    1  UNL1       -0.2752
     10 C         -32.1186   -1.6447   30.8177 C.3     1  UNL1        0.1049
     11 C         -24.3590   -1.0866   30.0431 C.2     1  UNL1        0.2810
     12 N         -23.7698   -1.6194   30.7690 N.am    1  UNL1       -0.1077
     13 O         -23.7422   -0.7683   28.9135 O.2     1  UNL1       -0.2669
     14 C         -32.5903   -2.6600   31.2880 C.3     1  UNL1        0.1235
     15 C         -31.8433   -3.6431   32.0464 C.3     1  UNL1        0.0232
     16 C         -30.4261   -3.5936   32.0027 C.3     1  UNL1        0.1155
     17 C         -29.8857   -2.6399   31.3267 C.3     1  UNL1        0.1022
     18 C         -29.7217   -4.7231   32.6948 C.3     1  UNL1        0.3991
     19 F         -28.8323   -5.2470   31.8572 F       1  UNL1       -0.1700
     20 F         -28.9895   -4.2473   33.7152 F       1  UNL1       -0.1700
     21 F         -30.4974   -5.6170   33.1749 F       1  UNL1       -0.1700
     22 N         -22.3396   -1.5646   30.8333 N.3     1  UNL1       -0.1066
     23 C         -34.0945   -2.8110   31.5017 C.2     1  UNL1        0.3660
     24 O         -34.7177   -3.5987   30.8593 O.co2   1  UNL1       -0.2456
     25 O         -34.6986   -1.9526   32.2875 O.co2   1  UNL1       -0.2456
     26 C         -21.9167   -0.3776   30.2633 C.3     1  UNL1        0.1343
@<TRIPOS>BOND
     1     2     5    1
     2     5     8    2
     3     5     9   am
     4     9    10    1
     5     4    11    1
     6    11    12   am
     7    11    13    2
     8    14    15    1
     9     9    17    1
    10    16    17    1
    11    16    18    1
    12    18    19    1
    13    18    20    1
    14    18    21    1
    15    12    22    1
    16    14    23    1
    17    23    24   ar
    18    23    25   ar
    19    22    26    1
    20    10    14    1
    21    15    16    1
    22     1     2   ar
    23     2     7   ar
    24     7     6   ar
    25     6     4   ar
    26     4     3   ar
    27     3     1   ar
