@<TRIPOS>MOLECULE
No_520-gen_results/8p0m/2024-11-26-14-13-15/
 27 29 0 0 0
SMALL
GASTEIGER

@<TRIPOS>ATOM
      1 C         -28.0162   -0.8135   28.8779 C.ar    1  UNL1        0.0302
      2 C         -27.0636   -0.1189   28.6079 C.ar    1  UNL1        0.1365
      3 C         -26.8756    1.1325   28.9134 C.ar    1  UNL1        0.0107
      4 C         -27.9014    1.8066   29.6436 C.ar    1  UNL1        0.0097
      5 C         -29.0458   -0.2316   29.7181 C.ar    1  UNL1        0.0137
      6 C         -28.9402    1.0517   30.0597 C.ar    1  UNL1        0.0575
      7 F         -26.0208   -0.6774   27.8774 F       1  UNL1       -0.2045
      8 CL        -30.1852    1.7778   31.0049 Cl      1  UNL1       -0.0823
      9 C         -25.6743    1.9341   28.4458 C.3     1  UNL1        0.0613
     10 C         -24.5397    1.7071   29.1762 C.2     1  UNL1        0.0580
     11 C         -24.3027    1.6298   30.4285 C.2     1  UNL1       -0.0193
     12 C         -25.4655    1.6674   31.3025 C.3     1  UNL1        0.0484
     13 C         -25.3469    2.9455   32.1678 C.ar    1  UNL1       -0.0035
     14 C         -26.4215    3.1143   33.1294 C.ar    1  UNL1        0.0632
     15 C         -26.6042    4.4059   33.6475 C.ar    1  UNL1        0.0158
     16 C         -25.6277    5.4161   33.4004 C.ar    1  UNL1        0.0013
     17 C         -24.5997    5.1869   32.5231 C.ar    1  UNL1       -0.0002
     18 C         -24.4890    3.9753   31.8652 C.ar    1  UNL1       -0.0027
     19 C         -23.3284    1.7170   28.2055 C.2     1  UNL1        0.3839
     20 O         -23.2922    2.4106   27.2394 O.co2   1  UNL1       -0.2409
     21 O         -22.2861    0.8491   28.4779 O.co2   1  UNL1       -0.2409
     22 C         -25.3746    0.5060   32.3795 C.3     1  UNL1        0.0427
     23 C         -24.2419    0.0039   32.6746 C.3     1  UNL1        0.0039
     24 C         -26.5045   -0.5656   32.0193 C.3     1  UNL1        0.0039
     25 C         -25.9497    1.0635   33.8398 C.3     1  UNL1        0.1832
     26 N         -26.3013    2.1744   34.1909 N.pl3   1  UNL1       -0.2204
     27 N         -26.1586    0.0619   34.8174 N.3     1  UNL1       -0.1092
@<TRIPOS>BOND
     1     2     7    1
     2     6     8    1
     3     3     9    1
     4     9    10    1
     5    10    11    2
     6    11    12    1
     7    10    19    1
     8    19    20   ar
     9    19    21   ar
    10    12    22    1
    11    22    23    1
    12    22    24    1
    13    22    25    1
    14    14    26    1
    15    25    26    1
    16    25    27    1
    17    12    13    1
    18    13    14   ar
    19    14    15   ar
    20    15    16   ar
    21    16    17   ar
    22    17    18   ar
    23    18    13   ar
    24     1     2   ar
    25     2     3   ar
    26     3     4   ar
    27     4     6   ar
    28     6     5   ar
    29     5     1   ar
