@<TRIPOS>MOLECULE
No_522-gen_results/8p0m/2024-11-26-14-13-15/
 9 9 0 0 0
SMALL
GASTEIGER

@<TRIPOS>ATOM
      1 C         -28.0162   -0.8135   28.8779 C.ar    1  UNL1        0.0165
      2 C         -27.0636   -0.1190   28.6079 C.ar    1  UNL1        0.0705
      3 C         -25.7923   -0.4302   29.0761 C.ar    1  UNL1        0.0165
      4 C         -25.5756   -1.5654   29.9363 C.ar    1  UNL1        0.0013
      5 C         -26.7354   -2.3004   30.2173 C.ar    1  UNL1        0.0001
      6 C         -27.9184   -1.9537   29.7629 C.ar    1  UNL1        0.0013
      7 N         -27.3307    1.0101   27.8524 N.pl3   1  UNL1       -0.2112
      8 C         -26.3102    1.7710   27.4869 C.2     1  UNL1        0.0857
      9 C         -25.0291    1.5736   27.8898 C.2     1  UNL1        0.0192
@<TRIPOS>BOND
     1     2     7    1
     2     7     8    1
     3     8     9    2
     4     1     2   ar
     5     2     3   ar
     6     3     4   ar
     7     4     5   ar
     8     5     6   ar
     9     6     1   ar
