@<TRIPOS>MOLECULE
No_523-gen_results/8p0m/2024-11-26-14-13-15/
 22 25 0 0 0
SMALL
GASTEIGER

@<TRIPOS>ATOM
      1 O         -28.1229   -1.3353   28.4874 O.2     1  UNL1       -0.2699
      2 C         -27.0637   -0.8242   28.8687 C.2     1  UNL1        0.2495
      3 C         -26.4017   -0.0623   28.6224 C.ar    1  UNL1        0.0535
      4 N         -26.5721   -1.5844   30.1172 N.am    1  UNL1       -0.2678
      5 C         -26.6982    0.9644   27.6453 C.ar    1  UNL1        0.0045
      6 C         -25.7832    1.8129   27.0351 C.ar    1  UNL1        0.0002
      7 C         -24.4346    1.9091   27.5889 C.ar    1  UNL1        0.0029
      8 C         -24.0816    1.0037   28.5745 C.ar    1  UNL1        0.0347
      9 C         -24.9283    0.0868   29.0484 C.ar    1  UNL1        0.0063
     10 C         -27.3909   -2.7710   30.6241 C.3     1  UNL1        0.1208
     11 C         -22.6671    1.0640   29.0620 C.ar    1  UNL1        0.1696
     12 N         -21.7716    1.5639   28.2421 N.pl3   1  UNL1       -0.1072
     13 N         -22.3455    0.2414   30.0591 N.ar    1  UNL1       -0.2262
     14 C         -25.4200   -1.3481   30.9231 C.3     1  UNL1        0.1223
     15 C         -24.4557   -0.5003   30.2359 C.ar    1  UNL1        0.0171
     16 C         -23.1819   -0.5359   30.7671 C.ar    1  UNL1        0.0978
     17 C         -28.6534   -2.5107   31.2154 C.ar    1  UNL1       -0.0023
     18 C         -28.8503   -1.3522   31.7612 C.ar    1  UNL1       -0.0026
     19 C         -30.1763   -1.0655   32.2627 C.ar    1  UNL1       -0.0003
     20 C         -31.0775   -2.1379   32.2701 C.ar    1  UNL1       -0.0000
     21 C         -29.7299   -3.4158   31.2270 C.ar    1  UNL1       -0.0026
     22 C         -30.9046   -3.2845   31.7376 C.ar    1  UNL1       -0.0003
@<TRIPOS>BOND
     1     1     2    2
     2     2     3    1
     3     2     4   am
     4     4    10    1
     5     4    14    1
     6    10    17    1
     7    12    11    1
     8    15    14    1
     9     3     5   ar
    10     5     6   ar
    11     6     7   ar
    12     7     8   ar
    13     9     3   ar
    14     8     9   ar
    15     9    15   ar
    16    15    16   ar
    17    16    13   ar
    18    13    11   ar
    19    11     8   ar
    20    17    18   ar
    21    18    19   ar
    22    19    20   ar
    23    20    22   ar
    24    22    21   ar
    25    21    17   ar
