@<TRIPOS>MOLECULE
No_524-gen_results/8p0m/2024-11-26-14-13-15/
 32 34 0 0 0
SMALL
GASTEIGER

@<TRIPOS>ATOM
      1 O         -28.1229   -1.3353   28.4874 O.2     1  UNL1       -0.2730
      2 C         -28.5208   -0.4363   29.0779 C.2     1  UNL1        0.2464
      3 C         -28.5894    0.5916   28.9464 C.3     1  UNL1        0.1638
      4 N         -29.1246   -0.9399   30.4266 N.am    1  UNL1       -0.2531
      5 N         -29.2480    1.5666   29.4340 N.3     1  UNL1       -0.1769
      6 C         -27.7661    1.1451   27.6818 C.3     1  UNL1        0.0900
      7 C         -26.7037    0.8708   27.3818 C.1     1  UNL1       -0.0770
      8 C         -25.6766    1.0761   27.3509 C.1     1  UNL1       -0.0136
      9 C         -24.3773    1.0282   27.5791 C.1     1  UNL1       -0.0032
     10 C         -23.1506    1.3523   27.7383 C.1     1  UNL1        0.0333
     11 C         -21.7575    1.4086   28.0455 C.2     1  UNL1        0.4309
     12 C         -29.8045   -0.0857   31.2343 C.3     1  UNL1        0.1519
     13 C         -29.8578    1.2257   30.7489 C.3     1  UNL1        0.2555
     14 C         -28.9244   -2.3702   30.8301 C.ar    1  UNL1        0.0542
     15 C         -29.6658   -2.7809   31.7266 C.ar    1  UNL1        0.0214
     16 C         -29.6241   -4.2393   31.9353 C.ar    1  UNL1        0.0773
     17 C         -28.8273   -5.0472   31.1389 C.ar    1  UNL1        0.0065
     18 C         -28.0114   -4.4637   30.1942 C.ar    1  UNL1        0.0015
     19 C         -28.0716   -3.1379   30.0030 C.ar    1  UNL1        0.0149
     20 F         -30.5075    2.1399   31.4018 F       1  UNL1       -0.2158
     21 O         -21.0755    1.9297   27.2302 O.co2   1  UNL1       -0.2308
     22 O         -21.3962    0.8747   29.1802 O.co2   1  UNL1       -0.2308
     23 C         -28.6175    2.0637   26.8547 C.3     1  UNL1        0.0160
     24 C         -30.4693   -4.9710   32.9825 C.2     1  UNL1        0.3457
     25 O         -30.5745   -5.9685   33.1721 O.2     1  UNL1       -0.2445
     26 O         -30.8041   -4.0551   33.9783 O.3     1  UNL1       -0.4210
     27 C         -31.6633   -4.2528   34.7780 C.ar    1  UNL1        0.1488
     28 C         -31.4558   -4.4170   36.1041 C.ar    1  UNL1        0.0376
     29 C         -32.4565   -4.6830   36.9849 C.ar    1  UNL1        0.0031
     30 C         -33.7703   -4.7238   36.4686 C.ar    1  UNL1        0.0002
     31 C         -34.0013   -4.5498   35.1443 C.ar    1  UNL1        0.0031
     32 C         -32.9670   -4.2869   34.2344 C.ar    1  UNL1        0.0376
@<TRIPOS>BOND
     1     1     2    2
     2     2     3    1
     3     2     4   am
     4     3     6    1
     5     6     7    1
     6     7     8    3
     7     8     9    1
     8     9    10    3
     9    10    11    1
    10     4    12    1
    11     5    13    1
    12     4    14    1
    13    13    20    1
    14    11    21   ar
    15    11    22   ar
    16     6    23    1
    17    16    24    1
    18    24    25    2
    19    24    26    1
    20    26    27    1
    21     3     5    1
    22    13    12    1
    23    14    15   ar
    24    15    16   ar
    25    16    17   ar
    26    17    18   ar
    27    18    19   ar
    28    19    14   ar
    29    27    28   ar
    30    28    29   ar
    31    29    30   ar
    32    30    31   ar
    33    31    32   ar
    34    32    27   ar
