@<TRIPOS>MOLECULE
No_526-gen_results/8p0m/2024-11-26-14-13-15/
 24 26 0 0 0
SMALL
GASTEIGER

@<TRIPOS>ATOM
      1 C         -28.0162   -0.8135   28.8779 C.ar    1  UNL1        0.0023
      2 C         -27.0636   -0.1190   28.6079 C.ar    1  UNL1       -0.0000
      3 C         -26.9287    1.1713   29.0083 C.ar    1  UNL1        0.0019
      4 C         -27.9560    1.7411   29.7840 C.ar    1  UNL1        0.0294
      5 C         -29.0569   -0.3271   29.7466 C.ar    1  UNL1        0.0296
      6 C         -28.9828    0.9722   30.1516 C.ar    1  UNL1        0.1401
      7 C         -25.8907   -0.6263   27.7857 C.ar    1  UNL1        0.0001
      8 C         -24.5686   -0.1994   28.1996 C.ar    1  UNL1        0.0039
      9 C         -24.3830    1.1808   28.3462 C.ar    1  UNL1        0.0497
     10 C         -25.6030    1.8144   29.0598 C.ar    1  UNL1        0.0253
     11 C         -23.1198    1.7971   28.3702 C.2     1  UNL1        0.2534
     12 CL        -21.9003    1.1268   28.1408 Cl      1  UNL1       -0.0383
     13 C         -25.3345    3.1866   29.5428 C.3     1  UNL1        0.2355
     14 O         -26.4403    3.7571   29.6594 O.3     1  UNL1       -0.4404
     15 C         -26.4618    4.9567   29.0034 C.2     1  UNL1        0.3415
     16 C         -26.7545    5.9678   29.5396 C.ar    1  UNL1        0.0757
     17 C         -27.0307    6.1435   30.7212 C.ar    1  UNL1        0.0064
     18 C         -27.3415    7.4102   31.4542 C.ar    1  UNL1        0.0002
     19 C         -27.2999    8.5349   30.6368 C.ar    1  UNL1        0.0000
     20 C         -26.9616    8.4957   29.3315 C.ar    1  UNL1        0.0002
     21 C         -26.6444    7.2155   28.7412 C.ar    1  UNL1        0.0064
     22 O         -26.1826    4.7917   27.7183 O.2     1  UNL1       -0.2449
     23 F         -30.0289    1.4871   30.8242 F       1  UNL1       -0.2042
     24 O         -23.1732    3.1723   28.2103 O.2     1  UNL1       -0.2739
@<TRIPOS>BOND
     1     9    11    1
     2    11    12    1
     3    10    13    1
     4    13    14    1
     5    14    15    1
     6    15    16    1
     7    15    22    2
     8     6    23    1
     9    11    24    2
    10     1     2   ar
    11     3     4   ar
    12     4     6   ar
    13     6     5   ar
    14     5     1   ar
    15     2     3   ar
    16     3    10   ar
    17    10     9   ar
    18     9     8   ar
    19     8     7   ar
    20     7     2   ar
    21    16    17   ar
    22    17    18   ar
    23    18    19   ar
    24    19    20   ar
    25    20    21   ar
    26    21    16   ar
