@<TRIPOS>MOLECULE
No_527-gen_results/8p0m/2024-11-26-14-13-15/
 18 19 0 0 0
SMALL
GASTEIGER

@<TRIPOS>ATOM
      1 C         -28.0162   -0.8135   28.8779 C.3     1  UNL1        0.0350
      2 C         -27.0636   -0.1189   28.6079 C.ar    1  UNL1       -0.0214
      3 C         -27.0010    0.6913   27.4910 C.ar    1  UNL1       -0.0019
      4 C         -25.8548    1.4825   27.0830 C.ar    1  UNL1        0.0293
      5 C         -24.6901    1.4526   27.8807 C.ar    1  UNL1        0.1401
      6 C         -24.7379    0.6010   29.0416 C.ar    1  UNL1        0.0293
      7 C         -25.8234   -0.1688   29.3887 C.ar    1  UNL1       -0.0019
      8 C         -28.7350   -0.4637   30.1419 C.3     1  UNL1        0.0483
      9 C         -29.8111   -1.3049   30.6008 C.ar    1  UNL1       -0.0181
     10 F         -23.6598    2.1375   27.5843 F       1  UNL1       -0.2042
     11 C         -30.9016   -1.0668   30.6484 C.ar    1  UNL1       -0.0039
     12 C         -31.9631   -2.0340   31.0953 C.ar    1  UNL1       -0.0003
     13 C         -31.5211   -3.3235   31.3875 C.ar    1  UNL1       -0.0000
     14 C         -30.1961   -3.6888   31.2873 C.ar    1  UNL1       -0.0003
     15 C         -29.2445   -2.7044   30.8793 C.ar    1  UNL1       -0.0039
     16 C         -28.4941    0.7647   30.8660 C.2     1  UNL1       -0.0263
     17 C         -29.1421    1.9262   30.5096 C.2     1  UNL1       -0.0300
     18 C         -29.0230    2.9571   31.0473 C.3     1  UNL1        0.0304
@<TRIPOS>BOND
     1     1     2    1
     2     1     8    1
     3     8     9    1
     4     5    10    1
     5     8    16    1
     6    16    17    2
     7    17    18    1
     8     2     3   ar
     9     3     4   ar
    10     4     5   ar
    11     5     6   ar
    12     6     7   ar
    13     7     2   ar
    14     9    11   ar
    15    11    12   ar
    16    12    13   ar
    17    13    14   ar
    18    14    15   ar
    19    15     9   ar
