@<TRIPOS>MOLECULE
No_530-gen_results/8p0m/2024-11-26-14-13-15/
 17 19 0 0 0
SMALL
GASTEIGER

@<TRIPOS>ATOM
      1 C         -28.0162   -0.8135   28.8779 C.ar    1  UNL1       -0.0120
      2 C         -28.4690   -0.7850   29.8287 C.ar    1  UNL1       -0.0038
      3 C         -28.1960    0.3478   28.0550 C.ar    1  UNL1       -0.0066
      4 C         -27.4421    0.5100   26.7946 C.ar    1  UNL1       -0.0122
      5 C         -26.1689   -0.0794   26.6787 C.3     1  UNL1        0.0801
      6 C         -25.7312   -0.9607   27.6875 C.3     1  UNL1        0.0315
      7 C         -26.5043   -1.2222   28.7582 C.3     1  UNL1        0.1268
      8 C         -29.5802   -0.2435   30.2170 C.ar    1  UNL1       -0.0003
      9 C         -30.0568    0.7240   29.3104 C.ar    1  UNL1       -0.0000
     10 C         -29.3596    1.0530   28.1223 C.ar    1  UNL1       -0.0006
     11 C         -29.8113    2.0045   27.1772 C.ar    1  UNL1       -0.0000
     12 C         -27.7294    1.4311   25.7446 C.ar    1  UNL1       -0.0035
     13 C         -28.9529    2.1931   25.9664 C.ar    1  UNL1       -0.0003
     14 C         -26.0561   -2.2556   29.7224 C.2     1  UNL1        0.3684
     15 O         -24.9587   -2.3263   30.0040 O.co2   1  UNL1       -0.2453
     16 O         -26.9416   -3.1036   30.1997 O.co2   1  UNL1       -0.2453
     17 BR        -24.9949    0.2188   25.2714 Br      1  UNL1       -0.0768
@<TRIPOS>BOND
     1     4     5    1
     2     5     6    1
     3     1     7    1
     4     6     7    1
     5     7    14    1
     6    14    15   ar
     7    14    16   ar
     8     5    17    1
     9     1     2   ar
    10     2     8   ar
    11     8     9   ar
    12     9    10   ar
    13     3     1   ar
    14     3     4   ar
    15     4    12   ar
    16    12    13   ar
    17    13    11   ar
    18    11    10   ar
    19    10     3   ar
