@<TRIPOS>MOLECULE
No_532-gen_results/8p0m/2024-11-26-14-13-15/
 12 13 0 0 0
SMALL
GASTEIGER

@<TRIPOS>ATOM
      1 C         -28.0162   -0.8135   28.8779 C.ar    1  UNL1        0.0000
      2 C         -28.4690   -0.7850   29.8287 C.ar    1  UNL1        0.0000
      3 C         -26.6028   -1.0596   28.5384 C.ar    1  UNL1        0.0000
      4 C         -25.8256   -0.8652   29.3179 C.ar    1  UNL1        0.0000
      5 C         -26.1565   -0.7096   30.7868 C.ar    1  UNL1        0.0000
      6 C         -27.5376   -0.6378   31.0131 C.ar    1  UNL1        0.0000
      7 C         -24.2957   -0.9637   29.2279 C.ar    1  UNL1        0.0000
      8 C         -23.4212   -1.8183   29.5059 C.ar    1  UNL1        0.0000
      9 C         -23.7630    0.2622   28.4704 C.ar    1  UNL1        0.0000
     10 C         -22.3644    0.3963   28.3454 C.ar    1  UNL1        0.0000
     11 C         -22.0114   -1.7185   29.3506 C.ar    1  UNL1        0.0000
     12 C         -21.4988   -0.5335   28.8090 C.ar    1  UNL1        0.0000
@<TRIPOS>BOND
     1     4     7    1
     2     1     2   ar
     3     2     6   ar
     4     6     5   ar
     5     5     4   ar
     6     4     3   ar
     7     3     1   ar
     8     7     8   ar
     9     8    11   ar
    10    11    12   ar
    11    12    10   ar
    12    10     9   ar
    13     9     7   ar
