@<TRIPOS>MOLECULE
No_533-gen_results/8p0m/2024-11-26-14-13-15/
 14 14 0 0 0
SMALL
GASTEIGER

@<TRIPOS>ATOM
      1 F         -28.0727   -1.2542   28.5316 F       1  UNL1       -0.2325
      2 C         -27.3591   -0.3792   28.7224 C.3     1  UNL1        0.2164
      3 C         -26.8100    0.1885   27.6513 C.3     1  UNL1        0.2107
      4 C         -25.6015    0.9529   27.6828 C.3     1  UNL1        0.1329
      5 C         -25.0371    1.2332   29.0000 C.3     1  UNL1        0.1796
      6 C         -25.6162    0.5855   30.0870 C.2     1  UNL1        0.1799
      7 C         -26.6061   -0.2296   29.9624 C.3     1  UNL1        0.1727
      8 C         -23.8926    2.1100   29.0763 C.2     1  UNL1        0.3726
      9 O         -23.5711    2.3388   30.1547 O.co2   1  UNL1       -0.2451
     10 O         -23.2420    2.4525   28.0268 O.co2   1  UNL1       -0.2451
     11 CL        -27.2917   -0.9762   31.3668 Cl      1  UNL1       -0.1040
     12 F         -27.1971   -0.0402   26.4356 F       1  UNL1       -0.2329
     13 CL        -24.9778    1.6648   26.2775 Cl      1  UNL1       -0.1110
     14 O         -25.0515    0.8342   31.3282 O.2     1  UNL1       -0.2941
@<TRIPOS>BOND
     1     1     2    1
     2     3     4    1
     3     5     6    1
     4     2     7    1
     5     6     7    1
     6     5     8    1
     7     8     9   ar
     8     8    10   ar
     9     7    11    1
    10     3    12    1
    11     4    13    1
    12     6    14    2
    13     5     4    1
    14     3     2    1
