@<TRIPOS>MOLECULE
No_534-gen_results/8p0m/2024-11-26-14-13-15/
 17 17 0 0 0
SMALL
GASTEIGER

@<TRIPOS>ATOM
      1 C         -28.0162   -0.8135   28.8779 C.ar    1  UNL1       -0.0043
      2 C         -28.4690   -0.7850   29.8287 C.ar    1  UNL1       -0.0003
      3 C         -28.1960    0.3478   28.0550 C.ar    1  UNL1       -0.0222
      4 C         -29.0191    1.3501   28.3782 C.ar    1  UNL1       -0.0043
      5 C         -29.4107    0.1803   30.3782 C.ar    1  UNL1       -0.0000
      6 C         -29.6059    1.2495   29.6193 C.ar    1  UNL1       -0.0003
      7 C         -27.4478    0.3799   26.7122 C.3     1  UNL1        0.0267
      8 C         -25.9806    0.2548   26.7837 C.3     1  UNL1        0.0095
      9 C         -25.2376    1.2324   27.4671 C.3     1  UNL1        0.0301
     10 C         -24.4098    1.0416   28.3664 C.2     1  UNL1        0.0200
     11 C         -24.3436    0.0695   29.1691 C.2     1  UNL1       -0.0010
     12 C         -23.3988    0.0586   30.2360 C.2     1  UNL1       -0.0002
     13 C         -23.4948    2.2168   28.7286 C.2     1  UNL1        0.2299
     14 O         -23.5133    3.2076   27.8959 O.2     1  UNL1       -0.2835
     15 C         -23.4265   -1.0873   31.0591 C.2     1  UNL1       -0.0000
     16 C         -24.2454   -2.1363   30.7833 C.2     1  UNL1       -0.0000
     17 C         -24.9964   -2.1976   29.6299 C.2     1  UNL1       -0.0000
@<TRIPOS>BOND
     1     3     7    1
     2     7     8    1
     3     8     9    1
     4     9    10    1
     5    10    11    2
     6    11    12    1
     7    10    13    1
     8    13    14    2
     9    12    15    2
    10    15    16    1
    11    16    17    2
    12     1     2   ar
    13     2     5   ar
    14     5     6   ar
    15     6     4   ar
    16     4     3   ar
    17     3     1   ar
