@<TRIPOS>MOLECULE
No_536-gen_results/8p0m/2024-11-26-14-13-15/
 15 16 0 0 0
SMALL
GASTEIGER

@<TRIPOS>ATOM
      1 C         -28.0162   -0.8135   28.8779 C.ar    1  UNL1        0.0048
      2 C         -28.4690   -0.7850   29.8287 C.ar    1  UNL1        0.0002
      3 C         -27.0871    0.2903   28.6377 C.ar    1  UNL1        0.0579
      4 C         -26.8317    1.2487   29.5869 C.ar    1  UNL1        0.0048
      5 C         -28.3914    0.0801   31.0065 C.ar    1  UNL1        0.0000
      6 C         -27.4940    1.1521   30.7841 C.ar    1  UNL1        0.0002
      7 C         -26.3109    0.3918   27.3640 C.2     1  UNL1        0.2791
      8 N         -26.7768    0.8323   26.3762 N.2     1  UNL1       -0.2079
      9 O         -25.0506   -0.0001   27.3762 O.2     1  UNL1       -0.2652
     10 C         -28.1412    1.3153   26.1970 C.ar    1  UNL1        0.0846
     11 C         -28.1841    2.4764   26.2626 C.ar    1  UNL1        0.0192
     12 C         -29.1145    0.4384   25.7767 C.ar    1  UNL1        0.0192
     13 C         -30.4311    0.8494   25.6513 C.ar    1  UNL1        0.0015
     14 C         -29.5592    3.1480   26.0640 C.ar    1  UNL1        0.0015
     15 C         -30.5858    2.2786   25.7471 C.ar    1  UNL1        0.0001
@<TRIPOS>BOND
     1     3     7    1
     2     7     8    2
     3     7     9    1
     4     8    10    1
     5    10    11   ar
     6    11    14   ar
     7    14    15   ar
     8    15    13   ar
     9    13    12   ar
    10    12    10   ar
    11     1     2   ar
    12     2     5   ar
    13     5     6   ar
    14     6     4   ar
    15     4     3   ar
    16     3     1   ar
