@<TRIPOS>MOLECULE
No_537-gen_results/8p0m/2024-11-26-14-13-15/
 10 10 0 0 0
SMALL
GASTEIGER

@<TRIPOS>ATOM
      1 C         -28.0162   -0.8135   28.8779 C.ar    1  UNL1       -0.0001
      2 C         -27.0636   -0.1189   28.6079 C.ar    1  UNL1       -0.0000
      3 C         -27.0010    0.6913   27.4910 C.ar    1  UNL1       -0.0001
      4 C         -28.1373    0.7363   26.6350 C.ar    1  UNL1        0.0039
      5 C         -29.2360    0.0765   27.0690 C.ar    1  UNL1        0.0714
      6 C         -29.2177   -0.6429   28.1747 C.ar    1  UNL1        0.0039
      7 C         -30.4152    0.1590   26.1820 C.3     1  UNL1        0.4186
      8 F         -31.2292   -0.6372   26.4315 F       1  UNL1       -0.1659
      9 F         -30.8752    1.4224   26.2396 F       1  UNL1       -0.1659
     10 F         -30.0320   -0.0167   24.8720 F       1  UNL1       -0.1659
@<TRIPOS>BOND
     1     5     7    1
     2     7     8    1
     3     7     9    1
     4     7    10    1
     5     1     2   ar
     6     2     3   ar
     7     3     4   ar
     8     4     5   ar
     9     5     6   ar
    10     6     1   ar
