@<TRIPOS>MOLECULE
No_538-gen_results/8p0m/2024-11-26-14-13-15/
 12 12 0 0 0
SMALL
GASTEIGER

@<TRIPOS>ATOM
      1 C         -28.0162   -0.8135   28.8779 C.ar    1  UNL1       -0.0023
      2 C         -28.4690   -0.7850   29.8287 C.ar    1  UNL1       -0.0003
      3 C         -28.1816    0.4277   28.1134 C.ar    1  UNL1        0.0020
      4 C         -28.9841    1.4155   28.5154 C.ar    1  UNL1       -0.0023
      5 C         -29.3802    0.1384   30.4612 C.ar    1  UNL1       -0.0000
      6 C         -29.5415    1.2736   29.7242 C.ar    1  UNL1       -0.0003
      7 C         -27.4586    0.4934   26.7701 C.3     1  UNL1        0.1519
      8 N         -26.6797    1.5278   26.5744 N.2     1  UNL1       -0.2641
      9 C         -25.4155    1.3785   26.1047 C.2     1  UNL1        0.0932
     10 C         -24.5021    2.5118   26.1174 C.2     1  UNL1        0.0156
     11 C         -25.0620    3.7502   26.4590 C.2     1  UNL1       -0.0242
     12 C         -26.3621    3.8757   26.9196 C.3     1  UNL1        0.0307
@<TRIPOS>BOND
     1     3     7    1
     2     7     8    1
     3     8     9    2
     4     9    10    1
     5    10    11    2
     6    11    12    1
     7     1     2   ar
     8     2     5   ar
     9     5     6   ar
    10     6     4   ar
    11     4     3   ar
    12     3     1   ar
