@<TRIPOS>MOLECULE
No_539-gen_results/8p0m/2024-11-26-14-13-15/
 15 16 0 0 0
SMALL
GASTEIGER

@<TRIPOS>ATOM
      1 C         -28.0162   -0.8135   28.8779 C.ar    1  UNL1       -0.0000
      2 C         -28.4690   -0.7850   29.8287 C.ar    1  UNL1        0.0000
      3 C         -27.1356    0.2359   28.5352 C.ar    1  UNL1       -0.0000
      4 C         -26.8745    1.2825   29.3982 C.ar    1  UNL1       -0.0000
      5 C         -28.3613    0.1987   30.9244 C.ar    1  UNL1        0.0000
      6 C         -27.5277    1.2234   30.6356 C.ar    1  UNL1        0.0000
      7 C         -26.3987    0.2949   27.2279 C.ar    1  UNL1       -0.0000
      8 C         -26.9022    0.7280   26.2134 C.ar    1  UNL1       -0.0000
      9 C         -26.2011    0.5879   24.9593 C.ar    1  UNL1       -0.0000
     10 C         -24.9987    0.2112   27.2470 C.ar    1  UNL1       -0.0003
     11 C         -24.2022    0.2613   26.1908 C.ar    1  UNL1       -0.0000
     12 C         -24.8457    0.4956   24.9596 C.ar    1  UNL1       -0.0000
     13 C         -24.2853   -0.0742   28.6009 C.2     1  UNL1       -0.0046
     14 C         -23.9175    0.5964   29.4523 C.2     1  UNL1       -0.0258
     15 C         -23.1899    0.2625   30.6058 C.3     1  UNL1        0.0307
@<TRIPOS>BOND
     1     3     7    1
     2    10    13    1
     3    13    14    2
     4    14    15    1
     5     1     2   ar
     6     2     5   ar
     7     5     6   ar
     8     6     4   ar
     9     4     3   ar
    10     3     1   ar
    11     7     8   ar
    12     8     9   ar
    13     9    12   ar
    14    12    11   ar
    15    11    10   ar
    16    10     7   ar
