@<TRIPOS>MOLECULE
No_54-gen_results/8p0m/2024-11-26-14-13-15/
 8 7 0 0 0
SMALL
GASTEIGER

@<TRIPOS>ATOM
      1 CL        -28.1493   -0.8198   28.9079 Cl      1  UNL1       -0.0424
      2 C         -27.8339    0.4961   29.0598 C.3     1  UNL1        0.3499
      3 F         -27.8833    1.0376   30.1944 F       1  UNL1       -0.1825
      4 C         -26.3797    0.7729   28.5385 C.2     1  UNL1        0.0555
      5 F         -28.6112    1.2493   28.2241 F       1  UNL1       -0.1825
      6 C         -25.4126    0.2715   29.2941 C.2     1  UNL1        0.0021
      7 C         -25.1365    0.9041   30.4743 C.2     1  UNL1       -0.0001
      8 C         -26.1915    1.3552   31.4262 C.2     1  UNL1       -0.0000
@<TRIPOS>BOND
     1     1     2    1
     2     2     3    1
     3     2     4    1
     4     2     5    1
     5     4     6    2
     6     6     7    1
     7     7     8    2
