@<TRIPOS>MOLECULE
No_540-gen_results/8p0m/2024-11-26-14-13-15/
 12 12 0 0 0
SMALL
GASTEIGER

@<TRIPOS>ATOM
      1 C         -28.0162   -0.8135   28.8779 C.ar    1  UNL1        0.0000
      2 C         -27.0636   -0.1190   28.6079 C.ar    1  UNL1        0.0000
      3 C         -26.8756    1.1325   28.9134 C.ar    1  UNL1        0.0000
      4 C         -27.9014    1.8066   29.6436 C.ar    1  UNL1        0.0000
      5 C         -28.9449    1.0388   30.0360 C.ar    1  UNL1        0.0000
      6 C         -29.0273   -0.2890   29.7051 C.ar    1  UNL1        0.0000
      7 C         -25.6959    1.9505   28.4764 C.2     1  UNL1        0.0000
      8 C         -24.7049    1.7243   28.1388 C.2     1  UNL1        0.0000
      9 C         -23.6089    2.6292   27.6365 C.2     1  UNL1        0.0000
     10 C         -22.3590    2.1173   27.2592 C.2     1  UNL1        0.0000
     11 C         -21.9815    0.7956   27.7434 C.2     1  UNL1        0.0000
     12 C         -22.8198    0.0178   28.4707 C.2     1  UNL1        0.0000
@<TRIPOS>BOND
     1     3     7    1
     2     7     8    2
     3     8     9    1
     4     9    10    2
     5    10    11    1
     6    11    12    2
     7     1     2   ar
     8     2     3   ar
     9     3     4   ar
    10     4     5   ar
    11     5     6   ar
    12     6     1   ar
