@<TRIPOS>MOLECULE
No_542-gen_results/8p0m/2024-11-26-14-13-15/
 20 21 0 0 0
SMALL
GASTEIGER

@<TRIPOS>ATOM
      1 C         -28.0162   -0.8135   28.8779 C.ar    1  UNL1        0.0039
      2 C         -28.4690   -0.7850   29.8287 C.ar    1  UNL1       -0.0000
      3 C         -28.1960    0.3478   28.0550 C.ar    1  UNL1        0.0715
      4 C         -29.0191    1.3501   28.3782 C.ar    1  UNL1        0.0054
      5 C         -29.6249    1.2683   29.6012 C.ar    1  UNL1        0.0191
      6 C         -29.3791    0.1469   30.3923 C.ar    1  UNL1        0.0015
      7 C         -27.4551    0.3822   26.7102 C.3     1  UNL1        0.4186
      8 F         -27.1166    1.6790   26.4968 F       1  UNL1       -0.1659
      9 F         -28.1803    0.0118   25.6866 F       1  UNL1       -0.1659
     10 F         -26.2724   -0.2519   26.6896 F       1  UNL1       -0.1659
     11 C         -30.5468    2.3058   30.0733 C.2     1  UNL1        0.0988
     12 N         -30.1315    3.0271   30.9641 N.2     1  UNL1       -0.2423
     13 C         -29.1570    3.0207   31.6250 C.2     1  UNL1        0.0989
     14 C         -28.3399    3.7080   32.1497 C.2     1  UNL1        0.0206
     15 C         -27.2068    3.9858   32.1004 C.ar    1  UNL1        0.0015
     16 C         -26.4210    5.1357   32.6082 C.ar    1  UNL1        0.0000
     17 C         -25.0061    5.3320   32.3409 C.ar    1  UNL1        0.0000
     18 C         -24.3415    4.2504   31.7577 C.ar    1  UNL1        0.0000
     19 C         -24.9231    3.0783   31.4506 C.ar    1  UNL1        0.0000
     20 C         -26.2320    2.9571   31.6124 C.ar    1  UNL1        0.0000
@<TRIPOS>BOND
     1     3     7    1
     2     7     8    1
     3     7     9    1
     4     7    10    1
     5     5    11    1
     6    11    12    2
     7    12    13    1
     8    13    14    2
     9    14    15    1
    10    15    16   ar
    11    16    17   ar
    12    17    18   ar
    13    18    19   ar
    14    19    20   ar
    15    20    15   ar
    16     1     2   ar
    17     2     6   ar
    18     6     5   ar
    19     5     4   ar
    20     4     3   ar
    21     3     1   ar
