@<TRIPOS>MOLECULE
No_543-gen_results/8p0m/2024-11-26-14-13-15/
 22 24 0 0 0
SMALL
GASTEIGER

@<TRIPOS>ATOM
      1 C         -28.0162   -0.8135   28.8779 C.ar    1  UNL1        0.0293
      2 C         -28.4690   -0.7850   29.8287 C.ar    1  UNL1        0.1401
      3 C         -26.5042   -0.7777   28.8766 C.ar    1  UNL1       -0.0016
      4 C         -25.8103   -0.8531   30.1028 C.ar    1  UNL1       -0.0176
      5 C         -27.9906   -0.8916   31.2257 C.ar    1  UNL1        0.0293
      6 C         -26.6042   -0.8676   31.2652 C.ar    1  UNL1       -0.0016
      7 F         -29.9203   -0.8331   29.8239 F       1  UNL1       -0.2042
      8 C         -24.3796   -0.8022   30.1424 C.3     1  UNL1        0.0526
      9 C         -23.6323   -0.3170   29.1196 C.ar    1  UNL1       -0.0177
     10 C         -22.1884   -0.2415   29.2461 C.ar    1  UNL1       -0.0039
     11 C         -21.4465    0.3223   28.1882 C.ar    1  UNL1       -0.0002
     12 C         -22.1232    1.2260   27.3046 C.ar    1  UNL1        0.0032
     13 C         -23.5021    1.3684   27.3406 C.ar    1  UNL1        0.0386
     14 C         -24.2580    0.6956   28.2849 C.ar    1  UNL1       -0.0008
     15 C         -24.0701    2.3357   26.4087 C.2     1  UNL1        0.1955
     16 C         -25.3290    2.0119   25.8748 C.ar    1  UNL1        0.0390
     17 C         -26.4817    2.7665   26.0584 C.ar    1  UNL1        0.0032
     18 C         -27.6915    2.4175   25.4176 C.ar    1  UNL1        0.0001
     19 C         -27.7150    1.2261   24.6999 C.ar    1  UNL1        0.0000
     20 C         -26.6616    0.3979   24.6137 C.ar    1  UNL1        0.0001
     21 C         -25.4350    0.7455   25.2179 C.ar    1  UNL1        0.0032
     22 O         -23.5222    3.4132   26.1200 O.2     1  UNL1       -0.2866
@<TRIPOS>BOND
     1     2     7    1
     2     4     8    1
     3    13    15    1
     4    15    16    1
     5    15    22    2
     6     8     9    1
     7     9    10   ar
     8    10    11   ar
     9    11    12   ar
    10    12    13   ar
    11    13    14   ar
    12    14     9   ar
    13     1     2   ar
    14     2     5   ar
    15     5     6   ar
    16     6     4   ar
    17     4     3   ar
    18     3     1   ar
    19    16    17   ar
    20    17    18   ar
    21    18    19   ar
    22    19    20   ar
    23    20    21   ar
    24    21    16   ar
