@<TRIPOS>MOLECULE
No_544-gen_results/8p0m/2024-11-26-14-13-15/
 32 36 0 0 0
SMALL
GASTEIGER

@<TRIPOS>ATOM
      1 C         -28.0162   -0.8135   28.8779 C.ar    1  UNL1        0.0006
      2 C         -27.0636   -0.1189   28.6079 C.ar    1  UNL1       -0.0180
      3 C         -25.7923   -0.4302   29.0761 C.ar    1  UNL1       -0.0040
      4 C         -24.5456    0.3494   28.8225 C.ar    1  UNL1       -0.0042
      5 C         -24.6586    1.4196   27.8878 C.ar    1  UNL1       -0.0215
      6 C         -25.9471    1.6811   27.3792 C.3     1  UNL1        0.0351
      7 C         -27.0439    0.9739   27.6871 C.3     1  UNL1        0.0489
      8 C         -28.0485   -1.5981   30.1629 C.ar    1  UNL1        0.0551
      9 C         -26.7598   -2.0713   30.6119 C.ar    1  UNL1        0.0046
     10 C         -25.6104   -1.4023   30.1709 C.ar    1  UNL1       -0.0002
     11 C         -28.2846    1.3373   26.9704 C.ar    1  UNL1       -0.0179
     12 C         -29.2846    1.0918   27.2225 C.ar    1  UNL1        0.0026
     13 C         -30.4991    1.4842   26.4953 C.ar    1  UNL1        0.0795
     14 C         -30.2313    2.2846   25.3995 C.ar    1  UNL1        0.0066
     15 C         -28.0972    2.1956   25.8339 C.ar    1  UNL1       -0.0039
     16 C         -29.0005    2.6705   25.0410 C.ar    1  UNL1       -0.0001
     17 C         -23.2245   -0.0411   29.3358 C.ar    1  UNL1       -0.0003
     18 C         -22.1311    0.5855   28.7518 C.ar    1  UNL1       -0.0000
     19 C         -22.2238    1.5849   27.8145 C.ar    1  UNL1       -0.0003
     20 C         -23.5250    2.0524   27.3711 C.ar    1  UNL1       -0.0042
     21 C         -29.2194   -2.3569   30.5785 C.2     1  UNL1        0.2690
     22 O         -29.2510   -3.4898   30.7864 O.2     1  UNL1       -0.2680
     23 N         -30.3570   -1.6056   30.7586 N.am    1  UNL1       -0.1754
     24 C         -31.4856   -1.9185   31.0445 C.ar    1  UNL1        0.0737
     25 C         -32.3162   -1.2822   31.6121 C.ar    1  UNL1        0.0166
     26 C         -33.6070   -1.6632   32.1036 C.ar    1  UNL1        0.0013
     27 C         -33.9354   -2.9927   31.7791 C.ar    1  UNL1        0.0001
     28 C         -33.0736   -3.7855   31.0881 C.ar    1  UNL1        0.0013
     29 C         -31.8379   -3.3263   30.7593 C.ar    1  UNL1        0.0166
     30 C         -31.8971    1.0897   26.8146 C.2     1  UNL1        0.3877
     31 O         -32.4793    0.2837   26.3727 O.co2   1  UNL1       -0.2406
     32 O         -32.2327    1.4859   28.0906 O.co2   1  UNL1       -0.2406
@<TRIPOS>BOND
     1     3     4    1
     2     5     6    1
     3     2     7    1
     4     6     7    1
     5     7    11    1
     6     8    21    1
     7    21    22    2
     8    21    23   am
     9    23    24    1
    10    13    30    1
    11    30    31   ar
    12    30    32   ar
    13    24    25   ar
    14    25    26   ar
    15    26    27   ar
    16    27    28   ar
    17    28    29   ar
    18    29    24   ar
    19     1     2   ar
    20     2     3   ar
    21     3    10   ar
    22    10     9   ar
    23     9     8   ar
    24     8     1   ar
    25     4     5   ar
    26     5    20   ar
    27    20    19   ar
    28    19    18   ar
    29    18    17   ar
    30    17     4   ar
    31    11    12   ar
    32    12    13   ar
    33    13    14   ar
    34    14    16   ar
    35    16    15   ar
    36    15    11   ar
