@<TRIPOS>MOLECULE
No_545-gen_results/8p0m/2024-11-26-14-13-15/
 11 11 0 0 0
SMALL
GASTEIGER

@<TRIPOS>ATOM
      1 C         -28.0162   -0.8135   28.8779 C.ar    1  UNL1        0.0335
      2 C         -28.4690   -0.7850   29.8287 C.ar    1  UNL1        0.0737
      3 C         -26.5042   -0.7777   28.8766 C.ar    1  UNL1        0.1401
      4 C         -25.8103   -0.8531   30.1028 C.ar    1  UNL1        0.0296
      5 C         -30.0136   -0.8410   29.8508 C.3     1  UNL1        0.4186
      6 C         -26.5670   -0.8850   31.2517 C.ar    1  UNL1        0.0022
      7 C         -27.9411   -0.9069   31.1850 C.ar    1  UNL1        0.0040
      8 F         -30.5286   -0.0145   30.7836 F       1  UNL1       -0.1659
      9 F         -30.4499   -0.3416   28.6885 F       1  UNL1       -0.1659
     10 F         -30.3331   -2.1354   29.8752 F       1  UNL1       -0.1659
     11 F         -25.7374   -0.7547   27.7852 F       1  UNL1       -0.2042
@<TRIPOS>BOND
     1     2     5    1
     2     5     8    1
     3     5     9    1
     4     5    10    1
     5     3    11    1
     6     1     2   ar
     7     2     7   ar
     8     7     6   ar
     9     6     4   ar
    10     4     3   ar
    11     3     1   ar
