@<TRIPOS>MOLECULE
No_546-gen_results/8p0m/2024-11-26-14-13-15/
 35 37 0 0 0
SMALL
GASTEIGER

@<TRIPOS>ATOM
      1 C         -28.0162   -0.8135   28.8779 C.ar    1  UNL1        0.1805
      2 C         -28.4690   -0.7850   29.8287 C.ar    1  UNL1        0.1211
      3 F         -28.6541   -0.6744   27.8445 F       1  UNL1       -0.2008
      4 C         -27.7274   -1.0138   31.1384 C.ar    1  UNL1        0.1512
      5 C         -26.3131   -1.1081   31.0634 C.ar    1  UNL1        0.0359
      6 C         -25.7318   -1.1346   29.7725 C.ar    1  UNL1        0.0115
      7 C         -26.5830   -0.9531   28.7142 C.ar    1  UNL1        0.1644
      8 C         -24.3107   -1.2649   29.6888 C.3     1  UNL1        0.0445
      9 C         -23.4454   -0.2053   29.4397 C.3     1  UNL1        0.1297
     10 C         -23.7576    1.0937   29.5095 C.ar    1  UNL1       -0.0155
     11 C         -23.9104    1.8987   28.5549 C.ar    1  UNL1       -0.0255
     12 C         -24.4285    3.2282   28.5812 C.ar    1  UNL1       -0.0258
     13 C         -25.2136    3.5291   29.7487 C.ar    1  UNL1       -0.0007
     14 C         -25.1647    2.6652   30.8318 C.ar    1  UNL1        0.0708
     15 C         -24.5638    1.4476   30.7738 C.ar    1  UNL1       -0.0002
     16 C         -22.0221   -0.4587   29.1302 C.2     1  UNL1        0.3687
     17 C         -25.9783    3.0090   32.0271 C.3     1  UNL1        0.4186
     18 F         -25.9808    2.1205   32.8604 F       1  UNL1       -0.1659
     19 F         -25.3974    4.0585   32.6362 F       1  UNL1       -0.1659
     20 F         -27.1731    3.4619   31.6640 F       1  UNL1       -0.1659
     21 C         -23.0404    1.7106   27.2694 C.3     1  UNL1        0.0477
     22 O         -21.0502    0.1379   29.2881 O.co2   1  UNL1       -0.2453
     23 O         -21.8290   -1.7496   28.8563 O.co2   1  UNL1       -0.2453
     24 CL        -30.1889   -0.5437   30.1159 Cl      1  UNL1       -0.0766
     25 C         -23.6186    2.1394   26.0288 C.2     1  UNL1       -0.0396
     26 C         -22.9897    1.8018   24.9664 C.2     1  UNL1       -0.0088
     27 C         -24.2590    3.3348   26.0352 C.3     1  UNL1        0.0270
     28 C         -24.4044    4.2119   27.5755 C.3     1  UNL1        0.0304
     29 F         -25.9858   -0.9394   27.5384 F       1  UNL1       -0.2021
     30 O         -28.3694   -0.9229   32.3693 O.3     1  UNL1       -0.4714
     31 C         -29.3799   -0.2773   32.6576 C.3     1  UNL1        0.2426
     32 C         -30.1994   -0.6562   33.6921 C.3     1  UNL1        0.2174
     33 O         -29.7570   -1.4956   34.4026 O.3     1  UNL1       -0.2143
     34 C         -31.5826   -1.0125   33.2140 C.2     1  UNL1        0.0099
     35 C         -31.7760   -2.3582   33.1209 C.2     1  UNL1       -0.0022
@<TRIPOS>BOND
     1     1     3    1
     2     6     8    1
     3     8     9    1
     4     9    10    1
     5     9    16    1
     6    14    17    1
     7    17    18    1
     8    17    19    1
     9    17    20    1
    10    11    21    1
    11    16    22   ar
    12    16    23   ar
    13     2    24    1
    14    21    25    1
    15    25    26    2
    16    25    27    1
    17    12    28    1
    18    27    28    1
    19     7    29    1
    20     4    30    1
    21    30    31    1
    22    31    32    1
    23    32    33    1
    24    32    34    1
    25    34    35    2
    26    10    11   ar
    27    11    12   ar
    28    12    13   ar
    29    13    14   ar
    30    14    15   ar
    31    15    10   ar
    32     1     2   ar
    33     2     4   ar
    34     4     5   ar
    35     5     6   ar
    36     6     7   ar
    37     7     1   ar
