@<TRIPOS>MOLECULE
No_547-gen_results/8p0m/2024-11-26-14-13-15/
 18 19 0 0 0
SMALL
GASTEIGER

@<TRIPOS>ATOM
      1 C         -28.0162   -0.8135   28.8779 C.3     1  UNL1        0.1534
      2 C         -27.0636   -0.1189   28.6079 C.ar    1  UNL1        0.0022
      3 C         -27.0010    0.6913   27.4910 C.ar    1  UNL1       -0.0023
      4 C         -25.8548    1.4825   27.0830 C.ar    1  UNL1       -0.0001
      5 C         -24.6901    1.4526   27.8807 C.ar    1  UNL1        0.0046
      6 C         -24.7379    0.6010   29.0416 C.ar    1  UNL1        0.0564
      7 C         -25.8234   -0.1688   29.3887 C.ar    1  UNL1        0.0023
      8 N         -28.7300   -0.5298   30.0429 N.2     1  UNL1       -0.2490
      9 C         -28.9322    0.3227   30.5381 C.2     1  UNL1        0.1591
     10 N         -28.7806    1.5592   30.0480 N.pl3   1  UNL1       -0.2913
     11 C         -29.0410    1.8705   28.9883 C.3     1  UNL1        0.0922
     12 C         -29.3636    3.3724   28.7851 C.3     1  UNL1        0.0215
     13 C         -28.2171    2.6360   30.9667 C.3     1  UNL1        0.0922
     14 C         -28.4972    3.9330   30.8560 C.3     1  UNL1        0.0215
     15 C         -28.8877    4.3502   29.5896 C.3     1  UNL1        0.0035
     16 C         -23.4565    0.5128   29.8409 C.2     1  UNL1        0.2842
     17 N         -23.4965    0.5531   31.1086 N.am    1  UNL1       -0.0837
     18 O         -22.3294    0.4045   29.2393 O.2     1  UNL1       -0.2667
@<TRIPOS>BOND
     1     1     2    1
     2     1     8    1
     3     8     9    2
     4     9    10    1
     5    10    11    1
     6    10    13    1
     7    12    15    1
     8    14    15    1
     9     6    16    1
    10    16    17   am
    11    16    18    2
    12    11    12    1
    13    14    13    1
    14     2     3   ar
    15     3     4   ar
    16     4     5   ar
    17     5     6   ar
    18     6     7   ar
    19     7     2   ar
