@<TRIPOS>MOLECULE
No_548-gen_results/8p0m/2024-11-26-14-13-15/
 20 22 0 0 0
SMALL
GASTEIGER

@<TRIPOS>ATOM
      1 C         -28.0162   -0.8135   28.8779 C.ar    1  UNL1        0.0056
      2 C         -28.4690   -0.7850   29.8287 C.ar    1  UNL1        0.0678
      3 C         -26.5455   -0.8762   28.8500 C.ar    1  UNL1       -0.0001
      4 C         -25.6825   -0.7773   27.6829 C.ar    1  UNL1       -0.0037
      5 C         -27.9181   -1.0034   31.1877 C.ar    1  UNL1        0.0056
      6 C         -26.5308   -1.0794   31.2463 C.ar    1  UNL1        0.0002
      7 C         -25.7798   -1.0462   30.0905 C.ar    1  UNL1        0.0002
      8 C         -24.3676   -0.2501   27.7917 C.ar    1  UNL1       -0.0109
      9 C         -23.6808   -0.4762   29.0175 C.ar    1  UNL1        0.0872
     10 C         -24.3689   -0.7866   30.1443 C.ar    1  UNL1        0.0074
     11 C         -22.2194   -0.1933   29.0554 C.2     1  UNL1        0.4177
     12 N         -21.3046   -0.8348   29.4380 N.2     1  UNL1        0.1975
     13 N         -21.8620    0.9907   28.3175 N.pl3   1  UNL1        0.0013
     14 C         -30.0657   -0.8430   29.9002 C.2     1  UNL1        0.3334
     15 O         -30.7298   -1.6659   30.1057 O.2     1  UNL1       -0.2541
     16 F         -30.5408    0.3492   29.6018 F       1  UNL1       -0.1586
     17 C         -22.7101    1.9277   27.7899 C.2     1  UNL1        0.2198
     18 C         -23.9301    0.5915   26.7392 C.3     1  UNL1        0.0482
     19 C         -24.8628    0.5121   25.5955 C.3     1  UNL1        0.0095
     20 C         -23.1847    1.6876   26.7302 C.2     1  UNL1        0.0260
@<TRIPOS>BOND
     1     9    11    1
     2    11    12    2
     3    11    13    1
     4     2    14    1
     5    14    15    2
     6    14    16    1
     7    13    17    1
     8     8    18    1
     9    18    19    1
    10    17    20    2
    11    18    20    1
    12     1     2   ar
    13     2     5   ar
    14     5     6   ar
    15     6     7   ar
    16     3     1   ar
    17     3     4   ar
    18     4     8   ar
    19     8     9   ar
    20     9    10   ar
    21    10     7   ar
    22     7     3   ar
