@<TRIPOS>MOLECULE
No_549-gen_results/8p0m/2024-11-26-14-13-15/
 13 13 0 0 0
SMALL
GASTEIGER

@<TRIPOS>ATOM
      1 C         -28.0162   -0.8135   28.8779 C.ar    1  UNL1        0.1462
      2 C         -27.0636   -0.1189   28.6079 C.ar    1  UNL1        0.0580
      3 C         -27.0010    0.6913   27.4910 C.ar    1  UNL1       -0.0136
      4 C         -28.1420    0.8282   26.7994 C.ar    1  UNL1        0.0029
      5 C         -29.2898   -0.4871   28.3661 C.ar    1  UNL1        0.0367
      6 C         -29.2849    0.2608   27.2623 C.ar    1  UNL1        0.0817
      7 F         -27.9861   -1.5527   30.0261 F       1  UNL1       -0.2037
      8 C         -30.4343    0.5228   26.2959 C.2     1  UNL1        0.3878
      9 O         -31.3765   -0.0527   26.4253 O.co2   1  UNL1       -0.2406
     10 O         -30.3488    1.3796   25.3333 O.co2   1  UNL1       -0.2406
     11 BR        -25.5203   -0.5026   29.7331 Br      1  UNL1       -0.0470
     12 C         -25.6201    1.2895   27.0935 C.3     1  UNL1        0.0269
     13 C         -24.5542    1.0382   27.7998 C.3     1  UNL1        0.0050
@<TRIPOS>BOND
     1     1     7    1
     2     6     8    1
     3     8     9   ar
     4     8    10   ar
     5     2    11    1
     6     3    12    1
     7    12    13    1
     8     1     2   ar
     9     2     3   ar
    10     3     4   ar
    11     4     6   ar
    12     6     5   ar
    13     5     1   ar
