@<TRIPOS>MOLECULE
No_550-gen_results/8p0m/2024-11-26-14-13-15/
 18 19 0 0 0
SMALL
GASTEIGER

@<TRIPOS>ATOM
      1 C         -28.0162   -0.8135   28.8779 C.ar    1  UNL1        0.0063
      2 C         -27.0636   -0.1189   28.6079 C.ar    1  UNL1       -0.0034
      3 C         -25.7647   -0.3897   29.0360 C.ar    1  UNL1       -0.0146
      4 C         -25.5296   -1.5302   29.9014 C.ar    1  UNL1       -0.0034
      5 C         -26.6577   -2.2915   30.2035 C.ar    1  UNL1        0.0063
      6 C         -27.8548   -1.9555   29.7630 C.ar    1  UNL1        0.0798
      7 C         -24.5349    0.4128   28.7431 C.3     1  UNL1        0.0640
      8 C         -24.0543    1.3255   29.5757 C.2     1  UNL1       -0.0144
      9 C         -22.9412    2.1456   29.2103 C.2     1  UNL1       -0.0066
     10 C         -22.2591    1.9298   27.9819 C.2     1  UNL1       -0.0045
     11 C         -23.6600    0.7128   27.5492 C.2     1  UNL1       -0.0180
     12 C         -28.9957   -2.8090   30.1848 C.2     1  UNL1        0.3878
     13 O         -29.3387   -2.7829   31.2482 O.co2   1  UNL1       -0.2406
     14 O         -29.2229   -3.9479   29.5274 O.co2   1  UNL1       -0.2406
     15 C         -24.6375    1.5394   30.9881 C.3     1  UNL1        0.1631
     16 CL        -24.7824    0.4601   32.0346 Cl      1  UNL1       -0.1020
     17 C         -25.1536    2.8877   31.2099 C.2     1  UNL1        0.2275
     18 O         -25.1170    3.3354   32.2302 O.2     1  UNL1       -0.2866
@<TRIPOS>BOND
     1     3     7    1
     2     7     8    1
     3     8     9    2
     4     9    10    1
     5     7    11    1
     6    10    11    2
     7     6    12    1
     8    12    13   ar
     9    12    14   ar
    10     8    15    1
    11    15    16    1
    12    15    17    1
    13    17    18    2
    14     1     2   ar
    15     2     3   ar
    16     3     4   ar
    17     4     5   ar
    18     5     6   ar
    19     6     1   ar
