@<TRIPOS>MOLECULE
No_551-gen_results/8p0m/2024-11-26-14-13-15/
 7 7 0 0 0
SMALL
GASTEIGER

@<TRIPOS>ATOM
      1 C         -28.0162   -0.8135   28.8779 C.ar    1  UNL1        0.0023
      2 C         -27.0636   -0.1189   28.6079 C.ar    1  UNL1        0.0296
      3 C         -26.7751    0.5580   27.4144 C.ar    1  UNL1        0.1401
      4 C         -27.8572    0.5591   26.4738 C.ar    1  UNL1        0.0296
      5 C         -29.0489    0.0816   26.8831 C.ar    1  UNL1        0.0023
      6 C         -29.1631   -0.5648   28.0490 C.ar    1  UNL1        0.0001
      7 F         -25.6454    1.1380   27.0938 F       1  UNL1       -0.2042
@<TRIPOS>BOND
     1     3     7    1
     2     1     2   ar
     3     2     3   ar
     4     3     4   ar
     5     4     5   ar
     6     5     6   ar
     7     6     1   ar
