@<TRIPOS>MOLECULE
No_552-gen_results/8p0m/2024-11-26-14-13-15/
 23 25 0 0 0
SMALL
GASTEIGER

@<TRIPOS>ATOM
      1 C         -28.0162   -0.8135   28.8779 C.ar    1  UNL1        0.0114
      2 C         -28.4690   -0.7850   29.8287 C.ar    1  UNL1        0.0577
      3 C         -26.5455   -0.8762   28.8500 C.ar    1  UNL1        0.0010
      4 C         -25.8974   -0.8267   29.8894 C.ar    1  UNL1        0.0028
      5 C         -27.9129   -0.8385   31.1942 C.ar    1  UNL1        0.0114
      6 C         -26.5519   -0.8324   31.1775 C.ar    1  UNL1        0.0010
      7 CL        -30.3056   -0.8795   30.0283 Cl      1  UNL1       -0.0822
      8 C         -24.3728   -0.8415   29.9244 C.ar    1  UNL1        0.0331
      9 C         -23.7584    0.4902   30.1184 C.ar    1  UNL1        0.0002
     10 C         -24.1694    1.4634   30.5608 C.3     1  UNL1        0.0327
     11 C         -25.5001    1.5878   31.0863 C.3     1  UNL1        0.0311
     12 C         -25.8163    2.9959   31.5880 C.ar    1  UNL1       -0.0218
     13 C         -27.0060    3.2222   32.2858 C.ar    1  UNL1       -0.0043
     14 C         -27.5806    4.4522   32.2190 C.ar    1  UNL1       -0.0003
     15 C         -26.8743    5.5690   31.7465 C.ar    1  UNL1       -0.0000
     16 C         -25.6783    5.3726   31.1316 C.ar    1  UNL1       -0.0003
     17 C         -25.1492    4.1012   30.9896 C.ar    1  UNL1       -0.0043
     18 C         -23.7543   -1.9928   29.5086 C.ar    1  UNL1        0.1574
     19 C         -22.2810    0.1150   29.9673 C.ar    1  UNL1        0.0948
     20 N         -21.6743   -0.8989   29.5054 N.ar    1  UNL1       -0.2395
     21 C         -22.4201   -1.9649   29.2733 C.ar    1  UNL1        0.1356
     22 O         -24.3871   -3.0819   29.2267 O.3     1  UNL1       -0.4699
     23 C         -24.3626   -3.8456   28.1387 C.3     1  UNL1        0.2525
@<TRIPOS>BOND
     1     2     7    1
     2     4     8    1
     3    10    11    1
     4    18    22    1
     5    22    23    1
     6    10     9    1
     7    11    12    1
     8    12    13   ar
     9    13    14   ar
    10    14    15   ar
    11    15    16   ar
    12    16    17   ar
    13    17    12   ar
    14     8     9   ar
    15     9    19   ar
    16    19    20   ar
    17    20    21   ar
    18    21    18   ar
    19    18     8   ar
    20     1     2   ar
    21     2     5   ar
    22     5     6   ar
    23     6     4   ar
    24     4     3   ar
    25     3     1   ar
