@<TRIPOS>MOLECULE
No_554-gen_results/8p0m/2024-11-26-14-13-15/
 24 27 0 0 0
SMALL
GASTEIGER

@<TRIPOS>ATOM
      1 O         -28.1229   -1.3353   28.4874 O.2     1  UNL1       -0.2745
      2 C         -28.5208   -0.4363   29.0779 C.2     1  UNL1        0.2292
      3 C         -27.6655    0.1129   30.0346 C.3     1  UNL1        0.0814
      4 N         -29.7419    0.1102   28.8873 N.am    1  UNL1       -0.2586
      5 C         -26.5482   -0.3758   30.3091 C.3     1  UNL1        0.0354
      6 C         -30.5631   -0.4460   27.9246 C.ar    1  UNL1        0.0538
      7 C         -25.3312    0.4416   30.0672 C.ar    1  UNL1       -0.0217
      8 C         -24.0582   -0.1343   29.9613 C.ar    1  UNL1       -0.0043
      9 C         -22.9419    0.6655   29.6360 C.ar    1  UNL1       -0.0003
     10 C         -23.1878    1.9548   29.1259 C.ar    1  UNL1       -0.0000
     11 C         -24.4674    2.5026   29.1302 C.ar    1  UNL1       -0.0003
     12 C         -25.5449    1.7755   29.5930 C.ar    1  UNL1       -0.0043
     13 C         -30.2762    1.2383   29.6513 C.3     1  UNL1        0.0982
     14 C         -29.4836    1.7146   30.6387 C.3     1  UNL1        0.0224
     15 C         -28.2014    1.2332   30.9257 C.3     1  UNL1        0.0112
     16 C         -31.7206   -0.8541   28.1449 C.ar    1  UNL1        0.0149
     17 C         -32.5094   -1.4668   27.1578 C.ar    1  UNL1        0.0013
     18 C         -32.0009   -1.5241   25.8138 C.ar    1  UNL1        0.0001
     19 C         -30.7203   -0.9568   25.5756 C.ar    1  UNL1        0.0012
     20 C         -30.0044   -0.3512   26.5525 C.ar    1  UNL1        0.0137
     21 C         -30.1762   -0.9679   24.1994 C.ar    1  UNL1        0.0000
     22 C         -28.9193   -0.2609   24.0877 C.ar    1  UNL1        0.0000
     23 C         -28.6180    0.6570   25.0011 C.ar    1  UNL1        0.0000
     24 C         -28.9179    0.5267   26.2721 C.ar    1  UNL1        0.0012
@<TRIPOS>BOND
     1     1     2    2
     2     2     3    1
     3     2     4   am
     4     3     5    1
     5     4     6    1
     6     4    13    1
     7     3    15    1
     8    14    15    1
     9     5     7    1
    10    14    13    1
    11     6    16   ar
    12    16    17   ar
    13    17    18   ar
    14    18    19   ar
    15    20     6   ar
    16    19    20   ar
    17    20    24   ar
    18    24    23   ar
    19    23    22   ar
    20    22    21   ar
    21    21    19   ar
    22     7     8   ar
    23     8     9   ar
    24     9    10   ar
    25    10    11   ar
    26    11    12   ar
    27    12     7   ar
