@<TRIPOS>MOLECULE
No_555-gen_results/8p0m/2024-11-26-14-13-15/
 19 21 0 0 0
SMALL
GASTEIGER

@<TRIPOS>ATOM
      1 C         -28.0162   -0.8135   28.8779 C.ar    1  UNL1       -0.0190
      2 C         -28.4690   -0.7850   29.8287 C.ar    1  UNL1       -0.0040
      3 C         -28.1960    0.3478   28.0550 C.3     1  UNL1        0.0377
      4 C         -27.4421    0.5100   26.7946 C.3     1  UNL1        0.0081
      5 C         -27.8427    1.3330   25.8056 C.3     1  UNL1        0.0006
      6 C         -28.2558   -1.9271   30.8901 C.ar    1  UNL1       -0.0003
      7 C         -27.4492   -2.9641   30.4317 C.ar    1  UNL1       -0.0000
      8 C         -26.6412   -2.8044   29.3509 C.ar    1  UNL1       -0.0003
      9 C         -26.7826   -1.6363   28.6124 C.ar    1  UNL1       -0.0040
     10 C         -29.6824    0.4347   27.5665 C.3     1  UNL1        0.0081
     11 C         -27.7853    1.7221   28.7699 C.ar    1  UNL1       -0.0190
     12 C         -30.0762    1.2739   26.5395 C.3     1  UNL1        0.0007
     13 C         -26.8305    1.6053   24.7345 C.3     1  UNL1        0.0000
     14 C         -29.1765    1.7766   25.6005 C.3     1  UNL1        0.0000
     15 C         -28.6725    2.5075   29.1522 C.ar    1  UNL1       -0.0040
     16 C         -28.2199    3.5976   29.9506 C.ar    1  UNL1       -0.0003
     17 C         -26.4503    1.8622   29.1659 C.ar    1  UNL1       -0.0040
     18 C         -25.9685    2.9276   29.9013 C.ar    1  UNL1       -0.0003
     19 C         -26.9287    3.8614   30.2880 C.ar    1  UNL1       -0.0000
@<TRIPOS>BOND
     1     1     3    1
     2     3     4    1
     3     4     5    1
     4     3    10    1
     5     3    11    1
     6     5    13    1
     7     5    14    1
     8    12    14    1
     9    12    10    1
    10    11    15   ar
    11    15    16   ar
    12    16    19   ar
    13    19    18   ar
    14    18    17   ar
    15    17    11   ar
    16     1     2   ar
    17     2     6   ar
    18     6     7   ar
    19     7     8   ar
    20     8     9   ar
    21     9     1   ar
