@<TRIPOS>MOLECULE
No_559-gen_results/8p0m/2024-11-26-14-13-15/
 16 17 0 0 0
SMALL
GASTEIGER

@<TRIPOS>ATOM
      1 C         -28.0162   -0.8135   28.8779 C.ar    1  UNL1        0.0259
      2 C         -28.4690   -0.7850   29.8287 C.ar    1  UNL1        0.0587
      3 C         -27.1356    0.2359   28.5352 C.ar    1  UNL1        0.0929
      4 C         -26.8050    1.0509   29.2763 C.ar    1  UNL1        0.1559
      5 C         -28.2372    0.1503   30.9300 C.ar    1  UNL1        0.0146
      6 C         -27.3522    1.1239   30.6071 C.ar    1  UNL1        0.0392
      7 CL        -26.3827    0.1705   26.9252 Cl      1  UNL1       -0.0790
      8 CL        -29.5890   -2.1037   30.3896 Cl      1  UNL1       -0.0822
      9 O         -25.8928    2.1183   28.9608 O.3     1  UNL1       -0.4494
     10 C         -24.7214    2.0407   28.7549 C.ar    1  UNL1        0.1840
     11 C         -23.7911    1.5310   29.6408 C.ar    1  UNL1        0.0408
     12 C         -22.4718    1.1741   29.3743 C.ar    1  UNL1        0.0033
     13 C         -22.0098    1.5121   28.0620 C.ar    1  UNL1        0.0035
     14 C         -24.1628    2.3473   27.4340 C.ar    1  UNL1        0.2299
     15 C         -22.8119    2.1135   27.1461 C.ar    1  UNL1        0.0452
     16 O         -24.9042    3.0020   26.5596 O.3     1  UNL1       -0.2833
@<TRIPOS>BOND
     1     3     7    1
     2     2     8    1
     3     4     9    1
     4     9    10    1
     5    14    16    1
     6    10    11   ar
     7    11    12   ar
     8    12    13   ar
     9    13    15   ar
    10    15    14   ar
    11    14    10   ar
    12     1     2   ar
    13     2     5   ar
    14     5     6   ar
    15     6     4   ar
    16     4     3   ar
    17     3     1   ar
