@<TRIPOS>MOLECULE
No_56-gen_results/8p0m/2024-11-26-14-13-15/
 25 26 0 0 0
SMALL
GASTEIGER

@<TRIPOS>ATOM
      1 C         -28.0162   -0.8135   28.8779 C.ar    1  UNL1       -0.0004
      2 C         -27.0636   -0.1190   28.6079 C.ar    1  UNL1       -0.0039
      3 C         -26.9716    0.7139   27.5060 C.ar    1  UNL1       -0.0177
      4 C         -28.1053    0.7744   26.6421 C.ar    1  UNL1       -0.0001
      5 C         -29.2041    0.1179   27.0477 C.ar    1  UNL1        0.0711
      6 C         -29.2127   -0.6088   28.1281 C.ar    1  UNL1        0.0038
      7 C         -30.3709    0.2326   26.1381 C.3     1  UNL1        0.4186
      8 F         -30.8796    1.3071   26.1221 F       1  UNL1       -0.1659
      9 F         -30.0034   -0.1132   24.8849 F       1  UNL1       -0.1659
     10 F         -31.3082   -0.7110   26.3839 F       1  UNL1       -0.1659
     11 C         -25.6709    1.4257   27.1247 C.3     1  UNL1        0.0574
     12 C         -25.1867    2.3475   28.1101 C.2     1  UNL1        0.0422
     13 C         -24.1686    2.5466   28.5923 C.2     1  UNL1        0.0824
     14 C         -26.2046    3.5079   28.3267 C.2     1  UNL1        0.2456
     15 C         -22.9839    1.7875   28.1241 C.2     1  UNL1        0.3414
     16 N         -26.1238    4.2457   29.3522 N.am    1  UNL1       -0.2763
     17 C         -26.3274    5.6113   29.1491 C.3     1  UNL1        0.0937
     18 O         -22.2570    2.0297   27.4446 O.2     1  UNL1       -0.2449
     19 O         -22.8389    0.6362   28.8911 O.3     1  UNL1       -0.4413
     20 C         -26.1196    3.7986   30.6597 C.3     1  UNL1        0.0937
     21 O         -27.1041    3.6613   27.5021 O.2     1  UNL1       -0.2702
     22 C         -25.6389    4.5854   31.5801 C.3     1  UNL1        0.0216
     23 C         -25.7836    6.5573   30.2079 C.3     1  UNL1        0.0216
     24 C         -25.5945    6.0011   31.5022 C.3     1  UNL1        0.0035
     25 C         -21.6471    0.0375   29.0200 C.3     1  UNL1        0.2560
@<TRIPOS>BOND
     1     5     7    1
     2     7     8    1
     3     7     9    1
     4     7    10    1
     5     3    11    1
     6    11    12    1
     7    12    13    2
     8    12    14    1
     9    13    15    1
    10    14    16   am
    11    16    17    1
    12    15    18    2
    13    15    19    1
    14    16    20    1
    15    14    21    2
    16    22    24    1
    17    23    24    1
    18    19    25    1
    19    17    23    1
    20    22    20    1
    21     1     2   ar
    22     2     3   ar
    23     3     4   ar
    24     4     5   ar
    25     5     6   ar
    26     6     1   ar
