@<TRIPOS>MOLECULE
No_560-gen_results/8p0m/2024-11-26-14-13-15/
 13 14 0 0 0
SMALL
GASTEIGER

@<TRIPOS>ATOM
      1 C         -28.0162   -0.8135   28.8779 C.ar    1  UNL1        0.0000
      2 C         -27.0636   -0.1189   28.6079 C.ar    1  UNL1        0.0000
      3 C         -26.8756    1.1325   28.9134 C.ar    1  UNL1        0.0002
      4 C         -25.6883    1.9515   28.5672 C.ar    1  UNL1        0.0066
      5 C         -24.6394    1.2834   27.8753 C.ar    1  UNL1        0.0798
      6 C         -24.8181   -0.0802   27.6166 C.ar    1  UNL1        0.0066
      7 C         -25.9311   -0.7717   27.9696 C.ar    1  UNL1        0.0002
      8 C         -28.6536   -0.5272   30.2401 C.ar    1  UNL1        0.0000
      9 C         -28.8474    0.8243   30.5135 C.ar    1  UNL1        0.0000
     10 C         -27.6851    1.6562   30.0705 C.ar    1  UNL1        0.0000
     11 C         -23.4724    1.9593   27.3589 C.2     1  UNL1        0.3878
     12 O         -22.3244    1.7333   27.8066 O.co2   1  UNL1       -0.2406
     13 O         -23.6937    3.1253   26.7616 O.co2   1  UNL1       -0.2406
@<TRIPOS>BOND
     1     5    11    1
     2    11    12   ar
     3    11    13   ar
     4     3     4   ar
     5     4     5   ar
     6     5     6   ar
     7     6     7   ar
     8     7     2   ar
     9     1     2   ar
    10     2     3   ar
    11     3    10   ar
    12    10     9   ar
    13     9     8   ar
    14     8     1   ar
