@<TRIPOS>MOLECULE
No_563-gen_results/8p0m/2024-11-26-14-13-15/
 35 38 0 0 0
SMALL
GASTEIGER

@<TRIPOS>ATOM
      1 C         -28.0162   -0.8135   28.8779 C.2     1  UNL1        0.2458
      2 C         -27.0636   -0.1189   28.6079 C.2     1  UNL1        0.0318
      3 C         -25.7923   -0.4302   29.0761 C.2     1  UNL1       -0.0025
      4 C         -24.5456    0.3494   28.8225 C.2     1  UNL1        0.0070
      5 C         -24.6586    1.4196   27.8878 C.2     1  UNL1        0.0688
      6 C         -25.9471    1.6811   27.3792 C.3     1  UNL1        0.0676
      7 C         -27.0439    0.9739   27.6871 C.3     1  UNL1        0.0407
      8 N         -29.1797   -0.1202   29.1288 N.am    1  UNL1       -0.2623
      9 C         -29.5842    0.1318   30.4036 C.3     1  UNL1        0.1166
     10 C         -30.2803   -0.5752   28.2364 C.3     1  UNL1        0.1815
     11 C         -23.3719    1.8319   27.5507 C.2     1  UNL1        0.3759
     12 N         -22.2178    1.5193   28.1318 N.2     1  UNL1       -0.0577
     13 N         -23.2489    2.6755   26.4030 N.2     1  UNL1        0.0128
     14 C         -30.6802    0.3860   27.2825 C.2     1  UNL1        0.2617
     15 O         -31.6491    0.8136   27.5098 O.2     1  UNL1       -0.2715
     16 N         -29.9522    0.4854   26.1276 N.am    1  UNL1       -0.2021
     17 C         -30.3471    1.4249   25.0861 C.3     1  UNL1        0.1386
     18 C         -29.2066    1.4200   30.9136 C.2     1  UNL1       -0.0236
     19 C         -29.0741    1.5212   32.1238 C.2     1  UNL1        0.0064
     20 C         -29.5895    0.6024   33.0714 C.3     1  UNL1        0.2043
     21 C         -30.0007   -0.8505   31.2303 C.2     1  UNL1       -0.0040
     22 C         -29.9622   -0.6667   32.6219 C.2     1  UNL1        0.0104
     23 O         -27.9277   -1.9517   29.3797 O.2     1  UNL1       -0.2702
     24 C         -22.0889    0.7183   29.1181 C.3     1  UNL1        0.2907
     25 C         -23.3059   -0.0588   29.4524 C.3     1  UNL1        0.2215
     26 C         -26.0451    2.8276   26.4136 C.2     1  UNL1        0.0678
     27 C         -24.5740    3.3261   26.0542 C.1     1  UNL1        0.1289
     28 F         -29.5526    0.8017   34.4034 F       1  UNL1       -0.2276
     29 C         -23.2048   -1.0606   30.4883 C.3     1  UNL1        0.4173
     30 F         -22.5232   -0.7093   31.5013 F       1  UNL1       -0.1682
     31 F         -24.4241   -1.4657   30.8808 F       1  UNL1       -0.1682
     32 F         -22.5092   -2.0595   29.8873 F       1  UNL1       -0.1682
     33 CL        -22.8793   -1.0256   28.6952 Cl      1  UNL1       -0.0983
     34 C         -28.8055    2.5576   30.0315 C.3     1  UNL1        0.0237
     35 C         -29.7621    3.5014   29.6610 C.3     1  UNL1        0.0047
@<TRIPOS>BOND
     1     1     2    1
     2     2     3    2
     3     3     4    1
     4     4     5    2
     5     5     6    1
     6     2     7    1
     7     6     7    1
     8     1     8   am
     9     8     9    1
    10     8    10    1
    11     5    11    1
    12    11    12    2
    13    11    13    1
    14    10    14    1
    15    14    15    2
    16    14    16   am
    17    16    17    1
    18     9    18    1
    19    18    19    2
    20    19    20    1
    21     9    21    1
    22    20    22    1
    23    21    22    2
    24     1    23    2
    25    12    24    1
    26     4    25    1
    27    24    25    1
    28     6    26    1
    29    13    27    2
    30    26    27    2
    31    20    28    1
    32    25    29    1
    33    29    30    1
    34    29    31    1
    35    29    32    1
    36    25    33    1
    37    18    34    1
    38    34    35    1
