@<TRIPOS>MOLECULE
No_564-gen_results/8p0m/2024-11-26-14-13-15/
 10 10 0 0 0
SMALL
GASTEIGER

@<TRIPOS>ATOM
      1 C         -28.0162   -0.8135   28.8779 C.ar    1  UNL1        0.0129
      2 C         -28.4690   -0.7850   29.8287 C.ar    1  UNL1        0.0200
      3 C         -28.1960    0.3478   28.0550 C.ar    1  UNL1        0.0578
      4 C         -29.0191    1.3501   28.3782 C.ar    1  UNL1        0.0129
      5 C         -29.4107    0.1803   30.3782 C.ar    1  UNL1        0.0810
      6 C         -29.6059    1.2495   29.6193 C.ar    1  UNL1        0.0200
      7 CL        -27.3467    0.3760   26.5145 Cl      1  UNL1       -0.0822
      8 N         -29.9746   -0.0277   31.6749 N.2     1  UNL1       -0.2485
      9 C         -30.2156    0.9466   32.4192 C.2     1  UNL1        0.0728
     10 C         -30.4577    2.1627   31.7205 C.3     1  UNL1        0.0534
@<TRIPOS>BOND
     1     3     7    1
     2     5     8    1
     3     8     9    2
     4     9    10    1
     5     1     2   ar
     6     2     5   ar
     7     5     6   ar
     8     6     4   ar
     9     4     3   ar
    10     3     1   ar
