@<TRIPOS>MOLECULE
No_565-gen_results/8p0m/2024-11-26-14-13-15/
 8 8 0 0 0
SMALL
GASTEIGER

@<TRIPOS>ATOM
      1 C         -28.0162   -0.8135   28.8779 C.2     1  UNL1        0.0304
      2 C         -28.4690   -0.7850   29.8287 C.1     1  UNL1        0.1246
      3 C         -28.1960    0.3478   28.0550 C.3     1  UNL1        0.0329
      4 C         -27.4421    0.5100   26.7946 C.3     1  UNL1        0.0051
      5 C         -26.1689   -0.0794   26.6787 C.3     1  UNL1        0.0007
      6 C         -25.7312   -0.9607   27.6875 C.3     1  UNL1        0.0051
      7 C         -26.5043   -1.2222   28.7582 C.3     1  UNL1        0.0329
      8 O         -28.5229   -1.9262   30.6367 O.2     1  UNL1       -0.2318
@<TRIPOS>BOND
     1     1     2    2
     2     1     3    1
     3     3     4    1
     4     4     5    1
     5     5     6    1
     6     1     7    1
     7     6     7    1
     8     2     8    2
