@<TRIPOS>MOLECULE
No_566-gen_results/8p0m/2024-11-26-14-13-15/
 35 37 0 0 0
SMALL
GASTEIGER

@<TRIPOS>ATOM
      1 C         -28.0162   -0.8135   28.8779 C.ar    0  UNK0        0.0046
      2 C         -27.0636   -0.1190   28.6079 C.ar    0  UNK0        0.0001
      3 C         -25.7647   -0.3897   29.0360 C.ar    0  UNK0        0.0001
      4 C         -25.5296   -1.5302   29.9014 C.ar    0  UNK0        0.0001
      5 C         -26.6888   -2.2893   30.1810 C.ar    0  UNK0        0.0046
      6 C         -27.8727   -1.9508   29.7373 C.ar    0  UNK0        0.0551
      7 C         -24.5491    0.4100   28.7341 C.ar    0  UNK0        0.0014
      8 C         -24.0931    1.3779   29.5761 C.ar    0  UNK0        0.0176
      9 C         -22.9754    2.1437   29.2395 C.ar    0  UNK0        0.0015
     10 C         -22.2571    1.9096   28.0218 C.ar    0  UNK0        0.0000
     11 C         -23.7980    0.2733   27.5521 C.ar    0  UNK0        0.0000
     12 C         -22.7107    1.0013   27.2291 C.ar    0  UNK0        0.0000
     13 C         -29.0291   -2.7933   30.1645 C.2     0  UNK0        0.2652
     14 N         -30.1935   -2.3218   30.1814 N.am    1  ALA1       -0.1918
     15 O         -28.8123   -3.9797   30.5759 O.2     0  UNK0       -0.2684
     16 CA        -31.3772   -3.1181   30.5530 C.3     1  ALA1        0.1981
     17 CB        -31.5010   -3.9874   31.1531 C.3     1  ALA1        0.0356
     18 C         -32.3014   -2.9469   29.3473 C.2     1  ALA1        0.3842
     19 O         -32.3795   -1.9121   28.6849 O.co2   1  ALA1       -0.2437
     20 OXT       -33.1400   -3.8965   29.0637 O.co2   1  ALA1       -0.2437
     21 C         -24.7378    1.6331   30.9017 C.ar    0  UNK0        0.0809
     22 N         -24.8617    0.8086   31.8330 N.ar    0  UNK0       -0.2497
     23 C         -25.6450    1.0616   32.9654 C.ar    0  UNK0        0.0589
     24 C         -25.2928    2.9539   31.0731 C.ar    0  UNK0        0.0191
     25 C         -25.9503    3.3097   32.1945 C.ar    0  UNK0        0.0028
     26 C         -25.8160    0.0215   33.9762 C.3     0  UNK0        0.0458
     27 C         -26.1272    2.3377   33.1833 C.ar    0  UNK0        0.0147
     28 C         -26.9471   -0.7904   33.6623 C.3     0  UNK0        0.0066
     29 C         -27.9591   -0.8586   34.7225 C.3     0  UNK0        0.0051
     30 C         -28.3434    0.1516   35.0162 C.3     0  UNK0        0.0260
     31 C         -29.2504    0.9135   34.2065 C.2     0  UNK0       -0.0261
     32 C         -30.4233    0.8986   34.4649 C.2     0  UNK0       -0.0049
     33 C         -31.4116    1.5342   33.5250 C.2     0  UNK0       -0.0049
     34 C         -30.9000    2.0796   32.3563 C.2     0  UNK0       -0.0258
     35 C         -29.5707    2.0698   32.0783 C.3     0  UNK0        0.0307
@<TRIPOS>BOND
     1     3     7    1
     2     6    13    1
     3    13    14   am
     4    13    15    2
     5    14    16    1
     6    16    17    1
     7    16    18    1
     8    18    19   ar
     9    18    20   ar
    10     8    21    1
    11    23    26    1
    12    26    28    1
    13    28    29    1
    14    29    30    1
    15    30    31    1
    16    31    32    2
    17    32    33    1
    18    33    34    2
    19    34    35    1
    20     7     8   ar
    21     8     9   ar
    22     9    10   ar
    23    10    12   ar
    24    12    11   ar
    25    11     7   ar
    26     1     2   ar
    27     2     3   ar
    28     3     4   ar
    29     4     5   ar
    30     5     6   ar
    31     6     1   ar
    32    21    22   ar
    33    22    23   ar
    34    23    27   ar
    35    27    25   ar
    36    25    24   ar
    37    24    21   ar
