@<TRIPOS>MOLECULE
No_567-gen_results/8p0m/2024-11-26-14-13-15/
 19 20 0 0 0
SMALL
GASTEIGER

@<TRIPOS>ATOM
      1 C         -28.0162   -0.8135   28.8779 C.ar    1  UNL1        0.0112
      2 C         -27.0636   -0.1190   28.6079 C.ar    1  UNL1        0.0799
      3 C         -25.7923   -0.4302   29.0761 C.ar    1  UNL1        0.0066
      4 C         -25.5756   -1.5654   29.9363 C.ar    1  UNL1        0.0004
      5 C         -26.7354   -2.3004   30.2173 C.ar    1  UNL1        0.0046
      6 C         -27.9184   -1.9537   29.7629 C.ar    1  UNL1        0.0556
      7 C         -27.1057    1.1023   27.7593 C.2     1  UNL1        0.3878
      8 O         -27.0311    2.0658   28.1483 O.co2   1  UNL1       -0.2406
      9 O         -26.9296    0.7145   26.4704 O.co2   1  UNL1       -0.2406
     10 C         -29.0481   -2.7860   30.2175 C.2     1  UNL1        0.2690
     11 N         -30.1830   -2.3112   30.2550 N.am    1  UNL1       -0.1755
     12 O         -28.8600   -3.9963   30.5790 O.2     1  UNL1       -0.2680
     13 C         -31.4252   -3.0236   30.6308 C.ar    1  UNL1        0.0734
     14 C         -32.4377   -2.7634   29.9935 C.ar    1  UNL1        0.0166
     15 C         -33.0196   -3.6528   29.2723 C.ar    1  UNL1        0.0010
     16 C         -32.7411   -5.0979   29.4961 C.ar    1  UNL1       -0.0042
     17 C         -31.6285   -5.3566   30.3326 C.ar    1  UNL1       -0.0206
     18 C         -31.2331   -6.6666   30.6477 C.3     1  UNL1        0.0311
     19 C         -30.9345   -4.2487   30.8816 C.ar    1  UNL1        0.0124
@<TRIPOS>BOND
     1     2     7    1
     2     7     8   ar
     3     7     9   ar
     4     6    10    1
     5    10    11   am
     6    10    12    2
     7    11    13    1
     8    17    18    1
     9     1     2   ar
    10     2     3   ar
    11     3     4   ar
    12     4     5   ar
    13     5     6   ar
    14     6     1   ar
    15    13    14   ar
    16    14    15   ar
    17    15    16   ar
    18    16    17   ar
    19    17    19   ar
    20    19    13   ar
