@<TRIPOS>MOLECULE
No_568-gen_results/8p0m/2024-11-26-14-13-15/
 12 13 0 0 0
SMALL
GASTEIGER

@<TRIPOS>ATOM
      1 C         -28.0162   -0.8135   28.8779 C.ar    1  UNL1        0.0000
      2 C         -28.4690   -0.7850   29.8287 C.ar    1  UNL1        0.0000
      3 C         -26.5042   -0.7777   28.8766 C.ar    1  UNL1        0.0000
      4 C         -25.8103   -0.8531   30.1028 C.ar    1  UNL1        0.0000
      5 C         -27.9906   -0.8916   31.2257 C.ar    1  UNL1        0.0000
      6 C         -26.6042   -0.8676   31.2652 C.ar    1  UNL1        0.0000
      7 C         -24.3894   -0.8050   30.1639 C.ar    1  UNL1        0.0000
      8 C         -23.8172    0.4762   29.9118 C.ar    1  UNL1        0.0000
      9 C         -22.5010    0.5449   29.4097 C.ar    1  UNL1        0.0000
     10 C         -21.7696   -0.6524   29.2129 C.ar    1  UNL1        0.0000
     11 C         -23.6068   -1.9709   29.8891 C.ar    1  UNL1        0.0000
     12 C         -22.3138   -1.8349   29.3616 C.ar    1  UNL1        0.0000
@<TRIPOS>BOND
     1     4     7    1
     2     7     8   ar
     3     8     9   ar
     4     9    10   ar
     5    10    12   ar
     6    12    11   ar
     7    11     7   ar
     8     1     2   ar
     9     2     5   ar
    10     5     6   ar
    11     6     4   ar
    12     4     3   ar
    13     3     1   ar
