@<TRIPOS>MOLECULE
No_569-gen_results/8p0m/2024-11-26-14-13-15/
 35 39 0 0 0
SMALL
GASTEIGER

@<TRIPOS>ATOM
      1 C         -28.0162   -0.8135   28.8779 C.ar    1  UNL1        0.0043
      2 C         -27.0636   -0.1189   28.6079 C.ar    1  UNL1       -0.0041
      3 C         -25.7647   -0.3897   29.0360 C.ar    1  UNL1       -0.0220
      4 C         -25.5296   -1.5302   29.9014 C.ar    1  UNL1       -0.0041
      5 C         -26.6888   -2.2893   30.1810 C.ar    1  UNL1        0.0043
      6 C         -27.8727   -1.9508   29.7373 C.ar    1  UNL1        0.0554
      7 C         -29.0016   -2.8142   30.1793 C.2     1  UNL1        0.2690
      8 N         -28.8271   -4.0755   30.4770 N.am    1  UNL1       -0.1754
      9 O         -30.1619   -2.3440   30.2525 O.2     1  UNL1       -0.2680
     10 C         -29.8734   -5.0252   30.8174 C.ar    1  UNL1        0.0737
     11 C         -29.7380   -5.6380   31.9875 C.ar    1  UNL1        0.0166
     12 C         -30.4887   -6.8563   32.1748 C.ar    1  UNL1        0.0013
     13 C         -31.4181   -7.2563   31.1988 C.ar    1  UNL1        0.0001
     14 C         -31.4890   -6.5070   30.0092 C.ar    1  UNL1        0.0013
     15 C         -30.5860   -5.4208   29.7883 C.ar    1  UNL1        0.0166
     16 C         -24.5417    0.4090   28.6757 C.3     1  UNL1        0.0331
     17 C         -24.5410    1.2245   27.6059 C.3     1  UNL1        0.0866
     18 C         -25.0891    1.4946   26.7585 C.3     1  UNL1        0.0358
     19 C         -26.3824    0.8606   26.5183 C.ar    1  UNL1       -0.0217
     20 C         -27.1711    0.3436   27.4246 C.ar    1  UNL1       -0.0045
     21 C         -23.3615    0.2329   29.5947 C.3     1  UNL1        0.0283
     22 C         -22.0540    0.3083   28.8778 C.3     1  UNL1        0.1155
     23 C         -22.9314    1.6316   27.4463 C.2     1  UNL1        0.2415
     24 N         -21.8858    1.2460   28.1062 N.am    1  UNL1       -0.2054
     25 O         -22.7522    2.4078   26.3195 O.2     1  UNL1       -0.2733
     26 C         -26.8456    0.6450   25.0579 C.ar    1  UNL1       -0.0045
     27 C         -28.1044    0.7914   24.6823 C.ar    1  UNL1       -0.0029
     28 C         -28.5923    0.3660   26.8724 C.ar    1  UNL1       -0.0029
     29 C         -29.0043    0.3003   25.5967 C.ar    1  UNL1       -0.0007
     30 C         -30.3162    0.3232   25.0905 C.3     1  UNL1        0.1386
     31 N         -31.2472   -0.2212   25.7798 N.pl3   1  UNL1       -0.2315
     32 C         -32.1428   -1.0375   25.5209 C.2     1  UNL1        0.0805
     33 C         -32.9694   -1.7111   26.5079 C.2     1  UNL1        0.0174
     34 C         -33.2434   -2.9564   26.5072 C.2     1  UNL1        0.0014
     35 C         -33.0918   -3.6739   25.2773 C.2     1  UNL1        0.0000
@<TRIPOS>BOND
     1     6     7    1
     2     7     8   am
     3     7     9    2
     4     8    10    1
     5     3    16    1
     6    16    17    1
     7    18    19    1
     8     2    20    1
     9    16    21    1
    10    21    22    1
    11    17    23    1
    12    23    24   am
    13    23    25    2
    14    29    30    1
    15    30    31    1
    16    31    32    1
    17    32    33    2
    18    33    34    1
    19    34    35    2
    20    18    17    1
    21    22    24    1
    22     1     2   ar
    23     2     3   ar
    24     3     4   ar
    25     4     5   ar
    26     5     6   ar
    27     6     1   ar
    28    10    11   ar
    29    11    12   ar
    30    12    13   ar
    31    13    14   ar
    32    14    15   ar
    33    15    10   ar
    34    19    20   ar
    35    20    28   ar
    36    28    29   ar
    37    29    27   ar
    38    27    26   ar
    39    26    19   ar
