@<TRIPOS>MOLECULE
No_570-gen_results/8p0m/2024-11-26-14-13-15/
 18 18 0 0 0
SMALL
GASTEIGER

@<TRIPOS>ATOM
      1 C         -28.0162   -0.8135   28.8779 C.ar    1  UNL1        0.0392
      2 C         -27.0636   -0.1190   28.6079 C.ar    1  UNL1        0.0327
      3 C         -25.7647   -0.3897   29.0360 C.ar    1  UNL1        0.1403
      4 C         -25.5296   -1.5302   29.9014 C.ar    1  UNL1        0.0327
      5 C         -26.6888   -2.2893   30.1810 C.ar    1  UNL1        0.0392
      6 C         -27.8727   -1.9508   29.7373 C.ar    1  UNL1        0.1387
      7 O         -28.9304   -2.7298   30.1154 O.3     1  UNL1       -0.4755
      8 F         -24.6889    0.3630   28.7847 F       1  UNL1       -0.2042
      9 C         -28.7792   -3.9681   30.6513 C.3     1  UNL1        0.2054
     10 C         -29.8290   -4.2706   31.6115 C.3     1  UNL1        0.0477
     11 C         -31.0446   -4.1992   31.0940 C.3     1  UNL1        0.0085
     12 C         -31.3597   -3.3491   30.1207 C.3     1  UNL1        0.0262
     13 C         -32.3822   -3.3216   29.2747 C.2     1  UNL1       -0.0261
     14 C         -32.4398   -2.4274   28.2243 C.2     1  UNL1       -0.0046
     15 C         -33.1444   -2.6396   27.0762 C.2     1  UNL1       -0.0003
     16 C         -32.9392   -1.8192   25.9037 C.2     1  UNL1       -0.0000
     17 C         -32.0310   -0.7611   25.9677 C.2     1  UNL1       -0.0000
     18 C         -31.3178   -0.5310   27.1297 C.2     1  UNL1       -0.0000
@<TRIPOS>BOND
     1     6     7    1
     2     3     8    1
     3     7     9    1
     4     9    10    1
     5    10    11    1
     6    11    12    1
     7    12    13    1
     8    13    14    2
     9    14    15    1
    10    15    16    2
    11    16    17    1
    12    17    18    2
    13     1     2   ar
    14     2     3   ar
    15     3     4   ar
    16     4     5   ar
    17     5     6   ar
    18     6     1   ar
