@<TRIPOS>MOLECULE
No_571-gen_results/8p0m/2024-11-26-14-13-15/
 7 6 0 0 0
SMALL
GASTEIGER

@<TRIPOS>ATOM
      1 C         -28.0162   -0.8135   28.8779 C.2     1  UNL1        0.1674
      2 C         -28.4690   -0.7850   29.8287 C.2     1  UNL1        0.0317
      3 F         -27.0143   -1.6184   28.6838 F       1  UNL1       -0.2018
      4 C         -28.0844   -1.6138   31.0991 C.2     1  UNL1        0.0006
      5 C         -26.9810   -2.4532   30.7387 C.2     1  UNL1        0.0117
      6 C         -26.4084   -2.4349   29.5242 C.3     1  UNL1        0.2195
      7 F         -25.4367   -3.2117   29.2008 F       1  UNL1       -0.2291
@<TRIPOS>BOND
     1     1     2    2
     2     1     3    1
     3     2     4    1
     4     4     5    2
     5     5     6    1
     6     6     7    1
