@<TRIPOS>MOLECULE
No_572-gen_results/8p0m/2024-11-26-14-13-15/
 15 15 0 0 0
SMALL
GASTEIGER

@<TRIPOS>ATOM
      1 O         -28.1229   -1.3353   28.4874 O.2     1  UNL1       -0.2667
      2 C         -27.4806   -0.4044   28.7094 C.2     1  UNL1        0.2842
      3 C         -26.3804   -0.0867   27.9394 C.2     1  UNL1        0.1581
      4 N         -27.4232    0.1749   30.0549 N.am    1  UNL1       -0.1984
      5 N         -25.9519    0.8314   27.9170 N.2     1  UNL1       -0.2388
      6 C         -28.3248   -0.0966   31.0208 C.3     1  UNL1        0.1389
      7 C         -24.8491    1.3073   27.1139 C.ar    1  UNL1        0.0879
      8 C         -25.0654    1.5501   25.9044 C.ar    1  UNL1        0.0193
      9 C         -23.5438    1.5821   27.6541 C.ar    1  UNL1        0.0973
     10 C         -23.1667    1.4318   29.0545 C.2     1  UNL1        0.3892
     11 C         -23.9138    1.8200   25.0238 C.ar    1  UNL1        0.0015
     12 C         -22.7103    2.1843   25.4995 C.ar    1  UNL1        0.0003
     13 C         -22.4822    2.0616   26.7925 C.ar    1  UNL1        0.0081
     14 O         -22.4859    0.4702   29.4588 O.co2   1  UNL1       -0.2405
     15 O         -24.0661    1.9916   30.0296 O.co2   1  UNL1       -0.2405
@<TRIPOS>BOND
     1     1     2    2
     2     2     3    1
     3     2     4   am
     4     3     5    2
     5     4     6    1
     6     5     7    1
     7     9    10    1
     8    10    14   ar
     9    10    15   ar
    10     7     8   ar
    11     8    11   ar
    12    11    12   ar
    13    12    13   ar
    14    13     9   ar
    15     9     7   ar
