@<TRIPOS>MOLECULE
No_574-gen_results/8p0m/2024-11-26-14-13-15/
 15 16 0 0 0
SMALL
GASTEIGER

@<TRIPOS>ATOM
      1 C         -28.0162   -0.8135   28.8779 C.ar    1  UNL1        0.0066
      2 C         -27.0636   -0.1189   28.6079 C.ar    1  UNL1        0.0002
      3 C         -25.7923   -0.4302   29.0761 C.ar    1  UNL1        0.0000
      4 C         -24.5456    0.3494   28.8225 C.ar    1  UNL1        0.0000
      5 C         -23.2409    0.0217   29.3323 C.ar    1  UNL1        0.0000
      6 C         -27.8820   -1.8995   29.8633 C.ar    1  UNL1        0.0798
      7 C         -26.6526   -2.3142   30.3138 C.ar    1  UNL1        0.0066
      8 C         -25.5153   -1.5607   29.9787 C.ar    1  UNL1        0.0002
      9 C         -22.1588    0.7866   28.9507 C.ar    1  UNL1        0.0000
     10 C         -22.1309    1.7439   27.9818 C.ar    1  UNL1        0.0000
     11 C         -24.5165    1.3706   27.7930 C.ar    1  UNL1        0.0000
     12 C         -23.3378    2.0353   27.4273 C.ar    1  UNL1        0.0000
     13 C         -29.0445   -2.7311   30.2899 C.2     1  UNL1        0.3878
     14 O         -28.9916   -3.9332   30.2797 O.co2   1  UNL1       -0.2406
     15 O         -29.9423   -2.1427   31.0583 O.co2   1  UNL1       -0.2406
@<TRIPOS>BOND
     1     3     4    1
     2     6    13    1
     3    13    14   ar
     4    13    15   ar
     5     1     2   ar
     6     2     3   ar
     7     3     8   ar
     8     8     7   ar
     9     7     6   ar
    10     6     1   ar
    11     4     5   ar
    12     5     9   ar
    13     9    10   ar
    14    10    12   ar
    15    12    11   ar
    16    11     4   ar
