@<TRIPOS>MOLECULE
No_575-gen_results/8p0m/2024-11-26-14-13-15/
 29 32 0 0 0
SMALL
GASTEIGER

@<TRIPOS>ATOM
      1 C         -28.0162   -0.8135   28.8779 C.ar    1  UNL1        0.0114
      2 C         -27.0636   -0.1190   28.6079 C.ar    1  UNL1        0.0577
      3 C         -26.8756    1.1325   28.9134 C.ar    1  UNL1        0.0114
      4 C         -27.9014    1.8066   29.6436 C.ar    1  UNL1        0.0009
      5 C         -29.0458   -0.2316   29.7181 C.ar    1  UNL1        0.0009
      6 C         -28.9402    1.0517   30.0597 C.ar    1  UNL1       -0.0002
      7 CL        -25.7206   -0.8229   27.6886 Cl      1  UNL1       -0.0822
      8 C         -30.0291    1.6913   30.8750 C.ar    1  UNL1       -0.0036
      9 C         -31.0856    1.9481   30.6939 C.ar    1  UNL1       -0.0166
     10 C         -32.0163    2.5979   31.5961 C.ar    1  UNL1        0.0106
     11 C         -29.4576    2.0205   32.2782 C.ar    1  UNL1        0.0010
     12 C         -30.2886    2.6575   33.1936 C.ar    1  UNL1        0.0145
     13 C         -31.5588    2.9416   32.8432 C.ar    1  UNL1        0.0475
     14 N         -32.4119    3.5705   33.7316 N.pl3   1  UNL1       -0.3075
     15 C         -31.9563    4.1318   34.8231 C.3     1  UNL1        0.0913
     16 C         -33.8113    3.6042   33.4496 C.3     1  UNL1        0.0913
     17 C         -32.6236    4.5982   35.7199 C.3     1  UNL1        0.0327
     18 C         -34.6161    4.1541   34.5021 C.3     1  UNL1        0.0327
     19 C         -34.0249    4.7058   35.6091 C.3     1  UNL1        0.1068
     20 C         -34.9201    5.2766   36.6393 C.2     1  UNL1        0.3644
     21 O         -34.4960    5.9165   37.5684 O.co2   1  UNL1       -0.2457
     22 O         -36.1929    5.2521   36.3505 O.co2   1  UNL1       -0.2457
     23 C         -31.7150    1.6145   29.3417 C.3     1  UNL1        0.0527
     24 C         -31.8719    2.7895   28.5514 C.ar    1  UNL1       -0.0178
     25 C         -32.3999    2.5875   27.2315 C.ar    1  UNL1       -0.0039
     26 C         -32.5073    3.6524   26.4250 C.ar    1  UNL1       -0.0003
     27 C         -32.1494    5.0036   26.8689 C.ar    1  UNL1       -0.0000
     28 C         -31.6179    5.1506   28.1107 C.ar    1  UNL1       -0.0003
     29 C         -31.4930    4.1245   28.9365 C.ar    1  UNL1       -0.0039
@<TRIPOS>BOND
     1     2     7    1
     2     6     8    1
     3    13    14    1
     4    14    15    1
     5    14    16    1
     6    17    19    1
     7    18    19    1
     8    19    20    1
     9    20    21   ar
    10    20    22   ar
    11     9    23    1
    12    23    24    1
    13    15    17    1
    14    18    16    1
    15     8     9   ar
    16     9    10   ar
    17    10    13   ar
    18    13    12   ar
    19    12    11   ar
    20    11     8   ar
    21     1     2   ar
    22     2     3   ar
    23     3     4   ar
    24     4     6   ar
    25     6     5   ar
    26     5     1   ar
    27    24    25   ar
    28    25    26   ar
    29    26    27   ar
    30    27    28   ar
    31    28    29   ar
    32    29    24   ar
