@<TRIPOS>MOLECULE
No_576-gen_results/8p0m/2024-11-26-14-13-15/
 35 37 0 0 0
SMALL
GASTEIGER

@<TRIPOS>ATOM
      1 C         -28.0162   -0.8135   28.8779 C.ar    1  UNL1        0.0578
      2 C         -27.0636   -0.1190   28.6079 C.ar    1  UNL1        0.0114
      3 C         -26.9716    0.7139   27.5060 C.ar    1  UNL1        0.0010
      4 C         -28.1053    0.7744   26.6421 C.ar    1  UNL1        0.0046
      5 C         -29.2041    0.1179   27.0477 C.ar    1  UNL1        0.0548
      6 C         -29.2127   -0.6088   28.1281 C.ar    1  UNL1        0.0159
      7 C         -25.7106    1.4518   27.1380 C.ar    1  UNL1        0.0002
      8 C         -24.6052    0.9253   27.6902 C.ar    1  UNL1        0.0046
      9 C         -23.3087    1.6018   27.4923 C.ar    1  UNL1        0.0567
     10 C         -23.2169    2.4959   26.4391 C.ar    1  UNL1        0.0046
     11 C         -25.2940    2.1630   26.0166 C.ar    1  UNL1        0.0000
     12 C         -24.2459    2.8667   25.7470 C.ar    1  UNL1        0.0001
     13 C         -22.1211    1.1339   28.2986 C.2     1  UNL1        0.2842
     14 N         -21.0175    1.7141   28.1581 N.am    1  UNL1       -0.0837
     15 O         -22.2656    0.2839   29.2088 O.2     1  UNL1       -0.2667
     16 C         -30.4102    0.2223   26.1812 C.2     1  UNL1        0.2547
     17 N         -30.3535    0.1922   24.9991 N.am    1  UNL1       -0.2267
     18 O         -31.5556    0.1782   26.7355 O.2     1  UNL1       -0.2695
     19 CL        -28.0655   -1.7812   30.3169 Cl      1  UNL1       -0.0822
     20 C         -29.0898    0.2007   24.1901 C.3     1  UNL1        0.2510
     21 C         -31.4962    0.2605   24.0843 C.2     1  UNL1        0.0703
     22 C         -31.6861    1.2993   23.2694 C.2     1  UNL1        0.0190
     23 C         -30.8443    2.3300   23.4407 C.2     1  UNL1        0.0338
     24 C         -29.4221    2.0218   23.5684 C.2     1  UNL1        0.1206
     25 C         -28.3707    1.5788   23.8300 C.3     1  UNL1        0.1208
     26 O         -29.0412    3.1439   23.6069 O.2     1  UNL1       -0.4795
     27 C         -28.2824    3.6738   24.6496 C.3     1  UNL1        0.2067
     28 F         -29.2841   -0.5822   23.0798 F       1  UNL1       -0.2139
     29 C         -28.8450    4.9793   25.2239 C.3     1  UNL1        0.0691
     30 C         -30.1681    4.7948   25.7054 C.3     1  UNL1        0.0995
     31 N         -30.3795    4.6602   27.0659 N.pl3   1  UNL1       -0.2848
     32 C         -31.3318    5.2656   27.6742 C.2     1  UNL1        0.0654
     33 C         -29.6576    3.6403   27.7504 C.2     1  UNL1        0.0654
     34 C         -30.1712    3.2327   29.0604 C.2     1  UNL1        0.0174
     35 C         -31.8004    4.8321   29.0010 C.2     1  UNL1        0.0174
@<TRIPOS>BOND
     1     3     7    1
     2     9    13    1
     3    13    14   am
     4    13    15    2
     5     5    16    1
     6    16    17   am
     7    16    18    2
     8     1    19    1
     9    17    20    1
    10    17    21    1
    11    21    22    2
    12    22    23    1
    13    23    24    2
    14    20    25    1
    15    24    25    1
    16    24    26    1
    17    26    27    1
    18    20    28    1
    19    27    29    1
    20    29    30    1
    21    30    31    1
    22    31    32    1
    23    31    33    1
    24    33    34    2
    25    32    35    2
    26     7     8   ar
    27     8     9   ar
    28     9    10   ar
    29    10    12   ar
    30    12    11   ar
    31    11     7   ar
    32     1     2   ar
    33     2     3   ar
    34     3     4   ar
    35     4     5   ar
    36     5     6   ar
    37     6     1   ar
