@<TRIPOS>MOLECULE
No_577-gen_results/8p0m/2024-11-26-14-13-15/
 11 11 0 0 0
SMALL
GASTEIGER

@<TRIPOS>ATOM
      1 C         -28.0162   -0.8135   28.8779 C.ar    1  UNL1        0.0006
      2 C         -27.0636   -0.1190   28.6079 C.ar    1  UNL1        0.0114
      3 C         -26.9716    0.7139   27.5060 C.ar    1  UNL1        0.0574
      4 C         -28.1053    0.7744   26.6421 C.ar    1  UNL1        0.0096
      5 C         -29.2041    0.1179   27.0477 C.ar    1  UNL1        0.0078
      6 C         -29.2066   -0.5972   28.1825 C.ar    1  UNL1       -0.0017
      7 CL        -25.5378    1.5619   27.0645 Cl      1  UNL1       -0.0823
      8 C         -30.4934    0.1382   26.3646 C.3     1  UNL1        0.1527
      9 C         -30.5520    0.0208   25.0493 C.3     1  UNL1        0.0399
     10 F         -31.3235   -0.8362   26.8940 F       1  UNL1       -0.2355
     11 C         -31.2298    1.4864   26.7280 C.3     1  UNL1        0.0399
@<TRIPOS>BOND
     1     3     7    1
     2     5     8    1
     3     8     9    1
     4     8    10    1
     5     8    11    1
     6     1     2   ar
     7     2     3   ar
     8     3     4   ar
     9     4     5   ar
    10     5     6   ar
    11     6     1   ar
