@<TRIPOS>MOLECULE
No_578-gen_results/8p0m/2024-11-26-14-13-15/
 20 21 0 0 0
SMALL
GASTEIGER

@<TRIPOS>ATOM
      1 C         -28.0162   -0.8135   28.8779 C.ar    1  UNL1        0.0216
      2 C         -27.0636   -0.1189   28.6079 C.3     1  UNL1        0.0829
      3 C         -26.9716    0.7139   27.5060 C.2     1  UNL1        0.1549
      4 C         -25.8205    1.4909   27.1160 C.3     1  UNL1        0.0740
      5 C         -24.6562    1.4242   27.9180 C.3     1  UNL1        0.0872
      6 C         -24.7114    0.5419   29.0507 C.3     1  UNL1        0.0104
      7 C         -25.8042   -0.2058   29.3881 C.3     1  UNL1        0.0123
      8 C         -29.2448   -0.0497   29.2060 C.ar    1  UNL1        0.0412
      9 C         -30.3887   -0.7756   29.6611 C.ar    1  UNL1        0.1956
     10 C         -30.1973   -2.0661   30.1112 C.ar    1  UNL1        0.0451
     11 C         -28.9734   -2.7075   30.1577 C.ar    1  UNL1        0.0399
     12 C         -27.8712   -2.0513   29.6645 C.ar    1  UNL1        0.1351
     13 C         -23.4543    2.1746   27.6166 C.2     1  UNL1        0.2607
     14 N         -23.4098    3.0755   26.7738 N.am    1  UNL1       -0.0878
     15 O         -22.3142    1.8185   28.1500 O.2     1  UNL1       -0.2717
     16 O         -26.6798   -2.6490   29.7375 O.3     1  UNL1       -0.4758
     17 O         -31.5648   -0.1976   29.7157 O.3     1  UNL1       -0.2866
     18 C         -26.2164   -3.4938   28.9054 C.3     1  UNL1        0.2055
     19 C         -24.7153   -3.3989   28.8765 C.3     1  UNL1        0.0512
     20 O         -28.0024    0.8183   26.7112 O.2     1  UNL1       -0.2957
@<TRIPOS>BOND
     1     2     3    1
     2     3     4    1
     3     5     6    1
     4     2     7    1
     5     6     7    1
     6     5    13    1
     7    13    14   am
     8    13    15    2
     9    12    16    1
    10     9    17    1
    11    16    18    1
    12    18    19    1
    13     3    20    2
    14     1     2    1
    15     5     4    1
    16     1     8   ar
    17     8     9   ar
    18     9    10   ar
    19    10    11   ar
    20    11    12   ar
    21    12     1   ar
