@<TRIPOS>MOLECULE
No_579-gen_results/8p0m/2024-11-26-14-13-15/
 15 15 0 0 0
SMALL
GASTEIGER

@<TRIPOS>ATOM
      1 C         -28.0162   -0.8135   28.8779 C.ar    1  UNL1        0.0050
      2 C         -28.4690   -0.7850   29.8287 C.ar    1  UNL1        0.0536
      3 C         -26.5042   -0.7777   28.8766 C.ar    1  UNL1        0.0068
      4 C         -25.8103   -0.8531   30.1028 C.ar    1  UNL1        0.0346
      5 C         -27.9906   -0.8916   31.2257 C.ar    1  UNL1        0.0050
      6 C         -26.6042   -0.8676   31.2652 C.ar    1  UNL1        0.0068
      7 BR        -23.9859   -0.7976   30.1716 Br      1  UNL1       -0.0490
      8 C         -30.1025   -0.8345   29.8561 C.2     1  UNL1        0.2493
      9 O         -30.7539   -1.6035   29.9692 O.2     1  UNL1       -0.2699
     10 N         -30.5886    0.4929   29.5860 N.am    1  UNL1       -0.2702
     11 C         -31.9687    0.6897   29.4354 C.3     1  UNL1        0.1155
     12 C         -29.7342    1.6925   29.4281 C.3     1  UNL1        0.1199
     13 C         -29.8479    2.5685   30.5239 C.2     1  UNL1       -0.0092
     14 C         -30.5566    2.8396   31.2426 C.2     1  UNL1       -0.0287
     15 C         -30.4805    3.8492   32.2926 C.3     1  UNL1        0.0304
@<TRIPOS>BOND
     1     4     7    1
     2     2     8    1
     3     8     9    2
     4     8    10   am
     5    10    11    1
     6    10    12    1
     7    12    13    1
     8    13    14    2
     9    14    15    1
    10     1     2   ar
    11     2     5   ar
    12     5     6   ar
    13     6     4   ar
    14     4     3   ar
    15     3     1   ar
