@<TRIPOS>MOLECULE
No_580-gen_results/8p0m/2024-11-26-14-13-15/
 11 12 0 0 0
SMALL
GASTEIGER

@<TRIPOS>ATOM
      1 C         -28.0162   -0.8135   28.8779 C.ar    1  UNL1        0.0988
      2 C         -27.0636   -0.1189   28.6079 C.ar    1  UNL1        0.0192
      3 C         -27.0010    0.6913   27.4910 C.ar    1  UNL1        0.0024
      4 C         -25.8548    1.4825   27.0830 C.ar    1  UNL1        0.0114
      5 C         -24.6901    1.4526   27.8807 C.ar    1  UNL1        0.0577
      6 C         -24.7379    0.6010   29.0416 C.ar    1  UNL1        0.0115
      7 C         -25.8234   -0.1688   29.3887 C.ar    1  UNL1        0.0039
      8 N         -27.9613   -1.6072   30.0877 N.ar    1  UNL1       -0.2423
      9 CL        -23.3305    2.3485   27.5233 Cl      1  UNL1       -0.0822
     10 C         -26.7844   -1.8876   30.7128 C.ar    1  UNL1        0.0989
     11 C         -25.6910   -1.0863   30.4317 C.ar    1  UNL1        0.0207
@<TRIPOS>BOND
     1     5     9    1
     2     2     3   ar
     3     3     4   ar
     4     4     5   ar
     5     5     6   ar
     6     6     7   ar
     7     1     2   ar
     8     2     7   ar
     9     7    11   ar
    10    11    10   ar
    11    10     8   ar
    12     8     1   ar
