@<TRIPOS>MOLECULE
No_581-gen_results/8p0m/2024-11-26-14-13-15/
 28 32 0 0 0
SMALL
GASTEIGER

@<TRIPOS>ATOM
      1 O         -28.1229   -1.3353   28.4874 O.2     1  UNL1       -0.2730
      2 C         -27.0637   -0.8242   28.8687 C.2     1  UNL1        0.2459
      3 N         -26.4446   -0.0097   28.8266 N.am    1  UNL1       -0.1794
      4 C         -26.1457   -2.0744   29.6687 C.3     1  UNL1        0.0919
      5 C         -25.1296    0.4235   29.2284 C.ar    1  UNL1        0.0734
      6 C         -24.4458    1.6979   28.9325 C.ar    1  UNL1        0.0649
      7 C         -24.2940   -0.5139   29.9356 C.ar    1  UNL1       -0.0062
      8 C         -24.9345   -1.7728   30.1320 C.3     1  UNL1        0.0373
      9 C         -23.1155    1.7107   28.6313 C.ar    1  UNL1       -0.0165
     10 C         -22.2922    0.6768   29.2711 C.ar    1  UNL1       -0.0044
     11 C         -22.8893   -0.5585   29.6886 C.ar    1  UNL1       -0.0033
     12 C         -25.1012    2.8159   29.1814 C.2     1  UNL1        0.2537
     13 O         -25.4580    3.2929   30.2418 O.2     1  UNL1       -0.2695
     14 N         -25.2031    3.7297   28.0922 N.am    1  UNL1       -0.2551
     15 C         -25.8119    5.0896   28.1923 C.ar    1  UNL1        0.0541
     16 C         -24.7916    3.3751   26.7438 C.3     1  UNL1        0.0991
     17 C         -26.1839    5.6154   27.3497 C.ar    1  UNL1        0.0149
     18 C         -24.3903    2.1325   26.4699 C.3     1  UNL1        0.0286
     19 C         -26.7254    6.9570   27.5933 C.ar    1  UNL1        0.0013
     20 C         -26.8293    7.5023   28.8414 C.ar    1  UNL1        0.0001
     21 C         -26.3980    6.6815   29.9107 C.ar    1  UNL1        0.0013
     22 C         -25.8386    5.5468   29.6359 C.ar    1  UNL1        0.0149
     23 C         -24.8068    1.5646   25.5124 C.3     1  UNL1        0.0240
     24 C         -24.4056    0.1402   25.2649 C.2     1  UNL1       -0.0310
     25 C         -23.3986    1.5873   27.3427 C.3     1  UNL1        0.0286
     26 C         -25.3860   -0.5360   24.4076 C.2     1  UNL1       -0.0307
     27 C         -26.6487    0.2330   24.2932 C.3     1  UNL1        0.0260
     28 C         -26.2369    1.5164   25.1996 C.3     1  UNL1        0.0091
@<TRIPOS>BOND
     1     1     2    2
     2     2     3   am
     3     2     4    1
     4     3     5    1
     5     6    12    1
     6    12    13    2
     7    12    14   am
     8    14    15    1
     9    14    16    1
    10    16    18    1
    11    18    23    1
    12    23    24    1
    13     9    25    1
    14    18    25    1
    15    24    26    2
    16    26    27    1
    17    23    28    1
    18    27    28    1
    19     7     8    1
    20     8     4    1
    21     5     6   ar
    22     6     9   ar
    23     9    10   ar
    24    10    11   ar
    25    11     7   ar
    26     7     5   ar
    27    15    17   ar
    28    17    19   ar
    29    19    20   ar
    30    20    21   ar
    31    21    22   ar
    32    22    15   ar
