@<TRIPOS>MOLECULE
No_582-gen_results/8p0m/2024-11-26-14-13-15/
 16 17 0 0 0
SMALL
GASTEIGER

@<TRIPOS>ATOM
      1 C         -28.0162   -0.8135   28.8779 C.ar    1  UNL1       -0.0040
      2 C         -27.0636   -0.1189   28.6079 C.ar    1  UNL1       -0.0145
      3 C         -26.9716    0.7139   27.5060 C.3     1  UNL1        0.1254
      4 C         -25.8205    1.4909   27.1160 C.3     1  UNL1        0.0174
      5 C         -24.8579    1.3421   27.6008 C.3     1  UNL1        0.0214
      6 C         -24.6224    0.5295   28.8144 C.3     1  UNL1        0.0799
      7 C         -25.7344   -0.1811   29.1908 C.ar    1  UNL1       -0.0112
      8 C         -27.9844   -1.3975   30.2842 C.ar    1  UNL1       -0.0003
      9 C         -26.7573   -1.7892   30.8293 C.ar    1  UNL1       -0.0003
     10 C         -25.6455   -1.0425   30.4219 C.ar    1  UNL1       -0.0033
     11 C         -28.2197    0.8435   26.6277 C.2     1  UNL1        0.3683
     12 O         -28.1997    0.9816   25.4460 O.co2   1  UNL1       -0.2453
     13 O         -29.3441    0.7149   27.2019 O.co2   1  UNL1       -0.2453
     14 N         -23.4202    0.4357   29.4928 N.3     1  UNL1       -0.2679
     15 C         -22.1718    0.3868   28.7895 C.3     1  UNL1        0.0899
     16 C         -23.3207    0.6276   30.8708 C.3     1  UNL1        0.0899
@<TRIPOS>BOND
     1     2     3    1
     2     3     4    1
     3     4     5    1
     4     5     6    1
     5     6     7    1
     6     3    11    1
     7    11    12   ar
     8    11    13   ar
     9     6    14    1
    10    14    15    1
    11    14    16    1
    12     1     2   ar
    13     2     7   ar
    14     7    10   ar
    15    10     9   ar
    16     9     8   ar
    17     8     1   ar
