@<TRIPOS>MOLECULE
No_584-gen_results/8p0m/2024-11-26-14-13-15/
 14 15 0 0 0
SMALL
GASTEIGER

@<TRIPOS>ATOM
      1 C         -28.0162   -0.8135   28.8779 C.ar    1  UNL1        0.0022
      2 C         -27.0636   -0.1189   28.6079 C.ar    1  UNL1        0.0276
      3 C         -26.9716    0.7139   27.5060 C.ar    1  UNL1        0.1401
      4 C         -25.8206    1.4910   27.1160 C.ar    1  UNL1        0.0298
      5 C         -24.6562    1.4242   27.9180 C.ar    1  UNL1        0.0071
      6 C         -24.7114    0.5419   29.0507 C.ar    1  UNL1        0.0595
      7 C         -25.8042   -0.2058   29.3881 C.ar    1  UNL1        0.0069
      8 C         -28.0672   -1.5382   30.1911 C.ar    1  UNL1        0.0001
      9 C         -26.8381   -1.7680   30.8773 C.ar    1  UNL1        0.0000
     10 C         -25.7411   -1.0297   30.5541 C.ar    1  UNL1        0.0002
     11 F         -27.9666    0.8013   26.6433 F       1  UNL1       -0.2042
     12 C         -23.3916    0.4910   29.8329 C.2     1  UNL1        0.2968
     13 N         -22.2184    0.5309   29.2366 N.2     1  UNL1       -0.1025
     14 O         -23.4625    0.4223   31.1160 O.2     1  UNL1       -0.2636
@<TRIPOS>BOND
     1     3    11    1
     2     6    12    1
     3    12    13    2
     4    12    14    1
     5     2     3   ar
     6     3     4   ar
     7     4     5   ar
     8     5     6   ar
     9     6     7   ar
    10     1     2   ar
    11     2     7   ar
    12     7    10   ar
    13    10     9   ar
    14     9     8   ar
    15     8     1   ar
