@<TRIPOS>MOLECULE
No_585-gen_results/8p0m/2024-11-26-14-13-15/
 15 16 0 0 0
SMALL
GASTEIGER

@<TRIPOS>ATOM
      1 C         -28.0162   -0.8135   28.8779 C.ar    1  UNL1        0.0192
      2 C         -27.0636   -0.1189   28.6079 C.ar    1  UNL1        0.0837
      3 C         -25.7923   -0.4302   29.0761 C.ar    1  UNL1        0.0192
      4 C         -25.5756   -1.5654   29.9363 C.ar    1  UNL1        0.0015
      5 C         -26.7354   -2.3004   30.2173 C.ar    1  UNL1        0.0001
      6 C         -27.9184   -1.9537   29.7629 C.ar    1  UNL1        0.0015
      7 N         -27.1059    1.0338   27.8185 N.2     1  UNL1       -0.2180
      8 C         -26.2610    1.3293   26.9037 C.2     1  UNL1        0.2222
      9 C         -26.3173    2.4686   26.1228 C.ar    1  UNL1        0.0459
     10 F         -25.2580    0.6015   26.7799 F       1  UNL1       -0.1832
     11 C         -25.2552    3.1505   25.5856 C.ar    1  UNL1        0.0038
     12 C         -27.5777    2.9928   25.6533 C.ar    1  UNL1        0.0038
     13 C         -24.9752    4.5068   25.9070 C.ar    1  UNL1        0.0001
     14 C         -26.1081    5.3035   26.2713 C.ar    1  UNL1        0.0000
     15 C         -27.4242    4.5794   26.1396 C.ar    1  UNL1        0.0001
@<TRIPOS>BOND
     1     2     7    1
     2     7     8    2
     3     8     9    1
     4     8    10    1
     5     1     2   ar
     6     2     3   ar
     7     3     4   ar
     8     4     5   ar
     9     5     6   ar
    10     6     1   ar
    11     9    11   ar
    12    11    13   ar
    13    13    14   ar
    14    14    15   ar
    15    15    12   ar
    16    12     9   ar
