@<TRIPOS>MOLECULE
No_586-gen_results/8p0m/2024-11-26-14-13-15/
 35 39 0 0 0
SMALL
GASTEIGER

@<TRIPOS>ATOM
      1 C         -28.0162   -0.8135   28.8779 C.ar    1  UNL1        0.0000
      2 C         -28.4690   -0.7850   29.8287 C.ar    1  UNL1        0.0000
      3 C         -27.0871    0.2903   28.6377 C.ar    1  UNL1        0.0010
      4 C         -26.2516    0.4114   27.4222 C.ar    1  UNL1        0.0114
      5 C         -29.4309   -1.9307   30.2714 C.ar    1  UNL1        0.0000
      6 C         -25.1465    1.2405   27.3564 C.ar    1  UNL1        0.0579
      7 C         -24.7814    1.9840   28.5026 C.ar    1  UNL1        0.0178
      8 C         -25.4736    1.8471   29.6355 C.ar    1  UNL1        0.0765
      9 C         -26.5034    1.0016   29.7688 C.ar    1  UNL1        0.0063
     10 C         -30.2094   -1.9271   31.3829 C.ar    1  UNL1        0.0000
     11 C         -29.9966   -0.8758   32.3192 C.ar    1  UNL1        0.0000
     12 C         -29.1561    0.1225   32.0746 C.ar    1  UNL1        0.0000
     13 C         -28.4668    0.1976   30.9561 C.ar    1  UNL1        0.0000
     14 C         -27.3608    1.0778   30.7354 C.ar    1  UNL1        0.0002
     15 CL        -24.2381    1.3771   25.8966 Cl      1  UNL1       -0.0822
     16 C         -24.9625    2.7041   30.8016 C.2     1  UNL1        0.3417
     17 O         -25.2929    3.8193   30.8891 O.3     1  UNL1       -0.4353
     18 O         -24.0885    2.0085   31.6322 O.2     1  UNL1       -0.2449
     19 C         -25.1359    4.5200   32.1520 C.3     1  UNL1        0.2929
     20 C         -24.6717    5.8638   31.9653 C.2     1  UNL1        0.2703
     21 O         -25.0646    6.3957   30.9270 O.2     1  UNL1       -0.2708
     22 N         -23.5425    6.3340   32.6507 N.am    1  UNL1       -0.2764
     23 C         -22.9729    5.7542   33.7903 C.3     1  UNL1        0.0953
     24 C         -23.6593    7.8333   32.7710 C.3     1  UNL1        0.0953
     25 C         -22.4160    8.3629   32.8157 C.3     1  UNL1        0.0431
     26 C         -21.7263    8.1142   34.1532 C.3     1  UNL1        0.0959
     27 C         -21.6657    6.5006   34.2552 C.3     1  UNL1        0.0431
     28 N         -20.4017    8.6219   34.3468 N.pl3   1  UNL1       -0.2396
     29 C         -20.1966    9.8606   34.6795 C.ar    1  UNL1        0.0613
     30 C         -21.1990   10.7748   34.8963 C.ar    1  UNL1        0.0158
     31 C         -20.8987   12.1056   35.2580 C.ar    1  UNL1        0.0013
     32 C         -19.0375   10.5374   33.9191 C.ar    1  UNL1       -0.0070
     33 C         -17.8906    9.7737   33.6895 C.3     1  UNL1        0.0324
     34 C         -19.8615   12.6966   34.4751 C.ar    1  UNL1       -0.0002
     35 C         -18.6561   11.8988   34.4881 C.ar    1  UNL1       -0.0030
@<TRIPOS>BOND
     1     6    15    1
     2     8    16    1
     3    16    17    1
     4    16    18    2
     5    17    19    1
     6    19    20    1
     7    20    21    2
     8    20    22   am
     9    22    23    1
    10    22    24    1
    11    24    25    1
    12    25    26    1
    13    23    27    1
    14    26    27    1
    15    26    28    1
    16    28    29    1
    17    32    33    1
    18     3     4   ar
    19     4     6   ar
    20     6     7   ar
    21     7     8   ar
    22     8     9   ar
    23     2     5   ar
    24     5    10   ar
    25    10    11   ar
    26    11    12   ar
    27    12    13   ar
    28    29    30   ar
    29    30    31   ar
    30    31    34   ar
    31    34    35   ar
    32    35    32   ar
    33    32    29   ar
    34     1     2   ar
    35     2    13   ar
    36    13    14   ar
    37    14     9   ar
    38     9     3   ar
    39     3     1   ar
