@<TRIPOS>MOLECULE
No_587-gen_results/8p0m/2024-11-26-14-13-15/
 29 30 0 0 0
SMALL
GASTEIGER

@<TRIPOS>ATOM
      1 CL        -28.1493   -0.8198   28.9079 Cl      1  UNL1       -0.0788
      2 C         -27.8339    0.4961   29.0598 C.ar    1  UNL1        0.0983
      3 C         -27.5135    1.2383   28.0485 C.ar    1  UNL1        0.1558
      4 C         -27.0548    2.6251   28.1330 C.ar    1  UNL1        0.0344
      5 C         -26.9438    3.1838   29.4305 C.ar    1  UNL1       -0.0104
      6 C         -27.2205    2.3582   30.5116 C.ar    1  UNL1        0.0035
      7 C         -27.5987    1.0586   30.3700 C.ar    1  UNL1        0.0889
      8 C         -26.4783    4.5613   29.5893 C.3     1  UNL1        0.1298
      9 C         -25.8214    4.8884   30.6747 C.3     1  UNL1        0.4017
     10 F         -25.4783    6.1639   30.7800 F       1  UNL1       -0.1697
     11 F         -26.5136    4.6247   31.8611 F       1  UNL1       -0.1697
     12 F         -24.6713    4.1590   30.8177 F       1  UNL1       -0.1697
     13 O         -27.6387    0.7897   26.7964 O.3     1  UNL1       -0.4493
     14 C         -28.6586    0.9628   26.0509 C.ar    1  UNL1        0.1863
     15 C         -28.5166    0.4523   24.7410 C.ar    1  UNL1        0.2322
     16 C         -29.7947    1.5687   26.3644 C.ar    1  UNL1        0.0727
     17 C         -30.8487    1.7473   25.5022 C.ar    1  UNL1        0.1706
     18 C         -29.5970    0.5389   23.8237 C.ar    1  UNL1        0.0772
     19 C         -30.6941    1.2355   24.1856 C.ar    1  UNL1        0.1708
     20 F         -31.6819    1.3560   23.3366 F       1  UNL1       -0.2017
     21 C         -27.8930    0.2686   31.5866 C.2     1  UNL1        0.3427
     22 O         -27.7865    0.4779   32.5591 O.2     1  UNL1       -0.2448
     23 O         -28.5611   -0.9402   31.2176 O.3     1  UNL1       -0.4329
     24 O         -27.3971   -0.1853   24.3841 O.3     1  UNL1       -0.2832
     25 C         -28.5303   -1.8770   31.6642 C.3     1  UNL1        0.3215
     26 C         -28.8155   -3.0814   30.8056 C.2     1  UNL1        0.4086
     27 O         -28.1963   -4.1189   31.0180 O.co2   1  UNL1       -0.2415
     28 O         -29.7383   -3.0950   29.9493 O.co2   1  UNL1       -0.2415
     29 F         -31.9720    2.4009   25.7597 F       1  UNL1       -0.2017
@<TRIPOS>BOND
     1     1     2    1
     2     5     8    1
     3     8     9    1
     4     9    10    1
     5     9    11    1
     6     9    12    1
     7     3    13    1
     8    13    14    1
     9    19    20    1
    10     7    21    1
    11    21    22    2
    12    21    23    1
    13    15    24    1
    14    23    25    1
    15    25    26    1
    16    26    27   ar
    17    26    28   ar
    18    17    29    1
    19     2     3   ar
    20     3     4   ar
    21     4     5   ar
    22     5     6   ar
    23     6     7   ar
    24     7     2   ar
    25    14    15   ar
    26    15    18   ar
    27    18    19   ar
    28    19    17   ar
    29    17    16   ar
    30    16    14   ar
