@<TRIPOS>MOLECULE
No_588-gen_results/8p0m/2024-11-26-14-13-15/
 27 29 0 0 0
SMALL
GASTEIGER

@<TRIPOS>ATOM
      1 O         -28.1229   -1.3353   28.4874 O.2     1  UNL1       -0.2735
      2 C         -27.4806   -0.4044   28.7094 C.2     1  UNL1        0.2408
      3 C         -26.3804   -0.0867   27.9394 C.3     1  UNL1        0.1215
      4 N         -27.8993    0.6459   29.6321 N.am    1  UNL1       -0.2368
      5 C         -25.1243   -0.5319   28.3714 C.ar    1  UNL1       -0.0098
      6 C         -24.8017   -1.7099   28.7916 C.ar    1  UNL1       -0.0035
      7 C         -23.5023   -2.1464   29.1648 C.ar    1  UNL1       -0.0003
      8 C         -22.4857   -1.2326   28.9778 C.ar    1  UNL1       -0.0000
      9 C         -22.6675    0.0798   28.5081 C.ar    1  UNL1       -0.0003
     10 C         -24.0180    0.4307   28.2009 C.ar    1  UNL1       -0.0035
     11 C         -27.2731    1.9087   29.8370 C.ar    1  UNL1        0.0582
     12 C         -26.9108    2.6028   29.0029 C.ar    1  UNL1        0.0193
     13 C         -26.2172    3.8879   29.2600 C.ar    1  UNL1        0.0515
     14 C         -25.9207    4.1789   30.6055 C.ar    1  UNL1        0.0042
     15 C         -26.3047    3.2745   31.6172 C.ar    1  UNL1        0.0014
     16 C         -26.9677    2.0947   31.2758 C.ar    1  UNL1        0.0152
     17 C         -25.7525    4.8051   28.2276 C.2     1  UNL1        0.2536
     18 CL        -25.5533    6.3002   28.4888 Cl      1  UNL1       -0.0382
     19 O         -25.3978    4.2905   27.0378 O.2     1  UNL1       -0.2739
     20 C         -28.8246    0.1421   30.6674 C.ar    1  UNL1        0.0581
     21 C         -26.5653    0.4477   26.6250 C.2     1  UNL1       -0.0130
     22 C         -30.0370    0.9299   30.6082 C.ar    1  UNL1        0.0152
     23 C         -30.9386    0.5527   31.4047 C.ar    1  UNL1        0.0013
     24 C         -30.8015   -0.5919   32.2350 C.ar    1  UNL1        0.0001
     25 C         -29.6466   -1.3415   32.1973 C.ar    1  UNL1        0.0013
     26 C         -28.6042   -0.9315   31.3736 C.ar    1  UNL1        0.0152
     27 C         -25.4949    0.3176   25.7439 C.2     1  UNL1       -0.0041
@<TRIPOS>BOND
     1     1     2    2
     2     2     3    1
     3     2     4   am
     4     3     5    1
     5     4    11    1
     6    13    17    1
     7    17    18    1
     8    17    19    2
     9     4    20    1
    10     3    21    1
    11    21    27    2
    12    11    12   ar
    13    12    13   ar
    14    13    14   ar
    15    14    15   ar
    16    15    16   ar
    17    16    11   ar
    18     5     6   ar
    19     6     7   ar
    20     7     8   ar
    21     8     9   ar
    22     9    10   ar
    23    10     5   ar
    24    20    22   ar
    25    22    23   ar
    26    23    24   ar
    27    24    25   ar
    28    25    26   ar
    29    26    20   ar
