@<TRIPOS>MOLECULE
No_589-gen_results/8p0m/2024-11-26-14-13-15/
 21 21 0 0 0
SMALL
GASTEIGER

@<TRIPOS>ATOM
      1 C         -28.0162   -0.8135   28.8779 C.3     1  UNL1        0.1151
      2 C         -27.0636   -0.1190   28.6079 C.ar    1  UNL1       -0.0048
      3 C         -26.9287    1.1713   29.0083 C.ar    1  UNL1       -0.0029
      4 C         -25.7702    2.0341   28.6884 C.ar    1  UNL1        0.0036
      5 C         -24.7141    1.4431   27.9188 C.ar    1  UNL1        0.0714
      6 C         -24.8590    0.0783   27.5836 C.ar    1  UNL1        0.0036
      7 C         -25.9647   -0.6606   27.9164 C.ar    1  UNL1       -0.0029
      8 N         -28.6995   -0.6441   30.0766 N.3     1  UNL1       -0.2089
      9 C         -29.8035   -1.3645   30.5061 C.3     1  UNL1        0.1444
     10 C         -30.3751   -2.1790   29.7448 C.3     1  UNL1        0.2857
     11 C         -30.4580   -3.5170   30.2214 C.2     1  UNL1        0.4056
     12 O         -31.0295   -4.4147   29.4314 O.co2   1  UNL1       -0.2416
     13 C         -23.5376    2.1658   27.5638 C.3     1  UNL1        0.4186
     14 F         -22.6773    1.6394   27.1623 F       1  UNL1       -0.1659
     15 F         -23.0905    2.8938   28.6759 F       1  UNL1       -0.1659
     16 F         -23.9402    3.2116   26.7277 F       1  UNL1       -0.1659
     17 O         -29.5319   -4.0475   31.0633 O.co2   1  UNL1       -0.2416
     18 O         -31.6700   -1.7818   29.5004 O.2     1  UNL1       -0.4539
     19 C         -31.7996   -0.6424   28.7449 C.2     1  UNL1        0.2592
     20 C         -32.0817   -0.8307   27.4751 C.1     1  UNL1        0.1748
     21 O         -32.5399   -1.8152   27.1059 O.2     1  UNL1       -0.2278
@<TRIPOS>BOND
     1     1     2    1
     2     1     8    1
     3     8     9    1
     4     9    10    1
     5    10    11    1
     6    11    12   ar
     7     5    13    1
     8    13    14    1
     9    13    15    1
    10    13    16    1
    11    11    17   ar
    12    10    18    1
    13    18    19    1
    14    19    20    2
    15    20    21    2
    16     2     3   ar
    17     3     4   ar
    18     4     5   ar
    19     5     6   ar
    20     6     7   ar
    21     7     2   ar
