@<TRIPOS>MOLECULE
No_59-gen_results/8p0m/2024-11-26-14-13-15/
 23 24 0 0 0
SMALL
GASTEIGER

@<TRIPOS>ATOM
      1 C         -28.0162   -0.8135   28.8779 C.ar    1  UNL1        0.0369
      2 C         -27.0636   -0.1190   28.6079 C.ar    1  UNL1        0.0031
      3 C         -25.7923   -0.4302   29.0761 C.ar    1  UNL1        0.0002
      4 C         -25.5756   -1.5654   29.9363 C.ar    1  UNL1        0.0031
      5 C         -26.7354   -2.3004   30.2173 C.ar    1  UNL1        0.0369
      6 C         -27.9184   -1.9537   29.7629 C.ar    1  UNL1        0.1393
      7 O         -29.0001   -2.7012   30.1151 O.3     1  UNL1       -0.4656
      8 C         -24.5290    0.3490   28.7998 C.ar    1  UNL1        0.0000
      9 C         -23.3442    0.0060   29.1658 C.ar    1  UNL1        0.0000
     10 C         -22.1783    0.7811   28.7783 C.ar    1  UNL1        0.0000
     11 C         -22.3217    1.7499   27.7727 C.ar    1  UNL1        0.0000
     12 C         -24.6102    1.3558   27.7479 C.ar    1  UNL1        0.0000
     13 C         -23.5148    2.0341   27.3068 C.ar    1  UNL1        0.0000
     14 C         -28.8769   -3.9644   30.6079 C.3     1  UNL1        0.2915
     15 C         -30.1232   -4.6748   30.7699 C.2     1  UNL1        0.2901
     16 O         -29.9997   -5.6875   31.4228 O.2     1  UNL1       -0.2689
     17 N         -31.1914   -4.3855   30.1298 N.am    1  UNL1       -0.1747
     18 C         -32.3657   -5.1850   30.1682 C.2     1  UNL1        0.0887
     19 C         -33.1239   -4.9460   29.1715 C.2     1  UNL1        0.0179
     20 C         -33.9342   -5.4578   28.5987 C.2     1  UNL1        0.0014
     21 C         -34.7330   -5.0791   27.3448 C.2     1  UNL1        0.0000
     22 C         -34.3442   -3.8493   26.7734 C.2     1  UNL1        0.0000
     23 C         -33.2956   -3.1446   27.2707 C.2     1  UNL1        0.0000
@<TRIPOS>BOND
     1     6     7    1
     2     3     8    1
     3     7    14    1
     4    14    15    1
     5    15    16    2
     6    15    17   am
     7    17    18    1
     8    18    19    2
     9    19    20    1
    10    20    21    2
    11    21    22    1
    12    22    23    2
    13     1     2   ar
    14     2     3   ar
    15     3     4   ar
    16     4     5   ar
    17     5     6   ar
    18     6     1   ar
    19     8     9   ar
    20     9    10   ar
    21    10    11   ar
    22    11    13   ar
    23    13    12   ar
    24    12     8   ar
