@<TRIPOS>MOLECULE
No_590-gen_results/8p0m/2024-11-26-14-13-15/
 25 28 0 0 0
SMALL
GASTEIGER

@<TRIPOS>ATOM
      1 C         -28.0162   -0.8135   28.8779 C.ar    1  UNL1        0.0114
      2 C         -27.0636   -0.1189   28.6079 C.ar    1  UNL1        0.0010
      3 C         -25.7647   -0.3897   29.0360 C.ar    1  UNL1        0.0037
      4 C         -25.5296   -1.5302   29.9014 C.ar    1  UNL1        0.0010
      5 C         -26.6888   -2.2893   30.1810 C.ar    1  UNL1        0.0114
      6 C         -27.8727   -1.9508   29.7373 C.ar    1  UNL1        0.0577
      7 CL        -29.2926   -2.7683   30.1523 Cl      1  UNL1       -0.0822
      8 C         -24.5222    0.4049   28.7207 C.ar    1  UNL1        0.0461
      9 C         -24.5188    1.2797   27.7144 C.ar    1  UNL1        0.2265
     10 C         -23.3093    1.9750   27.3888 C.ar    1  UNL1        0.1820
     11 C         -22.1138    1.7462   28.0009 C.ar    1  UNL1        0.0408
     12 C         -23.2683    0.1365   29.3691 C.ar    1  UNL1        0.0039
     13 C         -22.0832    0.8183   29.0129 C.ar    1  UNL1        0.0034
     14 O         -23.3806    2.9007   26.3595 O.3     1  UNL1       -0.4592
     15 C         -24.2703    2.4515   25.3903 C.3     1  UNL1        0.3260
     16 N         -25.4534    1.4455   26.8509 N.2     1  UNL1       -0.0340
     17 C         -25.3841    2.0483   25.6735 C.2     1  UNL1        0.3822
     18 N         -26.4331    2.0216   24.8540 N.pl3   1  UNL1       -0.0269
     19 C         -27.5669    2.6758   25.1028 C.3     1  UNL1        0.2775
     20 C         -28.7878    2.1599   25.1477 C.ar    1  UNL1        0.0285
     21 C         -29.0190    0.8388   24.8518 C.ar    1  UNL1       -0.0002
     22 C         -30.2553    0.1724   24.9150 C.ar    1  UNL1       -0.0002
     23 C         -31.3427    0.9379   25.2898 C.ar    1  UNL1       -0.0000
     24 C         -31.2520    2.2901   25.5546 C.ar    1  UNL1       -0.0002
     25 C         -29.9914    2.9533   25.5174 C.ar    1  UNL1       -0.0002
@<TRIPOS>BOND
     1     6     7    1
     2     3     8    1
     3    10    14    1
     4    14    15    1
     5     9    16    1
     6    15    17    1
     7    16    17    2
     8    17    18    1
     9    18    19    1
    10    19    20    1
    11     1     2   ar
    12     2     3   ar
    13     3     4   ar
    14     4     5   ar
    15     5     6   ar
    16     6     1   ar
    17    20    21   ar
    18    21    22   ar
    19    22    23   ar
    20    23    24   ar
    21    24    25   ar
    22    25    20   ar
    23     8     9   ar
    24     9    10   ar
    25    10    11   ar
    26    11    13   ar
    27    13    12   ar
    28    12     8   ar
