@<TRIPOS>MOLECULE
No_591-gen_results/8p0m/2024-11-26-14-13-15/
 28 31 0 0 0
SMALL
GASTEIGER

@<TRIPOS>ATOM
      1 O         -28.1229   -1.3353   28.4874 O.2     1  UNL1       -0.2745
      2 C         -28.5208   -0.4363   29.0779 C.2     1  UNL1        0.2299
      3 C         -28.5894    0.5916   28.9464 C.3     1  UNL1        0.0903
      4 N         -29.3752   -0.9434   30.2659 N.am    1  UNL1       -0.2545
      5 C         -27.5822    1.2649   28.1478 C.3     1  UNL1        0.0359
      6 C         -26.2743    1.0474   28.5730 C.ar    1  UNL1       -0.0217
      7 C         -25.1577    1.0268   27.7540 C.ar    1  UNL1       -0.0043
      8 C         -23.9246    0.5377   28.2138 C.ar    1  UNL1       -0.0003
      9 C         -23.8212   -0.0618   29.5042 C.ar    1  UNL1       -0.0000
     10 C         -24.9070   -0.1145   30.2741 C.ar    1  UNL1       -0.0003
     11 C         -26.1115    0.3393   29.8455 C.ar    1  UNL1       -0.0043
     12 C         -29.6099   -2.1863   30.6650 C.ar    1  UNL1        0.0552
     13 C         -30.3860   -2.8481   30.5527 C.ar    1  UNL1        0.0552
     14 C         -30.4509   -4.3343   30.8912 C.ar    1  UNL1        0.1402
     15 C         -29.2393   -4.9141   31.3323 C.ar    1  UNL1        0.0295
     16 C         -28.1070   -4.1520   31.2063 C.ar    1  UNL1        0.0036
     17 C         -28.1472   -2.7785   30.8836 C.ar    1  UNL1        0.0148
     18 C         -30.4258    0.0439   30.6125 C.3     1  UNL1        0.1245
     19 C         -30.7712   -0.1926   31.8777 C.ar    1  UNL1       -0.0034
     20 C         -31.1683    0.4649   32.7055 C.ar    1  UNL1       -0.0028
     21 C         -31.6204    0.1061   34.0749 C.ar    1  UNL1       -0.0006
     22 C         -31.4855   -1.2128   34.4115 C.ar    1  UNL1       -0.0045
     23 C         -30.9575   -2.0813   33.5228 C.ar    1  UNL1       -0.0232
     24 C         -30.5714   -1.6144   32.3088 C.ar    1  UNL1        0.0079
     25 C         -30.3418   -2.5965   31.5663 C.3     1  UNL1        0.2084
     26 F         -30.9501   -3.5258   32.4956 F       1  UNL1       -0.2274
     27 F         -31.2709   -5.0653   30.5112 F       1  UNL1       -0.2044
     28 C         -29.8997   -2.4976   34.5249 C.3     1  UNL1        0.0308
@<TRIPOS>BOND
     1     1     2    2
     2     2     3    1
     3     2     4   am
     4     3     5    1
     5     5     6    1
     6     4    12    1
     7     4    18    1
     8    13    25    1
     9    24    25    1
    10    25    26    1
    11    14    27    1
    12    23    28    1
    13    18    19    1
    14    12    13   ar
    15    13    14   ar
    16    14    15   ar
    17    15    16   ar
    18    16    17   ar
    19    17    12   ar
    20     6     7   ar
    21     7     8   ar
    22     8     9   ar
    23     9    10   ar
    24    10    11   ar
    25    11     6   ar
    26    19    20   ar
    27    20    21   ar
    28    21    22   ar
    29    22    23   ar
    30    23    24   ar
    31    24    19   ar
