@<TRIPOS>MOLECULE
No_592-gen_results/8p0m/2024-11-26-14-13-15/
 17 17 0 0 0
SMALL
GASTEIGER

@<TRIPOS>ATOM
      1 C         -28.0162   -0.8135   28.8779 C.2     1  UNL1       -0.0085
      2 C         -27.0636   -0.1190   28.6079 C.2     1  UNL1       -0.0442
      3 C         -26.8756    1.1325   28.9134 C.3     1  UNL1        0.0226
      4 C         -25.6883    1.9515   28.5672 C.3     1  UNL1        0.0171
      5 C         -24.6394    1.2834   27.8753 C.3     1  UNL1        0.1220
      6 C         -24.8068   -0.0513   27.6040 C.3     1  UNL1        0.0171
      7 C         -25.9019   -0.7670   27.9511 C.3     1  UNL1        0.0226
      8 C         -28.6455   -0.5282   30.2428 C.2     1  UNL1       -0.0006
      9 C         -29.5544   -1.0303   30.6491 C.2     1  UNL1       -0.0000
     10 C         -30.3077   -1.8299   29.9524 C.2     1  UNL1       -0.0000
     11 C         -31.4849   -1.7536   29.8611 C.2     1  UNL1       -0.0003
     12 C         -23.4477    1.9814   27.4639 C.2     1  UNL1        0.4532
     13 N         -22.2614    2.2537   27.7898 N.pl3   1  UNL1        0.1994
     14 N         -23.6516    2.5811   26.1242 N.pl3   1  UNL1        0.1994
     15 C         -32.1721   -2.4938   28.8787 C.2     1  UNL1       -0.0046
     16 C         -32.0552   -3.8924   28.9084 C.2     1  UNL1       -0.0258
     17 C         -30.7859   -4.3452   29.5227 C.3     1  UNL1        0.0307
@<TRIPOS>BOND
     1     1     2    2
     2     2     3    1
     3     3     4    1
     4     4     5    1
     5     5     6    1
     6     2     7    1
     7     6     7    1
     8     1     8    1
     9     8     9    2
    10     9    10    1
    11    10    11    2
    12     5    12    1
    13    12    13    2
    14    12    14    1
    15    11    15    1
    16    15    16    2
    17    16    17    1
