@<TRIPOS>MOLECULE
No_593-gen_results/8p0m/2024-11-26-14-13-15/
 23 25 0 0 0
SMALL
GASTEIGER

@<TRIPOS>ATOM
      1 O         -28.1229   -1.3353   28.4874 O.2     1  UNL1       -0.2699
      2 C         -27.4806   -0.4044   28.7094 C.2     1  UNL1        0.2494
      3 C         -26.3804   -0.0867   27.9394 C.ar    1  UNL1        0.0497
      4 N         -27.6664    0.4468   29.8988 N.am    1  UNL1       -0.2667
      5 C         -26.4086    0.8567   26.8802 C.ar    1  UNL1        0.0042
      6 C         -25.0824   -0.6970   28.1699 C.ar    1  UNL1       -0.0175
      7 C         -25.2842    1.0488   26.0470 C.ar    1  UNL1        0.0001
      8 C         -23.9159   -0.3440   27.4444 C.ar    1  UNL1       -0.0041
      9 C         -24.0618    0.5290   26.3707 C.ar    1  UNL1       -0.0003
     10 C         -26.9083    1.5760   30.3281 C.3     1  UNL1        0.0946
     11 C         -27.1947    2.0111   31.4415 C.3     1  UNL1        0.0216
     12 C         -28.8878    0.1871   30.7630 C.3     1  UNL1        0.1402
     13 C         -29.6929   -0.6939   30.4601 C.1     1  UNL1       -0.0670
     14 C         -28.9658    1.0019   31.8988 C.3     1  UNL1        0.0334
     15 C         -28.1833    1.8225   32.1529 C.3     1  UNL1        0.0045
     16 C         -24.8938   -1.6063   29.3407 C.3     1  UNL1        0.0312
     17 C         -30.4820   -1.3810   30.4725 C.1     1  UNL1       -0.0628
     18 C         -30.8023   -2.6294   30.9483 C.ar    1  UNL1        0.0417
     19 C         -31.9319   -3.3917   30.7510 C.ar    1  UNL1        0.0082
     20 C         -32.0284   -4.7080   31.1457 C.ar    1  UNL1        0.0006
     21 C         -30.9584   -5.3417   31.8824 C.ar    1  UNL1        0.0000
     22 C         -29.7795   -4.6424   32.0954 C.ar    1  UNL1        0.0006
     23 C         -29.6492   -3.3507   31.6359 C.ar    1  UNL1        0.0082
@<TRIPOS>BOND
     1     1     2    2
     2     2     3    1
     3     2     4   am
     4     4    10    1
     5     4    12    1
     6    12    13    1
     7    12    14    1
     8    11    15    1
     9     6    16    1
    10    13    17    3
    11    17    18    1
    12    10    11    1
    13    15    14    1
    14    18    19   ar
    15    19    20   ar
    16    20    21   ar
    17    21    22   ar
    18    22    23   ar
    19    23    18   ar
    20     3     5   ar
    21     5     7   ar
    22     7     9   ar
    23     9     8   ar
    24     8     6   ar
    25     6     3   ar
