@<TRIPOS>MOLECULE
No_594-gen_results/8p0m/2024-11-26-14-13-15/
 21 24 0 0 0
SMALL
GASTEIGER

@<TRIPOS>ATOM
      1 C         -28.0162   -0.8135   28.8779 C.ar    1  UNL1        0.0034
      2 C         -27.0636   -0.1189   28.6079 C.ar    1  UNL1        0.0390
      3 C         -27.0010    0.6913   27.4910 C.ar    1  UNL1        0.0033
      4 C         -25.8548    1.4825   27.0830 C.ar    1  UNL1        0.0002
      5 C         -25.8227    2.3296   25.9941 C.ar    1  UNL1        0.0000
      6 C         -29.2749   -0.4841   28.3563 C.ar    1  UNL1        0.0067
      7 C         -29.3536    0.3686   27.3239 C.ar    1  UNL1        0.0798
      8 C         -28.2055    1.0839   26.8491 C.ar    1  UNL1        0.0067
      9 C         -24.5577    1.1970   27.7447 C.ar    1  UNL1        0.0031
     10 C         -23.4078    1.8847   27.2660 C.ar    1  UNL1        0.0001
     11 C         -22.2335    1.6715   27.9813 C.ar    1  UNL1        0.0000
     12 C         -22.1624    0.7492   29.0204 C.ar    1  UNL1        0.0001
     13 C         -23.2729   -0.0506   29.3976 C.ar    1  UNL1        0.0032
     14 C         -24.4773    0.2245   28.7346 C.ar    1  UNL1        0.0389
     15 C         -25.6599   -0.4383   29.1924 C.2     1  UNL1        0.1955
     16 C         -30.6475    0.6771   26.6660 C.2     1  UNL1        0.3878
     17 O         -31.6135    0.8688   27.1993 O.co2   1  UNL1       -0.2406
     18 O         -30.6198    0.7021   25.3341 O.co2   1  UNL1       -0.2406
     19 O         -25.5491   -1.5316   29.8479 O.2     1  UNL1       -0.2866
     20 C         -23.4180    2.8522   26.2634 C.ar    1  UNL1        0.0000
     21 C         -24.6786    3.0906   25.6322 C.ar    1  UNL1        0.0000
@<TRIPOS>BOND
     1     3     4    1
     2     2    15    1
     3    14    15    1
     4     7    16    1
     5    16    17   ar
     6    16    18   ar
     7    15    19    2
     8    10    11   ar
     9    11    12   ar
    10    12    13   ar
    11    13    14   ar
    12    14     9   ar
    13     1     2   ar
    14     2     3   ar
    15     3     8   ar
    16     8     7   ar
    17     7     6   ar
    18     6     1   ar
    19     4     5   ar
    20     5    21   ar
    21    21    20   ar
    22    20    10   ar
    23    10     9   ar
    24     9     4   ar
