@<TRIPOS>MOLECULE
No_595-gen_results/8p0m/2024-11-26-14-13-15/
 10 10 0 0 0
SMALL
GASTEIGER

@<TRIPOS>ATOM
      1 C         -28.0162   -0.8135   28.8779 C.ar    1  UNL1        0.0114
      2 C         -27.0636   -0.1189   28.6079 C.ar    1  UNL1        0.0577
      3 C         -26.9287    1.1713   29.0083 C.ar    1  UNL1        0.0114
      4 C         -27.9560    1.7411   29.7840 C.ar    1  UNL1        0.0009
      5 C         -29.0569   -0.3271   29.7466 C.ar    1  UNL1        0.0009
      6 C         -28.9828    0.9722   30.1516 C.ar    1  UNL1       -0.0003
      7 CL        -25.7249   -0.7275   27.6731 Cl      1  UNL1       -0.0822
      8 C         -30.0821    1.5088   31.0097 C.2     1  UNL1       -0.0046
      9 C         -30.9863    2.1539   30.7328 C.2     1  UNL1       -0.0258
     10 C         -31.9937    2.6750   31.6502 C.3     1  UNL1        0.0307
@<TRIPOS>BOND
     1     2     7    1
     2     6     8    1
     3     8     9    2
     4     9    10    1
     5     1     2   ar
     6     2     3   ar
     7     3     4   ar
     8     4     6   ar
     9     6     5   ar
    10     5     1   ar
