@<TRIPOS>MOLECULE
No_597-gen_results/8p0m/2024-11-26-14-13-15/
 35 40 0 0 0
SMALL
GASTEIGER

@<TRIPOS>ATOM
      1 C         -28.0162   -0.8135   28.8779 C.3     1  UNL1        0.0651
      2 C         -28.4690   -0.7850   29.8287 C.3     1  UNL1        0.1845
      3 C         -26.5042   -0.7777   28.8766 C.3     1  UNL1        0.1177
      4 C         -25.8305   -1.6807   29.6849 C.3     1  UNL1        0.0299
      5 C         -28.1490   -1.8854   30.9031 C.3     1  UNL1        0.1823
      6 C         -26.6460   -1.9561   31.0330 C.3     1  UNL1        0.0380
      7 O         -28.6274   -1.7308   32.1858 O.3     1  UNL1       -0.2204
      8 O         -30.0168   -0.9269   29.8771 O.3     1  UNL1       -0.2203
      9 C         -24.6534   -2.3030   29.3807 C.3     1  UNL1        0.0025
     10 C         -23.4721   -1.5067   29.2502 C.3     1  UNL1        0.0002
     11 C         -23.3950   -0.1928   29.8406 C.3     1  UNL1        0.0024
     12 C         -23.6717    0.9190   29.0091 C.3     1  UNL1        0.0272
     13 C         -22.6290    1.2862   28.1271 C.3     1  UNL1        0.0024
     14 C         -22.9550    2.0263   26.9068 C.3     1  UNL1        0.0002
     15 C         -24.2101    2.5883   26.8165 C.3     1  UNL1        0.0033
     16 C         -25.0036    1.0250   28.3631 C.3     1  UNL1        0.1158
     17 C         -25.2139    2.3139   27.6678 C.3     1  UNL1        0.0366
     18 O         -25.9353    0.2460   28.9063 O.3     1  UNL1       -0.3586
     19 C         -26.6106    2.3733   27.0765 C.3     1  UNL1        0.0470
     20 C         -25.1210    3.5113   28.8041 C.3     1  UNL1        0.0290
     21 C         -26.0055    3.7005   29.7613 C.ar    1  UNL1       -0.0257
     22 C         -25.7071    4.2226   30.9306 C.ar    1  UNL1       -0.0046
     23 C         -26.6818    4.5429   31.8631 C.ar    1  UNL1       -0.0003
     24 C         -27.9805    4.1666   31.6581 C.ar    1  UNL1       -0.0003
     25 C         -28.3093    3.6093   30.3838 C.ar    1  UNL1       -0.0042
     26 C         -27.3744    3.3965   29.4926 C.ar    1  UNL1       -0.0218
     27 C         -27.7068    2.7467   28.1678 C.3     1  UNL1        0.0514
     28 C         -26.7094    3.3971   26.0257 C.2     1  UNL1       -0.0220
     29 C         -27.0064    1.0699   26.4698 C.2     1  UNL1       -0.0220
     30 C         -27.5187    1.2555   25.1669 C.2     1  UNL1       -0.0046
     31 C         -29.0612    2.6802   27.7421 C.2     1  UNL1       -0.0214
     32 C         -29.7459    3.8406   27.5216 C.2     1  UNL1       -0.0042
     33 C         -31.1217    3.7628   27.2201 C.2     1  UNL1       -0.0003
     34 C         -27.4358    2.6956   24.9674 C.2     1  UNL1       -0.0046
     35 C         -31.6553    2.5023   26.9906 C.2     1  UNL1       -0.0000
@<TRIPOS>BOND
     1     1     2    1
     2     1     3    1
     3     3     4    1
     4     2     5    1
     5     4     6    1
     6     5     6    1
     7     5     7    1
     8     2     8    1
     9     4     9    1
    10     9    10    1
    11    10    11    1
    12    11    12    1
    13    12    13    1
    14    14    15    1
    15    12    16    1
    16    15    17    1
    17    16    17    1
    18     3    18    1
    19    16    18    1
    20    17    19    1
    21    17    20    1
    22    20    21    1
    23    19    27    1
    24    26    27    1
    25    19    28    1
    26    19    29    1
    27    29    30    2
    28    27    31    1
    29    31    32    2
    30    32    33    1
    31    28    34    2
    32    30    34    1
    33    33    35    2
    34    14    13    1
    35    21    22   ar
    36    22    23   ar
    37    23    24   ar
    38    24    25   ar
    39    25    26   ar
    40    26    21   ar
