@<TRIPOS>MOLECULE
No_599-gen_results/8p0m/2024-11-26-14-13-15/
 16 17 0 0 0
SMALL
GASTEIGER

@<TRIPOS>ATOM
      1 C         -28.0162   -0.8135   28.8779 C.ar    1  UNL1        0.0046
      2 C         -28.4690   -0.7850   29.8287 C.ar    1  UNL1        0.0554
      3 C         -26.5042   -0.7777   28.8766 C.ar    1  UNL1        0.0001
      4 C         -25.8103   -0.8531   30.1028 C.ar    1  UNL1        0.0000
      5 C         -27.9906   -0.8916   31.2257 C.ar    1  UNL1        0.0046
      6 C         -26.6042   -0.8676   31.2652 C.ar    1  UNL1        0.0001
      7 C         -30.0739   -0.8360   29.8615 C.2     1  UNL1        0.2690
      8 O         -30.6891   -1.6554   30.2229 O.2     1  UNL1       -0.2680
      9 N         -30.6022    0.4333   29.5985 N.am    1  UNL1       -0.1754
     10 C         -32.0098    0.5508   29.4757 C.ar    1  UNL1        0.0745
     11 C         -32.3458    1.5388   28.7509 C.ar    1  UNL1        0.0167
     12 C         -33.7294    1.8420   28.4647 C.ar    1  UNL1        0.0022
     13 C         -34.6656    0.9392   29.0738 C.ar    1  UNL1        0.0115
     14 C         -34.2155   -0.1211   29.8113 C.ar    1  UNL1        0.0590
     15 C         -32.8741   -0.3349   30.0387 C.ar    1  UNL1        0.0280
     16 CL        -35.3642   -1.1653   30.5323 Cl      1  UNL1       -0.0822
@<TRIPOS>BOND
     1     2     7    1
     2     7     8    2
     3     7     9   am
     4     9    10    1
     5    14    16    1
     6     1     2   ar
     7     2     5   ar
     8     5     6   ar
     9     6     4   ar
    10     4     3   ar
    11     3     1   ar
    12    10    11   ar
    13    11    12   ar
    14    12    13   ar
    15    13    14   ar
    16    14    15   ar
    17    15    10   ar
