@<TRIPOS>MOLECULE
No_6-gen_results/8p0m/2024-11-26-14-13-15/
 11 12 0 0 0
SMALL
GASTEIGER

@<TRIPOS>ATOM
      1 N         -28.0544   -1.0498   28.7246 N.2     1  UNL1       -0.2407
      2 C         -27.7460   -0.0733   29.0098 C.3     1  UNL1        0.2281
      3 C         -27.1741    0.7325   28.8254 C.ar    1  UNL1        0.0228
      4 C         -26.9592    2.0624   29.5303 C.ar    1  UNL1       -0.0005
      5 C         -26.0986    3.1477   29.2060 C.ar    1  UNL1       -0.0002
      6 C         -25.2605    2.9749   28.0359 C.ar    1  UNL1       -0.0000
      7 C         -25.3477    1.8080   27.3020 C.ar    1  UNL1       -0.0002
      8 C         -26.1392    0.8040   27.6343 C.ar    1  UNL1       -0.0005
      9 N         -28.2782   -0.0458   30.3989 N.2     1  UNL1       -0.2407
     10 C         -29.0176   -1.2288   30.7089 C.2     1  UNL1        0.1159
     11 C         -28.7033   -1.9175   29.6466 C.2     1  UNL1        0.1159
@<TRIPOS>BOND
     1     1     2    1
     2     2     9    1
     3     9    10    2
     4     1    11    2
     5    10    11    1
     6     2     3    1
     7     3     4   ar
     8     4     5   ar
     9     5     6   ar
    10     6     7   ar
    11     7     8   ar
    12     8     3   ar
