@<TRIPOS>MOLECULE
No_60-gen_results/8p0m/2024-11-26-14-13-15/
 31 34 0 0 0
SMALL
GASTEIGER

@<TRIPOS>ATOM
      1 C         -28.0162   -0.8135   28.8779 C.3     1  UNL1        0.0303
      2 C         -27.0636   -0.1189   28.6079 C.ar    1  UNL1       -0.0193
      3 C         -26.9716    0.7139   27.5060 C.ar    1  UNL1        0.0714
      4 C         -25.8205    1.4909   27.1160 C.ar    1  UNL1        0.0100
      5 C         -24.6562    1.4242   27.9180 C.ar    1  UNL1        0.0713
      6 C         -24.6847    0.5901   29.0659 C.ar    1  UNL1       -0.0004
      7 C         -25.8099   -0.1265   29.3338 C.ar    1  UNL1       -0.0216
      8 C         -28.6943   -0.4734   30.1587 C.3     1  UNL1        0.0223
      9 C         -29.7865   -1.3251   30.6371 C.3     1  UNL1        0.0044
     10 C         -23.4524    2.1889   27.6083 C.3     1  UNL1        0.4186
     11 F         -22.7872    2.4955   28.6307 F       1  UNL1       -0.1659
     12 F         -23.7148    3.2595   26.9263 F       1  UNL1       -0.1659
     13 F         -22.5936    1.4559   26.8386 F       1  UNL1       -0.1659
     14 C         -27.6729   -0.4225   31.2581 C.2     1  UNL1       -0.0307
     15 C         -29.3336    0.8773   29.8995 C.3     1  UNL1        0.0044
     16 C         -30.4672    1.0725   29.7204 C.3     1  UNL1        0.0003
     17 C         -31.0902   -1.2151   30.1815 C.3     1  UNL1        0.0003
     18 C         -31.4710    0.0946   29.8965 C.3     1  UNL1        0.0000
     19 C         -26.6068   -0.6129   31.1049 C.2     1  UNL1       -0.0260
     20 C         -25.6548   -1.0194   30.4330 C.3     1  UNL1        0.0516
     21 C         -28.0927    0.8240   26.5158 C.2     1  UNL1        0.3412
     22 O         -28.2272    0.8064   25.4423 O.2     1  UNL1       -0.2449
     23 O         -29.3530    0.8011   27.2254 O.3     1  UNL1       -0.4403
     24 C         -30.4298    1.1174   26.3571 C.3     1  UNL1        0.2385
     25 C         -30.6241    0.1686   25.4711 C.ar    1  UNL1        0.0602
     26 C         -31.9342   -0.1560   25.2108 C.ar    1  UNL1        0.0025
     27 C         -32.1584   -1.2522   24.2408 C.ar    1  UNL1       -0.0000
     28 C         -30.9966   -1.9557   23.7797 C.ar    1  UNL1        0.0033
     29 C         -29.7484   -1.5343   24.0799 C.ar    1  UNL1        0.0418
     30 C         -29.5692   -0.5055   24.9435 C.ar    1  UNL1        0.1952
     31 O         -28.6758   -0.9893   25.2375 O.3     1  UNL1       -0.2868
@<TRIPOS>BOND
     1     1     8    1
     2     8     9    1
     3     5    10    1
     4    10    11    1
     5    10    12    1
     6    10    13    1
     7     8    14    1
     8     8    15    1
     9    16    18    1
    10    17    18    1
    11    14    19    2
    12     7    20    1
    13    19    20    1
    14     3    21    1
    15    21    22    2
    16    21    23    1
    17    23    24    1
    18    24    25    1
    19    30    31    1
    20     1     2    1
    21     9    17    1
    22    16    15    1
    23     2     3   ar
    24     3     4   ar
    25     4     5   ar
    26     5     6   ar
    27     6     7   ar
    28     7     2   ar
    29    25    26   ar
    30    26    27   ar
    31    27    28   ar
    32    28    29   ar
    33    29    30   ar
    34    30    25   ar
