@<TRIPOS>MOLECULE
No_600-gen_results/8p0m/2024-11-26-14-13-15/
 23 25 0 0 0
SMALL
GASTEIGER

@<TRIPOS>ATOM
      1 C         -28.0162   -0.8135   28.8779 C.ar    1  UNL1        0.0276
      2 C         -28.4690   -0.7850   29.8287 C.ar    1  UNL1        0.0589
      3 C         -26.5455   -0.8762   28.8500 C.ar    1  UNL1        0.0676
      4 C         -25.8041   -1.0324   30.0571 C.ar    1  UNL1       -0.0025
      5 C         -27.9437   -0.9869   31.2075 C.ar    1  UNL1        0.0112
      6 C         -26.5825   -1.0386   31.2231 C.ar    1  UNL1       -0.0018
      7 C         -24.3810   -1.1082   30.0855 C.3     1  UNL1        0.0539
      8 C         -23.7054    0.0955   29.8440 C.ar    1  UNL1       -0.0177
      9 C         -22.4285    0.1160   29.2171 C.ar    1  UNL1       -0.0039
     10 C         -21.8149    1.2942   28.8765 C.ar    1  UNL1       -0.0003
     11 C         -23.8165    1.2584   30.7658 C.ar    1  UNL1       -0.0039
     12 C         -23.3017    2.5123   30.4018 C.ar    1  UNL1       -0.0003
     13 C         -22.2367    2.5377   29.4459 C.ar    1  UNL1       -0.0000
     14 CL        -30.3163   -0.6713   29.8542 Cl      1  UNL1       -0.0822
     15 N         -25.7785   -0.7893   27.6970 N.pl3   1  UNL1       -0.2128
     16 C         -26.0340    0.1015   26.6793 C.2     1  UNL1        0.0705
     17 C         -25.2134    0.0686   25.5386 C.2     1  UNL1        0.0178
     18 C         -27.0136    1.1062   26.7599 C.ar    1  UNL1        0.0153
     19 C         -27.2310    1.9493   25.7185 C.ar    1  UNL1        0.0013
     20 C         -28.2207    2.8853   25.8565 C.ar    1  UNL1        0.0000
     21 C         -29.0217    2.9192   26.9499 C.ar    1  UNL1        0.0000
     22 C         -28.7569    2.0982   28.0203 C.ar    1  UNL1        0.0000
     23 C         -27.7670    1.1689   27.9044 C.ar    1  UNL1        0.0013
@<TRIPOS>BOND
     1     4     7    1
     2     7     8    1
     3     2    14    1
     4     3    15    1
     5    15    16    1
     6    16    17    2
     7    16    18    1
     8    18    19   ar
     9    19    20   ar
    10    20    21   ar
    11    21    22   ar
    12    22    23   ar
    13    23    18   ar
    14     8     9   ar
    15     9    10   ar
    16    10    13   ar
    17    13    12   ar
    18    12    11   ar
    19    11     8   ar
    20     1     2   ar
    21     2     5   ar
    22     5     6   ar
    23     6     4   ar
    24     4     3   ar
    25     3     1   ar
