@<TRIPOS>MOLECULE
No_601-gen_results/8p0m/2024-11-26-14-13-15/
 13 14 0 0 0
SMALL
GASTEIGER

@<TRIPOS>ATOM
      1 O         -28.1229   -1.3353   28.4874 O.2     1  UNL1       -0.2730
      2 C         -27.0637   -0.8242   28.8687 C.2     1  UNL1        0.2450
      3 C         -26.4017   -0.0623   28.6224 C.3     1  UNL1        0.1004
      4 N         -26.2652   -1.8674   29.7609 N.am    1  UNL1       -0.2052
      5 C         -26.8442    1.1343   27.8797 C.ar    1  UNL1       -0.0138
      6 C         -25.0005   -1.6707   30.1794 C.3     1  UNL1        0.1152
      7 C         -24.9787    0.3185   29.1504 C.3     1  UNL1        0.0154
      8 C         -24.3650   -0.5407   29.9325 C.3     1  UNL1        0.0243
      9 C         -27.1583    2.0852   28.0496 C.ar    1  UNL1       -0.0038
     10 C         -26.5986    0.7175   26.3638 C.ar    1  UNL1       -0.0038
     11 C         -27.0350    1.2749   25.5924 C.ar    1  UNL1       -0.0003
     12 C         -27.6513    3.0909   27.1019 C.ar    1  UNL1       -0.0003
     13 C         -27.5561    2.6437   25.7332 C.ar    1  UNL1       -0.0000
@<TRIPOS>BOND
     1     1     2    2
     2     2     3    1
     3     2     4   am
     4     3     5    1
     5     3     7    1
     6     6     8    1
     7     7     8    1
     8     6     4    1
     9     5     9   ar
    10     9    12   ar
    11    12    13   ar
    12    13    11   ar
    13    11    10   ar
    14    10     5   ar
