@<TRIPOS>MOLECULE
No_604-gen_results/8p0m/2024-11-26-14-13-15/
 15 16 0 0 0
SMALL
GASTEIGER

@<TRIPOS>ATOM
      1 C         -28.0162   -0.8135   28.8779 C.ar    1  UNL1       -0.0042
      2 C         -28.4690   -0.7850   29.8287 C.ar    1  UNL1       -0.0003
      3 C         -26.5042   -0.7777   28.8766 C.ar    1  UNL1       -0.0201
      4 C         -25.6540   -0.6597   27.7191 C.3     1  UNL1        0.0527
      5 C         -27.9180   -0.9374   31.1824 C.ar    1  UNL1       -0.0003
      6 C         -26.5424   -0.9399   31.2606 C.ar    1  UNL1       -0.0029
      7 C         -25.7832   -0.8935   30.1201 C.ar    1  UNL1       -0.0044
      8 C         -25.9259    0.2819   26.7445 C.2     1  UNL1       -0.0126
      9 C         -25.6258    1.4719   26.8191 C.2     1  UNL1        0.0454
     10 C         -24.8156    1.9657   27.9646 C.1     1  UNL1       -0.0595
     11 C         -24.1477    2.6036   28.3481 C.1     1  UNL1       -0.0594
     12 C         -23.4990    2.5450   29.6960 C.2     1  UNL1        0.0468
     13 C         -23.6748    1.2857   30.4019 C.2     1  UNL1        0.0057
     14 C         -24.4163    0.3460   29.9760 C.3     1  UNL1        0.1363
     15 N         -23.6386   -0.0813   28.7542 N.3     1  UNL1       -0.1233
@<TRIPOS>BOND
     1     3     4    1
     2     4     8    1
     3     8     9    2
     4     9    10    1
     5    10    11    3
     6    11    12    1
     7    12    13    2
     8     7    14    1
     9    13    14    1
    10    14    15    1
    11     1     2   ar
    12     2     5   ar
    13     5     6   ar
    14     6     7   ar
    15     7     3   ar
    16     3     1   ar
