@<TRIPOS>MOLECULE
No_605-gen_results/8p0m/2024-11-26-14-13-15/
 13 13 0 0 0
SMALL
GASTEIGER

@<TRIPOS>ATOM
      1 C         -28.0162   -0.8135   28.8779 C.3     1  UNL1        0.4186
      2 C         -27.0636   -0.1189   28.6079 C.ar    1  UNL1        0.0714
      3 C         -27.0010    0.6913   27.4910 C.ar    1  UNL1        0.0040
      4 C         -25.8548    1.4825   27.0830 C.ar    1  UNL1        0.0046
      5 C         -24.6901    1.4526   27.8807 C.ar    1  UNL1        0.0566
      6 C         -24.7379    0.6010   29.0416 C.ar    1  UNL1        0.0046
      7 C         -25.8234   -0.1688   29.3887 C.ar    1  UNL1        0.0040
      8 F         -28.9516   -0.6391   28.1654 F       1  UNL1       -0.1659
      9 F         -27.7450   -2.1685   29.0408 F       1  UNL1       -0.1659
     10 C         -23.5190    2.2147   27.5982 C.2     1  UNL1        0.2842
     11 N         -22.3413    1.8553   28.1277 N.am    1  UNL1       -0.0837
     12 O         -23.5360    3.0504   26.6473 O.2     1  UNL1       -0.2667
     13 F         -28.3312   -0.2619   30.1395 F       1  UNL1       -0.1659
@<TRIPOS>BOND
     1     1     2    1
     2     1     8    1
     3     1     9    1
     4     5    10    1
     5    10    11   am
     6    10    12    2
     7     1    13    1
     8     2     3   ar
     9     3     4   ar
    10     4     5   ar
    11     5     6   ar
    12     6     7   ar
    13     7     2   ar
