@<TRIPOS>MOLECULE
No_606-gen_results/8p0m/2024-11-26-14-13-15/
 17 18 0 0 0
SMALL
GASTEIGER

@<TRIPOS>ATOM
      1 C         -28.0162   -0.8135   28.8779 C.ar    1  UNL1        0.0369
      2 C         -27.0636   -0.1189   28.6079 C.ar    1  UNL1        0.0028
      3 C         -25.7647   -0.3897   29.0360 C.ar    1  UNL1       -0.0041
      4 C         -25.5296   -1.5302   29.9014 C.ar    1  UNL1       -0.0192
      5 C         -24.3236   -1.9076   30.4324 C.3     1  UNL1        0.0265
      6 C         -27.9274   -1.9227   29.7902 C.ar    1  UNL1        0.1387
      7 C         -26.6914   -2.2806   30.2948 C.ar    1  UNL1        0.0327
      8 C         -23.2806   -2.0391   29.4813 C.3     1  UNL1        0.0050
      9 O         -29.0049   -2.6569   30.1988 O.3     1  UNL1       -0.4705
     10 C         -30.0974   -2.0475   30.7050 C.3     1  UNL1        0.2352
     11 C         -30.1392   -1.1412   31.3168 C.ar    1  UNL1        0.0601
     12 C         -30.6007   -0.4024   31.9259 C.ar    1  UNL1        0.0025
     13 C         -30.0729    0.8132   32.6206 C.ar    1  UNL1       -0.0000
     14 C         -28.7198    1.0745   32.5347 C.ar    1  UNL1        0.0033
     15 C         -27.9434    0.1683   31.8713 C.ar    1  UNL1        0.0418
     16 C         -28.4840   -0.9539   31.3703 C.ar    1  UNL1        0.1952
     17 O         -28.0739   -1.9080   32.4975 O.3     1  UNL1       -0.2868
@<TRIPOS>BOND
     1     4     5    1
     2     5     8    1
     3     6     9    1
     4     9    10    1
     5    16    17    1
     6    10    11    1
     7    11    12   ar
     8    12    13   ar
     9    13    14   ar
    10    14    15   ar
    11    15    16   ar
    12    16    11   ar
    13     1     2   ar
    14     2     3   ar
    15     3     4   ar
    16     4     7   ar
    17     7     6   ar
    18     6     1   ar
