@<TRIPOS>MOLECULE
No_607-gen_results/8p0m/2024-11-26-14-13-15/
 12 13 0 0 0
SMALL
GASTEIGER

@<TRIPOS>ATOM
      1 C         -28.0162   -0.8135   28.8779 C.ar    1  UNL1        0.0000
      2 C         -28.4690   -0.7850   29.8287 C.ar    1  UNL1        0.0000
      3 C         -26.5455   -0.8762   28.8500 C.ar    1  UNL1        0.0000
      4 C         -25.8041   -1.0324   30.0571 C.ar    1  UNL1        0.0000
      5 C         -26.5373   -1.0386   31.2171 C.ar    1  UNL1        0.0000
      6 C         -27.8843   -0.9532   31.1862 C.ar    1  UNL1        0.0000
      7 C         -24.3655   -1.1134   30.0483 C.ar    1  UNL1        0.0000
      8 C         -23.6254   -0.9434   29.0230 C.ar    1  UNL1        0.0000
      9 C         -22.1628   -0.8291   29.0965 C.ar    1  UNL1        0.0000
     10 C         -23.6191   -0.2385   31.0306 C.ar    1  UNL1        0.0000
     11 C         -22.2632   -0.1702   30.9911 C.ar    1  UNL1        0.0000
     12 C         -21.5829   -0.0537   29.9130 C.ar    1  UNL1        0.0000
@<TRIPOS>BOND
     1     4     7    1
     2     1     2   ar
     3     2     6   ar
     4     6     5   ar
     5     5     4   ar
     6     4     3   ar
     7     3     1   ar
     8     7     8   ar
     9     8     9   ar
    10     9    12   ar
    11    12    11   ar
    12    11    10   ar
    13    10     7   ar
