@<TRIPOS>MOLECULE
No_608-gen_results/8p0m/2024-11-26-14-13-15/
 21 22 0 0 0
SMALL
GASTEIGER

@<TRIPOS>ATOM
      1 C         -28.0162   -0.8135   28.8779 C.2     1  UNL1        0.2690
      2 C         -27.0636   -0.1189   28.6079 C.ar    1  UNL1        0.0554
      3 C         -25.7923   -0.4302   29.0761 C.ar    1  UNL1        0.0047
      4 C         -24.5456    0.3494   28.8225 C.ar    1  UNL1        0.0048
      5 C         -24.6586    1.4196   27.8878 C.ar    1  UNL1        0.0567
      6 C         -25.9471    1.6811   27.3792 C.ar    1  UNL1        0.0048
      7 C         -27.0439    0.9739   27.6871 C.ar    1  UNL1        0.0047
      8 N         -27.9517   -1.7518   29.9375 N.am    1  UNL1       -0.1754
      9 O         -29.2110   -0.3383   28.7434 O.2     1  UNL1       -0.2680
     10 C         -29.0271   -2.5366   30.4973 C.ar    1  UNL1        0.0737
     11 C         -23.4606    2.1651   27.5966 C.2     1  UNL1        0.2842
     12 N         -22.4944    1.7747   27.1806 N.am    1  UNL1       -0.0837
     13 O         -23.6965    3.4872   27.5594 O.2     1  UNL1       -0.2667
     14 C         -29.2693   -2.1362   31.7434 C.ar    1  UNL1        0.0166
     15 C         -30.1357   -3.0959   32.4941 C.ar    1  UNL1        0.0013
     16 C         -30.5914   -4.2586   31.8546 C.ar    1  UNL1       -0.0002
     17 C         -30.1843   -4.5599   30.5600 C.ar    1  UNL1        0.0013
     18 C         -29.2843   -3.7546   29.9743 C.ar    1  UNL1        0.0166
     19 C         -31.5481   -5.1716   32.5614 C.2     1  UNL1       -0.0046
     20 C         -31.8712   -6.2014   32.0918 C.2     1  UNL1       -0.0258
     21 C         -31.4216   -6.6377   30.7049 C.3     1  UNL1        0.0307
@<TRIPOS>BOND
     1     1     2    1
     2     1     8   am
     3     1     9    2
     4     8    10    1
     5     5    11    1
     6    11    12   am
     7    11    13    2
     8    16    19    1
     9    19    20    2
    10    20    21    1
    11     2     3   ar
    12     3     4   ar
    13     4     5   ar
    14     5     6   ar
    15     6     7   ar
    16     7     2   ar
    17    10    14   ar
    18    14    15   ar
    19    15    16   ar
    20    16    17   ar
    21    17    18   ar
    22    18    10   ar
