@<TRIPOS>MOLECULE
No_609-gen_results/8p0m/2024-11-26-14-13-15/
 13 14 0 0 0
SMALL
GASTEIGER

@<TRIPOS>ATOM
      1 C         -28.0162   -0.8135   28.8779 C.ar    1  UNL1        0.0296
      2 C         -27.0636   -0.1189   28.6079 C.ar    1  UNL1        0.1401
      3 F         -25.8837   -0.5253   28.7835 F       1  UNL1       -0.2042
      4 C         -27.1010    1.1562   27.8909 C.ar    1  UNL1        0.0296
      5 C         -29.3448   -0.1953   28.7972 C.ar    1  UNL1        0.0023
      6 C         -28.3754    1.6882   27.6893 C.ar    1  UNL1        0.0023
      7 C         -29.4687    0.9858   28.1266 C.ar    1  UNL1        0.0001
      8 C         -30.8044    1.5615   27.9022 C.ar    1  UNL1        0.0000
      9 C         -31.7062    1.4447   28.7605 C.ar    1  UNL1        0.0000
     10 C         -33.0382    1.9462   28.5533 C.ar    1  UNL1        0.0000
     11 C         -31.0428    2.1745   26.6522 C.ar    1  UNL1        0.0000
     12 C         -32.3233    2.7498   26.3985 C.ar    1  UNL1        0.0000
     13 C         -33.2717    2.6534   27.3643 C.ar    1  UNL1        0.0000
@<TRIPOS>BOND
     1     2     3    1
     2     7     8    1
     3     8     9   ar
     4     9    10   ar
     5    10    13   ar
     6    13    12   ar
     7    12    11   ar
     8    11     8   ar
     9     1     2   ar
    10     2     4   ar
    11     4     6   ar
    12     6     7   ar
    13     7     5   ar
    14     5     1   ar
