@<TRIPOS>MOLECULE
No_61-gen_results/8p0m/2024-11-26-14-13-15/
 20 21 0 0 0
SMALL
GASTEIGER

@<TRIPOS>ATOM
      1 C         -28.0162   -0.8135   28.8779 C.ar    1  UNL1        0.0483
      2 C         -28.4690   -0.7850   29.8287 C.ar    1  UNL1        0.0829
      3 C         -26.5455   -0.8762   28.8500 C.ar    1  UNL1        0.1919
      4 C         -25.8041   -1.0324   30.0571 C.ar    1  UNL1        0.0171
      5 C         -26.5373   -1.0386   31.2171 C.ar    1  UNL1       -0.0009
      6 C         -27.8843   -0.9532   31.1862 C.ar    1  UNL1        0.0065
      7 C         -24.3655   -1.1134   30.0483 C.3     1  UNL1        0.0343
      8 C         -23.6925    0.1188   29.9185 C.3     1  UNL1        0.0308
      9 C         -23.1776    0.5817   28.7884 C.2     1  UNL1       -0.0257
     10 C         -23.0256    1.9043   28.3707 C.2     1  UNL1       -0.0030
     11 C         -24.0281    2.3124   27.6835 C.ar    1  UNL1        0.0189
     12 C         -24.4066    3.6871   27.7228 C.ar    1  UNL1        0.0988
     13 C         -24.5638    1.5308   26.6415 C.ar    1  UNL1        0.0031
     14 N         -25.2858    4.1623   26.7932 N.ar    1  UNL1       -0.2423
     15 C         -25.5029    2.0244   25.7698 C.ar    1  UNL1        0.0207
     16 C         -25.8395    3.3974   25.8738 C.ar    1  UNL1        0.0989
     17 O         -25.7377   -1.0615   27.7787 O.3     1  UNL1       -0.2869
     18 C         -30.0615   -0.6240   29.8473 C.2     1  UNL1        0.3879
     19 O         -30.4964   -0.2031   28.8975 O.co2   1  UNL1       -0.2406
     20 O         -30.6992   -0.6110   30.9752 O.co2   1  UNL1       -0.2406
@<TRIPOS>BOND
     1     4     7    1
     2     7     8    1
     3     8     9    1
     4     9    10    2
     5    10    11    1
     6     3    17    1
     7     2    18    1
     8    18    19   ar
     9    18    20   ar
    10    11    12   ar
    11    12    14   ar
    12    14    16   ar
    13    16    15   ar
    14    15    13   ar
    15    13    11   ar
    16     1     2   ar
    17     2     6   ar
    18     6     5   ar
    19     5     4   ar
    20     4     3   ar
    21     3     1   ar
