@<TRIPOS>MOLECULE
No_612-gen_results/8p0m/2024-11-26-14-13-15/
 9 9 0 0 0
SMALL
GASTEIGER

@<TRIPOS>ATOM
      1 C         -28.0162   -0.8135   28.8779 C.ar    1  UNL1        0.0601
      2 C         -28.4690   -0.7850   29.8287 C.ar    1  UNL1        0.1424
      3 C         -26.5042   -0.7777   28.8766 C.ar    1  UNL1        0.1528
      4 C         -25.8103   -0.8531   30.1028 C.ar    1  UNL1        0.0852
      5 C         -27.9906   -0.8916   31.2257 C.ar    1  UNL1        0.0307
      6 C         -26.6042   -0.8676   31.2652 C.ar    1  UNL1        0.0160
      7 CL        -24.1648   -0.7915   30.1717 Cl      1  UNL1       -0.0799
      8 F         -29.9437   -0.8335   29.8156 F       1  UNL1       -0.2041
      9 F         -25.5840   -0.8496   27.8999 F       1  UNL1       -0.2032
@<TRIPOS>BOND
     1     4     7    1
     2     2     8    1
     3     3     9    1
     4     1     2   ar
     5     2     5   ar
     6     5     6   ar
     7     6     4   ar
     8     4     3   ar
     9     3     1   ar
