@<TRIPOS>MOLECULE
No_613-gen_results/8p0m/2024-11-26-14-13-15/
 35 39 0 0 0
SMALL
GASTEIGER

@<TRIPOS>ATOM
      1 C         -28.0162   -0.8135   28.8779 C.ar    1  UNL1        0.0536
      2 C         -27.0636   -0.1190   28.6079 C.ar    1  UNL1        0.0042
      3 C         -26.9716    0.7139   27.5060 C.ar    1  UNL1       -0.0038
      4 C         -28.1053    0.7744   26.6421 C.ar    1  UNL1       -0.0184
      5 C         -29.2008    0.1044   27.0527 C.ar    1  UNL1       -0.0038
      6 C         -28.0219   -1.5899   30.0879 C.2     1  UNL1        0.2490
      7 C         -29.1640   -0.6394   28.1484 C.ar    1  UNL1        0.0042
      8 N         -28.8376   -1.8977   30.7662 N.am    1  UNL1       -0.2761
      9 O         -26.9169   -2.4601   30.1615 O.2     1  UNL1       -0.2699
     10 C         -30.0908   -1.1159   30.8995 C.3     1  UNL1        0.0937
     11 C         -31.0887   -1.7265   31.6001 C.3     1  UNL1        0.0216
     12 C         -29.0291   -3.1060   31.5776 C.3     1  UNL1        0.0937
     13 C         -29.9272   -3.6237   31.7171 C.3     1  UNL1        0.0216
     14 C         -31.0840   -2.9285   32.2570 C.3     1  UNL1        0.0035
     15 C         -28.0280    1.6352   25.4399 C.3     1  UNL1        0.0446
     16 C         -26.9909    1.7249   24.7278 C.3     1  UNL1        0.0094
     17 C         -29.2757    2.2640   25.0232 C.ar    1  UNL1       -0.0187
     18 C         -29.4296    3.5253   25.4706 C.ar    1  UNL1       -0.0037
     19 C         -28.5177    4.2588   26.0401 C.ar    1  UNL1       -0.0003
     20 C         -28.7987    5.6308   26.4772 C.ar    1  UNL1       -0.0000
     21 C         -30.0819    6.0975   26.2928 C.ar    1  UNL1       -0.0000
     22 C         -31.0871    5.3198   25.7741 C.ar    1  UNL1       -0.0000
     23 C         -30.7771    4.0474   25.3310 C.ar    1  UNL1       -0.0006
     24 C         -30.0371    1.5475   24.1626 C.ar    1  UNL1       -0.0079
     25 C         -31.7337    3.2886   24.6691 C.ar    1  UNL1       -0.0037
     26 C         -31.3676    2.0833   24.0139 C.ar    1  UNL1       -0.0181
     27 C         -33.0389    3.8642   24.2707 C.ar    1  UNL1       -0.0003
     28 C         -33.5210    3.7483   23.1364 C.ar    1  UNL1       -0.0000
     29 C         -34.4691    4.2752   22.6809 C.ar    1  UNL1       -0.0000
     30 C         -35.2593    5.2048   23.5298 C.ar    1  UNL1       -0.0000
     31 C         -34.7983    5.4045   24.7876 C.ar    1  UNL1       -0.0000
     32 C         -33.6660    4.8417   25.1869 C.ar    1  UNL1       -0.0000
     33 C         -32.3268    1.1972   23.3390 C.3     1  UNL1        0.0523
     34 C         -33.1185    0.4652   24.2189 C.2     1  UNL1       -0.0214
     35 C         -32.5929   -0.3407   25.0793 C.2     1  UNL1       -0.0046
@<TRIPOS>BOND
     1     1     6    1
     2     6     8   am
     3     6     9    2
     4     8    10    1
     5     8    12    1
     6    12    13    1
     7    11    14    1
     8     4    15    1
     9    15    16    1
    10    15    17    1
    11    25    27    1
    12    26    33    1
    13    33    34    1
    14    34    35    2
    15    10    11    1
    16    14    13    1
    17    18    19   ar
    18    19    20   ar
    19    20    21   ar
    20    21    22   ar
    21    22    23   ar
    22    27    28   ar
    23    28    29   ar
    24    29    30   ar
    25    30    31   ar
    26    31    32   ar
    27    32    27   ar
    28     1     2   ar
    29     2     3   ar
    30     3     4   ar
    31     4     5   ar
    32     5     7   ar
    33     7     1   ar
    34    17    18   ar
    35    18    23   ar
    36    23    25   ar
    37    25    26   ar
    38    26    24   ar
    39    24    17   ar
