@<TRIPOS>MOLECULE
No_614-gen_results/8p0m/2024-11-26-14-13-15/
 20 22 0 0 0
SMALL
GASTEIGER

@<TRIPOS>ATOM
      1 C         -28.0162   -0.8135   28.8779 C.ar    1  UNL1        0.1557
      2 C         -27.0636   -0.1189   28.6079 C.ar    1  UNL1        0.0384
      3 C         -25.7923   -0.4302   29.0761 C.ar    1  UNL1        0.0031
      4 C         -24.5456    0.3494   28.8225 C.ar    1  UNL1        0.0001
      5 C         -23.2409    0.0217   29.3323 C.ar    1  UNL1        0.0000
      6 C         -22.1362    0.7695   29.0059 C.ar    1  UNL1        0.0000
      7 C         -27.9050   -1.8984   29.8729 C.ar    1  UNL1        0.0921
      8 C         -26.6795   -2.3145   30.3184 C.ar    1  UNL1        0.0145
      9 C         -25.5203   -1.5564   29.9775 C.ar    1  UNL1        0.0011
     10 C         -22.1253    1.7361   28.0244 C.ar    1  UNL1        0.0000
     11 C         -24.6058    1.6046   28.0645 C.ar    1  UNL1        0.0000
     12 C         -23.3758    2.1707   27.5948 C.ar    1  UNL1        0.0000
     13 CL        -29.2053   -2.9659   30.3872 Cl      1  UNL1       -0.0791
     14 O         -29.2967   -0.5505   28.5044 O.3     1  UNL1       -0.4526
     15 C         -29.7116    0.7699   28.5242 C.ar    1  UNL1        0.1453
     16 C         -29.9050    1.3796   29.5999 C.ar    1  UNL1        0.0375
     17 C         -30.2345    2.7406   29.6292 C.ar    1  UNL1        0.0031
     18 C         -29.9518    1.3105   27.1931 C.ar    1  UNL1        0.0375
     19 C         -30.3773    2.6767   27.1935 C.ar    1  UNL1        0.0031
     20 C         -30.5547    3.3806   28.3991 C.ar    1  UNL1        0.0002
@<TRIPOS>BOND
     1     3     4    1
     2     7    13    1
     3     1    14    1
     4    14    15    1
     5    15    16   ar
     6    16    17   ar
     7    17    20   ar
     8    20    19   ar
     9    19    18   ar
    10    18    15   ar
    11     1     2   ar
    12     2     3   ar
    13     3     9   ar
    14     9     8   ar
    15     8     7   ar
    16     7     1   ar
    17     4     5   ar
    18     5     6   ar
    19     6    10   ar
    20    10    12   ar
    21    12    11   ar
    22    11     4   ar
