@<TRIPOS>MOLECULE
No_616-gen_results/8p0m/2024-11-26-14-13-15/
 13 14 0 0 0
SMALL
GASTEIGER

@<TRIPOS>ATOM
      1 C         -28.0162   -0.8135   28.8779 C.ar    1  UNL1        0.0375
      2 C         -27.0636   -0.1189   28.6079 C.ar    1  UNL1        0.1453
      3 C         -26.9287    1.1713   29.0083 C.ar    1  UNL1        0.0375
      4 C         -27.9560    1.7411   29.7840 C.ar    1  UNL1        0.0031
      5 C         -29.0569   -0.3271   29.7466 C.ar    1  UNL1        0.0031
      6 C         -28.9828    0.9722   30.1516 C.ar    1  UNL1        0.0002
      7 O         -25.9911   -0.6119   27.8566 O.3     1  UNL1       -0.4535
      8 C         -24.6317   -0.3327   28.2530 C.ar    1  UNL1        0.1453
      9 C         -23.9835    0.7327   27.5844 C.ar    1  UNL1        0.0375
     10 C         -22.6896    0.9863   27.9802 C.ar    1  UNL1        0.0031
     11 C         -21.9904    0.1338   28.8601 C.ar    1  UNL1        0.0002
     12 C         -23.9611   -1.1207   29.1472 C.ar    1  UNL1        0.0375
     13 C         -22.6608   -0.9353   29.4146 C.ar    1  UNL1        0.0031
@<TRIPOS>BOND
     1     2     7    1
     2     7     8    1
     3     1     2   ar
     4     2     3   ar
     5     3     4   ar
     6     4     6   ar
     7     6     5   ar
     8     5     1   ar
     9     8     9   ar
    10     9    10   ar
    11    10    11   ar
    12    11    13   ar
    13    13    12   ar
    14    12     8   ar
