@<TRIPOS>MOLECULE
No_617-gen_results/8p0m/2024-11-26-14-13-15/
 6 5 0 0 0
SMALL
GASTEIGER

@<TRIPOS>ATOM
      1 O         -28.1229   -1.3353   28.4874 O.2     1  UNL1       -0.2656
      2 C         -27.0637   -0.8242   28.8687 C.2     1  UNL1        0.2751
      3 C         -26.0496   -0.9362   28.7578 C.2     1  UNL1        0.0366
      4 C         -25.2767   -1.6667   28.0545 C.3     1  UNL1        0.0359
      5 N         -27.4147    0.1404   29.9761 N.2     1  UNL1       -0.2050
      6 C         -26.4944    0.8836   30.5983 C.2     1  UNL1        0.1229
@<TRIPOS>BOND
     1     1     2    1
     2     2     3    2
     3     3     4    1
     4     2     5    1
     5     5     6    2
