@<TRIPOS>MOLECULE
No_618-gen_results/8p0m/2024-11-26-14-13-15/
 8 8 0 0 0
SMALL
GASTEIGER

@<TRIPOS>ATOM
      1 C         -28.0162   -0.8135   28.8779 C.ar    1  UNL1        0.0119
      2 C         -27.0636   -0.1189   28.6079 C.ar    1  UNL1        0.0577
      3 C         -26.9287    1.1713   29.0083 C.ar    1  UNL1        0.0119
      4 C         -27.9560    1.7411   29.7840 C.ar    1  UNL1        0.0076
      5 C         -29.0569   -0.3271   29.7466 C.ar    1  UNL1        0.0076
      6 C         -28.9828    0.9722   30.1516 C.ar    1  UNL1        0.0346
      7 CL        -25.7249   -0.7275   27.6731 Cl      1  UNL1       -0.0822
      8 BR        -30.3718    1.6488   31.2441 Br      1  UNL1       -0.0490
@<TRIPOS>BOND
     1     2     7    1
     2     6     8    1
     3     1     2   ar
     4     2     3   ar
     5     3     4   ar
     6     4     6   ar
     7     6     5   ar
     8     5     1   ar
