@<TRIPOS>MOLECULE
No_619-gen_results/8p0m/2024-11-26-14-13-15/
 31 36 0 0 0
SMALL
GASTEIGER

@<TRIPOS>ATOM
      1 C         -28.0162   -0.8135   28.8779 C.ar    1  UNL1        0.0020
      2 C         -27.0636   -0.1189   28.6079 C.ar    1  UNL1       -0.0025
      3 C         -25.7647   -0.3897   29.0360 C.ar    1  UNL1       -0.0003
      4 C         -25.5296   -1.5302   29.9014 C.ar    1  UNL1        0.0001
      5 C         -26.6888   -2.2893   30.1810 C.ar    1  UNL1        0.0043
      6 C         -27.8727   -1.9508   29.7373 C.ar    1  UNL1        0.0512
      7 C         -24.5491    0.4100   28.7341 C.ar    1  UNL1       -0.0000
      8 C         -23.3309    0.0437   29.0569 C.ar    1  UNL1       -0.0000
      9 C         -22.1994    0.8236   28.7067 C.ar    1  UNL1       -0.0000
     10 C         -22.3657    1.8184   27.6957 C.ar    1  UNL1        0.0000
     11 C         -24.6193    1.4577   27.7557 C.ar    1  UNL1       -0.0000
     12 C         -23.5641    2.1491   27.3161 C.ar    1  UNL1       -0.0000
     13 C         -29.0414   -2.7719   30.1634 C.2     1  UNL1        0.2490
     14 N         -30.2064   -2.2832   30.1924 N.am    1  UNL1       -0.2716
     15 O         -28.8216   -3.8207   30.8710 O.2     1  UNL1       -0.2699
     16 C         -31.3954   -3.0112   30.5933 C.3     1  UNL1        0.0987
     17 C         -32.4799   -2.5388   30.1517 C.3     1  UNL1        0.0476
     18 C         -32.4654   -1.4964   29.4660 C.ar    1  UNL1       -0.0216
     19 C         -33.7467   -0.9294   28.9027 C.ar    1  UNL1       -0.0044
     20 C         -33.7624    0.2622   28.1120 C.ar    1  UNL1        0.0009
     21 C         -32.5044    0.8867   27.8933 C.ar    1  UNL1        0.0142
     22 C         -31.3301    0.3966   28.3629 C.ar    1  UNL1        0.0456
     23 C         -31.3418   -0.7655   29.1313 C.ar    1  UNL1        0.0071
     24 C         -30.3287   -1.1525   29.4143 C.3     1  UNL1        0.1212
     25 C         -29.1339   -0.5536   28.9788 C.3     1  UNL1        0.1182
     26 N         -29.7270    0.6682   28.2480 N.pl3   1  UNL1       -0.2998
     27 C         -29.2377    1.7786   27.6037 C.3     1  UNL1        0.1177
     28 C         -28.9845    2.8965   28.3884 C.2     1  UNL1       -0.0048
     29 C         -28.9488    3.0764   29.6626 C.2     1  UNL1       -0.0029
     30 C         -28.5851    4.0076   30.3532 C.2     1  UNL1       -0.0003
     31 C         -28.1817    5.2156   29.7164 C.2     1  UNL1       -0.0000
@<TRIPOS>BOND
     1     3     7    1
     2     6    13    1
     3    13    14   am
     4    13    15    2
     5    14    16    1
     6    16    17    1
     7    14    24    1
     8    23    24    1
     9     1    25    1
    10    24    25    1
    11    22    26    1
    12    25    26    1
    13    26    27    1
    14    27    28    1
    15    28    29    2
    16    29    30    1
    17    30    31    2
    18    17    18    1
    19    18    19   ar
    20    19    20   ar
    21    20    21   ar
    22    21    22   ar
    23    22    23   ar
    24    23    18   ar
    25     1     2   ar
    26     2     3   ar
    27     3     4   ar
    28     4     5   ar
    29     5     6   ar
    30     6     1   ar
    31     7     8   ar
    32     8     9   ar
    33     9    10   ar
    34    10    12   ar
    35    12    11   ar
    36    11     7   ar
