@<TRIPOS>MOLECULE
No_620-gen_results/8p0m/2024-11-26-14-13-15/
 15 16 0 0 0
SMALL
GASTEIGER

@<TRIPOS>ATOM
      1 C         -28.0162   -0.8135   28.8779 C.ar    1  UNL1        0.0293
      2 C         -28.4690   -0.7850   29.8287 C.ar    1  UNL1        0.0023
      3 C         -26.5455   -0.8762   28.8500 C.ar    1  UNL1        0.1365
      4 C         -25.8041   -1.0324   30.0571 C.ar    1  UNL1        0.0097
      5 C         -24.3697   -1.0998   30.0719 C.3     1  UNL1        0.0572
      6 C         -27.9902   -1.0051   31.2092 C.ar    1  UNL1       -0.0002
      7 C         -26.5616   -1.1368   31.2600 C.ar    1  UNL1       -0.0017
      8 C         -23.6342   -0.7826   29.0667 C.ar    1  UNL1        0.0097
      9 C         -22.1763   -0.6779   29.1657 C.ar    1  UNL1       -0.0017
     10 C         -21.5613    0.4612   28.8574 C.ar    1  UNL1       -0.0002
     11 C         -22.0743    1.3825   27.8971 C.ar    1  UNL1        0.0023
     12 C         -23.4886    1.3132   27.6784 C.ar    1  UNL1        0.0293
     13 C         -24.2585    0.3705   28.2884 C.ar    1  UNL1        0.1365
     14 F         -25.8013   -0.3027   27.8527 F       1  UNL1       -0.2045
     15 F         -24.9426    1.2205   29.1445 F       1  UNL1       -0.2045
@<TRIPOS>BOND
     1     4     5    1
     2     3    14    1
     3    13    15    1
     4     5     8    1
     5     1     2   ar
     6     2     6   ar
     7     6     7   ar
     8     7     4   ar
     9     4     3   ar
    10     3     1   ar
    11     8     9   ar
    12     9    10   ar
    13    10    11   ar
    14    11    12   ar
    15    12    13   ar
    16    13     8   ar
