@<TRIPOS>MOLECULE
No_622-gen_results/8p0m/2024-11-26-14-13-15/
 35 38 0 0 0
SMALL
GASTEIGER

@<TRIPOS>ATOM
      1 C         -28.0162   -0.8135   28.8779 C.2     1  UNL1        0.0801
      2 C         -27.0636   -0.1190   28.6079 C.2     1  UNL1       -0.0279
      3 C         -25.7647   -0.3897   29.0360 C.3     1  UNL1        0.0220
      4 C         -24.5516    0.4058   28.7646 C.3     1  UNL1        0.0341
      5 C         -24.6957    1.4480   27.7988 C.3     1  UNL1        0.1011
      6 C         -25.9755    1.7250   27.3077 C.3     1  UNL1        0.0155
      7 C         -27.1888    1.1181   27.8544 C.3     1  UNL1        0.0239
      8 N         -29.1956   -0.1915   29.0894 N.am    1  UNL1       -0.1785
      9 C         -23.5192    2.1541   27.4328 C.2     1  UNL1        0.3165
     10 O         -23.5596    3.0630   26.5879 O.2     1  UNL1       -0.2501
     11 O         -22.2997    1.8043   27.8378 O.3     1  UNL1       -0.4470
     12 C         -30.0538   -0.5133   30.0094 C.2     1  UNL1        0.2470
     13 C         -29.6528   -1.2850   31.0415 C.3     1  UNL1        0.1045
     14 O         -31.2622   -0.0527   30.0888 O.2     1  UNL1       -0.2729
     15 C         -29.7512   -2.7080   30.8551 C.3     1  UNL1        0.0819
     16 N         -28.6681   -3.4354   31.1264 N.3     1  UNL1       -0.2190
     17 C         -28.4926   -4.6854   30.4729 C.3     1  UNL1        0.0887
     18 C         -25.4591   -1.5310   29.9803 C.3     1  UNL1        0.0099
     19 C         -24.7988   -2.5983   29.4916 C.3     1  UNL1        0.0397
     20 C         -23.4446   -2.5178   29.2827 C.3     1  UNL1        0.0931
     21 C         -25.4758   -3.8512   29.2723 C.2     1  UNL1       -0.0250
     22 C         -24.7689   -4.9667   28.8465 C.2     1  UNL1       -0.0049
     23 N         -22.7700   -1.3757   29.5623 N.3     1  UNL1       -0.2153
     24 C         -23.2223   -0.1623   28.8036 C.3     1  UNL1        0.1172
     25 C         -22.0952    0.8244   28.6038 C.3     1  UNL1        0.2256
     26 C         -30.8422   -3.3369   31.6994 C.3     1  UNL1        0.0183
     27 C         -31.1758   -4.6562   31.1860 C.3     1  UNL1        0.0072
     28 C         -29.8360   -5.5222   31.2334 C.3     1  UNL1        0.0192
     29 C         -32.1762   -5.4198   31.9733 C.3     1  UNL1        0.0261
     30 C         -33.0692   -5.8758   31.2891 C.2     1  UNL1       -0.0261
     31 C         -33.4509   -5.1256   30.2053 C.2     1  UNL1       -0.0046
     32 C         -34.4870   -5.5988   29.3377 C.2     1  UNL1       -0.0003
     33 C         -34.7822   -4.8831   28.1028 C.2     1  UNL1       -0.0000
     34 C         -34.0461   -3.7153   27.7944 C.2     1  UNL1       -0.0000
     35 C         -33.0166   -3.3223   28.6460 C.2     1  UNL1       -0.0000
@<TRIPOS>BOND
     1     1     2    2
     2     2     3    1
     3     3     4    1
     4     4     5    1
     5     5     6    1
     6     2     7    1
     7     6     7    1
     8     1     8    1
     9     5     9    1
    10     9    10    2
    11     9    11    1
    12     8    12   am
    13    12    13    1
    14    12    14    2
    15    13    15    1
    16    15    16    1
    17    16    17    1
    18     3    18    1
    19    18    19    1
    20    19    20    1
    21    19    21    1
    22    21    22    2
    23    20    23    1
    24     4    24    1
    25    23    24    1
    26    11    25    1
    27    24    25    1
    28    15    26    1
    29    26    27    1
    30    17    28    1
    31    27    28    1
    32    27    29    1
    33    29    30    1
    34    30    31    2
    35    31    32    1
    36    32    33    2
    37    33    34    1
    38    34    35    2
