@<TRIPOS>MOLECULE
No_623-gen_results/8p0m/2024-11-26-14-13-15/
 16 17 0 0 0
SMALL
GASTEIGER

@<TRIPOS>ATOM
      1 C         -28.0162   -0.8135   28.8779 C.ar    1  UNL1        0.0001
      2 C         -27.0636   -0.1190   28.6079 C.ar    1  UNL1       -0.0177
      3 C         -26.9287    1.1713   29.0083 C.ar    1  UNL1       -0.0039
      4 C         -27.9560    1.7411   29.7840 C.ar    1  UNL1       -0.0002
      5 C         -29.0569   -0.3271   29.7466 C.ar    1  UNL1        0.0499
      6 C         -28.9828    0.9722   30.1516 C.ar    1  UNL1        0.0041
      7 C         -25.8907   -0.6263   27.7857 C.3     1  UNL1        0.0526
      8 C         -24.7183   -1.0610   28.6129 C.ar    1  UNL1       -0.0178
      9 C         -23.5950   -0.2827   28.8125 C.ar    1  UNL1       -0.0039
     10 C         -22.5044   -0.8064   29.5509 C.ar    1  UNL1       -0.0003
     11 C         -24.7823   -2.3538   29.1985 C.ar    1  UNL1       -0.0039
     12 C         -23.6341   -2.8501   29.8501 C.ar    1  UNL1       -0.0003
     13 C         -22.5338   -2.0333   30.0696 C.ar    1  UNL1       -0.0000
     14 C         -30.1729   -1.2260   30.1320 C.2     1  UNL1        0.2535
     15 CL        -31.1369   -0.8549   31.1198 Cl      1  UNL1       -0.0382
     16 O         -30.1709   -2.4100   29.6153 O.2     1  UNL1       -0.2739
@<TRIPOS>BOND
     1     2     7    1
     2     7     8    1
     3     5    14    1
     4    14    15    1
     5    14    16    2
     6     8     9   ar
     7     9    10   ar
     8    10    13   ar
     9    13    12   ar
    10    12    11   ar
    11    11     8   ar
    12     1     2   ar
    13     2     3   ar
    14     3     4   ar
    15     4     6   ar
    16     6     5   ar
    17     5     1   ar
