@<TRIPOS>MOLECULE
No_624-gen_results/8p0m/2024-11-26-14-13-15/
 7 7 0 0 0
SMALL
GASTEIGER

@<TRIPOS>ATOM
      1 C         -28.0162   -0.8135   28.8779 C.ar    1  UNL1        0.0009
      2 C         -28.4690   -0.7850   29.8287 C.ar    1  UNL1        0.0001
      3 C         -26.6028   -1.0596   28.5384 C.ar    1  UNL1        0.0114
      4 C         -25.7969   -1.4490   29.7273 C.ar    1  UNL1        0.0577
      5 C         -26.4628   -1.5399   30.9726 C.ar    1  UNL1        0.0114
      6 C         -27.7695   -1.2480   31.0791 C.ar    1  UNL1        0.0009
      7 CL        -24.1832   -1.7892   29.5546 Cl      1  UNL1       -0.0822
@<TRIPOS>BOND
     1     4     7    1
     2     1     2   ar
     3     2     6   ar
     4     6     5   ar
     5     5     4   ar
     6     4     3   ar
     7     3     1   ar
