@<TRIPOS>MOLECULE
No_625-gen_results/8p0m/2024-11-26-14-13-15/
 17 18 0 0 0
SMALL
GASTEIGER

@<TRIPOS>ATOM
      1 C         -28.0162   -0.8135   28.8779 C.ar    1  UNL1        0.0015
      2 C         -28.4690   -0.7850   29.8287 C.ar    1  UNL1        0.0000
      3 C         -27.0871    0.2903   28.6377 C.ar    1  UNL1        0.0192
      4 C         -26.2516    0.4114   27.4223 C.ar    1  UNL1        0.1021
      5 C         -28.3913    0.1041   30.9805 C.ar    1  UNL1        0.0000
      6 C         -27.5332    1.1666   30.7866 C.ar    1  UNL1        0.0000
      7 C         -26.8281    1.2557   29.6454 C.ar    1  UNL1        0.0015
      8 N         -25.0638    0.2673   27.5264 N.ar    1  UNL1       -0.2224
      9 C         -26.8721    0.6383   26.1615 C.ar    1  UNL1        0.1180
     10 C         -26.0048    0.5130   25.0700 C.ar    1  UNL1        0.1212
     11 C         -24.1417    0.3181   26.5125 C.ar    1  UNL1        0.1990
     12 N         -24.7059    0.4718   25.2740 N.ar    1  UNL1       -0.2208
     13 N         -28.1778    0.6151   25.9405 N.2     1  UNL1       -0.2408
     14 C         -28.7341    0.5525   24.7690 C.2     1  UNL1        0.0986
     15 C         -30.1098    0.6326   24.7114 C.2     1  UNL1        0.0161
     16 C         -30.8035    1.1408   25.6969 C.2     1  UNL1       -0.0242
     17 C         -30.2095    1.3181   26.9915 C.3     1  UNL1        0.0307
@<TRIPOS>BOND
     1     3     4    1
     2     9    13    1
     3    13    14    2
     4    14    15    1
     5    15    16    2
     6    16    17    1
     7     4     8   ar
     8     8    11   ar
     9    11    12   ar
    10    12    10   ar
    11    10     9   ar
    12     9     4   ar
    13     1     2   ar
    14     2     5   ar
    15     5     6   ar
    16     6     7   ar
    17     7     3   ar
    18     3     1   ar
