@<TRIPOS>MOLECULE
No_626-gen_results/8p0m/2024-11-26-14-13-15/
 23 25 0 0 0
SMALL
GASTEIGER

@<TRIPOS>ATOM
      1 C         -28.0162   -0.8135   28.8779 C.ar    1  UNL1        0.0398
      2 C         -27.0636   -0.1189   28.6079 C.ar    1  UNL1        0.0328
      3 C         -25.7923   -0.4302   29.0761 C.ar    1  UNL1        0.1403
      4 C         -25.5756   -1.5654   29.9363 C.ar    1  UNL1        0.0328
      5 C         -26.7354   -2.3004   30.2173 C.ar    1  UNL1        0.0398
      6 C         -27.9184   -1.9537   29.7629 C.ar    1  UNL1        0.1454
      7 O         -29.0001   -2.7012   30.1151 O.3     1  UNL1       -0.4535
      8 F         -24.6795    0.2962   28.8383 F       1  UNL1       -0.2042
      9 C         -28.8871   -3.9481   30.5874 C.ar    1  UNL1        0.1453
     10 C         -30.0731   -4.7689   30.2308 C.ar    1  UNL1        0.0374
     11 C         -30.4670   -5.6124   31.2798 C.ar    1  UNL1        0.0055
     12 C         -29.5760   -5.9830   32.3457 C.ar    1  UNL1        0.0536
     13 C         -28.5913   -5.0542   32.6310 C.ar    1  UNL1        0.0055
     14 C         -28.2112   -4.1852   31.8375 C.ar    1  UNL1        0.0374
     15 C         -30.0496   -7.0878   33.1993 C.3     1  UNL1        0.3351
     16 N         -29.8978   -8.2255   32.8229 N.3     1  UNL1       -0.2202
     17 C         -30.1614   -8.6426   31.6213 C.3     1  UNL1        0.0772
     18 C         -30.0923  -10.0681   31.2815 C.3     1  UNL1        0.0176
     19 C         -29.4089   -9.3294   33.6891 C.3     1  UNL1        0.0772
     20 C         -29.2941  -10.6150   33.3973 C.3     1  UNL1        0.0176
     21 C         -29.5860  -10.9805   32.0905 C.3     1  UNL1        0.0029
     22 F         -31.2262   -6.9644   33.7677 F       1  UNL1       -0.1827
     23 F         -29.1935   -6.9715   34.3634 F       1  UNL1       -0.1827
@<TRIPOS>BOND
     1     6     7    1
     2     3     8    1
     3     7     9    1
     4    12    15    1
     5    15    16    1
     6    16    17    1
     7    16    19    1
     8    18    21    1
     9    20    21    1
    10    15    22    1
    11    15    23    1
    12    17    18    1
    13    20    19    1
    14     1     2   ar
    15     2     3   ar
    16     3     4   ar
    17     4     5   ar
    18     5     6   ar
    19     6     1   ar
    20     9    10   ar
    21    10    11   ar
    22    11    12   ar
    23    12    13   ar
    24    13    14   ar
    25    14     9   ar
