@<TRIPOS>MOLECULE
No_627-gen_results/8p0m/2024-11-26-14-13-15/
 15 17 0 0 0
SMALL
GASTEIGER

@<TRIPOS>ATOM
      1 C         -28.0162   -0.8135   28.8779 C.3     1  UNL1        0.2290
      2 C         -28.4690   -0.7850   29.8287 C.ar    1  UNL1        0.0205
      3 N         -26.6082   -0.9454   28.8569 N.pl3   1  UNL1       -0.1919
      4 C         -25.7271   -0.3586   27.9991 C.2     1  UNL1        0.3051
      5 C         -24.3406   -0.4775   28.2916 C.2     1  UNL1        0.0646
      6 C         -24.1416   -1.4913   29.2988 C.3     1  UNL1        0.0805
      7 C         -25.8153   -1.7365   29.8057 C.3     1  UNL1        0.1691
      8 C         -29.9794   -0.7632   30.0255 C.ar    1  UNL1       -0.0006
      9 C         -30.6665   -1.0358   31.1615 C.ar    1  UNL1       -0.0002
     10 C         -29.9392   -1.2168   32.3814 C.ar    1  UNL1       -0.0003
     11 C         -28.5671   -1.2875   32.3460 C.ar    1  UNL1       -0.0043
     12 C         -27.9064   -1.1789   31.2294 C.ar    1  UNL1       -0.0183
     13 C         -26.4199   -1.4360   31.0808 C.3     1  UNL1        0.0730
     14 N         -26.0730    0.4009   26.9823 N.pl3   1  UNL1       -0.0319
     15 C         -25.8824    1.2471   26.4042 C.3     1  UNL1        0.3058
@<TRIPOS>BOND
     1     1     2    1
     2     1     3    1
     3     3     4    1
     4     4     5    2
     5     5     6    1
     6     3     7    1
     7     6     7    1
     8     7    13    1
     9    12    13    1
    10     4    14    1
    11    14    15    1
    12     2     8   ar
    13     8     9   ar
    14     9    10   ar
    15    10    11   ar
    16    11    12   ar
    17    12     2   ar
