@<TRIPOS>MOLECULE
No_628-gen_results/8p0m/2024-11-26-14-13-15/
 10 10 0 0 0
SMALL
GASTEIGER

@<TRIPOS>ATOM
      1 C         -28.0162   -0.8135   28.8779 C.ar    1  UNL1        0.0077
      2 C         -28.4690   -0.7850   29.8287 C.ar    1  UNL1       -0.0018
      3 C         -28.1960    0.3478   28.0550 C.3     1  UNL1        0.1742
      4 C         -27.4421    0.5100   26.7946 C.3     1  UNL1        0.0375
      5 C         -27.8427    1.3330   25.8056 C.3     1  UNL1        0.0031
      6 C         -28.2558   -1.9271   30.8901 C.ar    1  UNL1       -0.0002
      7 C         -27.4492   -2.9641   30.4317 C.ar    1  UNL1       -0.0000
      8 C         -26.6412   -2.8044   29.3509 C.ar    1  UNL1       -0.0002
      9 C         -26.7826   -1.6363   28.6124 C.ar    1  UNL1       -0.0018
     10 O         -28.1409    1.5957   28.5834 O.3     1  UNL1       -0.2183
@<TRIPOS>BOND
     1     1     3    1
     2     3     4    1
     3     4     5    1
     4     3    10    1
     5     1     2   ar
     6     2     6   ar
     7     6     7   ar
     8     7     8   ar
     9     8     9   ar
    10     9     1   ar
