@<TRIPOS>MOLECULE
No_629-gen_results/8p0m/2024-11-26-14-13-15/
 35 38 0 0 0
SMALL
GASTEIGER

@<TRIPOS>ATOM
      1 C         -28.0162   -0.8135   28.8779 C.ar    1  UNL1        0.1391
      2 C         -27.0636   -0.1190   28.6079 C.ar    1  UNL1        0.0340
      3 C         -27.0010    0.6913   27.4910 C.ar    1  UNL1        0.0032
      4 C         -28.1373    0.7363   26.6350 C.ar    1  UNL1        0.0047
      5 C         -29.2360    0.0765   27.0690 C.ar    1  UNL1        0.0570
      6 C         -29.2177   -0.6429   28.1747 C.ar    1  UNL1        0.0414
      7 C         -30.4152    0.1590   26.1820 C.2     1  UNL1        0.2551
      8 N         -30.3473    0.0802   24.9534 N.am    1  UNL1       -0.2211
      9 O         -31.5704    0.1013   26.7354 O.2     1  UNL1       -0.2695
     10 C         -25.7104   -0.2029   29.4236 C.ar    1  UNL1        0.0031
     11 C         -25.5972   -0.6011   30.4045 C.ar    1  UNL1        0.0001
     12 C         -24.2778   -0.6504   31.1688 C.ar    1  UNL1        0.0002
     13 C         -23.1503   -0.1794   30.5059 C.ar    1  UNL1        0.0066
     14 C         -23.3141    0.3426   29.2343 C.ar    1  UNL1        0.0798
     15 C         -24.5895    0.3263   28.5502 C.ar    1  UNL1        0.0067
     16 C         -22.1332    0.8332   28.5194 C.2     1  UNL1        0.3878
     17 O         -22.2956    1.6311   27.5109 O.co2   1  UNL1       -0.2406
     18 O         -20.9196    0.5560   28.8873 O.co2   1  UNL1       -0.2406
     19 C         -31.4983   -0.0694   24.0357 C.2     1  UNL1        0.2550
     20 C         -29.1019    0.0989   24.1137 C.3     1  UNL1        0.1234
     21 C         -32.3765    0.7301   24.0942 C.ar    1  UNL1        0.0540
     22 C         -33.6647    0.4957   23.5603 C.ar    1  UNL1        0.0045
     23 C         -34.7521    1.4115   23.6064 C.ar    1  UNL1        0.0001
     24 C         -34.5092    2.6519   24.2545 C.ar    1  UNL1        0.0000
     25 C         -33.2558    2.9641   24.7903 C.ar    1  UNL1        0.0001
     26 C         -32.2435    2.1108   24.7172 C.ar    1  UNL1        0.0045
     27 O         -31.4285   -1.0441   23.2937 O.2     1  UNL1       -0.2695
     28 O         -28.0888   -1.5971   29.9869 O.3     1  UNL1       -0.4706
     29 C         -29.1587   -1.9903   30.5529 C.3     1  UNL1        0.2320
     30 C         -29.5091   -1.2850   31.6597 C.ar    1  UNL1        0.0212
     31 C         -28.8979   -0.6901   32.3230 C.ar    1  UNL1       -0.0007
     32 C         -29.2177    0.1393   33.5481 C.ar    1  UNL1       -0.0002
     33 C         -30.5286    0.0074   33.9647 C.ar    1  UNL1       -0.0000
     34 C         -31.0073   -1.3972   32.0680 C.ar    1  UNL1       -0.0007
     35 C         -31.4416   -0.7117   33.1923 C.ar    1  UNL1       -0.0002
@<TRIPOS>BOND
     1     5     7    1
     2     7     8   am
     3     7     9    2
     4     2    10    1
     5    14    16    1
     6    16    17   ar
     7    16    18   ar
     8     8    19   am
     9     8    20    1
    10    19    21    1
    11    19    27    2
    12     1    28    1
    13    28    29    1
    14    29    30    1
    15     1     2   ar
    16     2     3   ar
    17     3     4   ar
    18     4     5   ar
    19     5     6   ar
    20     6     1   ar
    21    30    31   ar
    22    31    32   ar
    23    32    33   ar
    24    33    35   ar
    25    35    34   ar
    26    34    30   ar
    27    10    11   ar
    28    11    12   ar
    29    12    13   ar
    30    13    14   ar
    31    14    15   ar
    32    15    10   ar
    33    21    22   ar
    34    22    23   ar
    35    23    24   ar
    36    24    25   ar
    37    25    26   ar
    38    26    21   ar
