@<TRIPOS>MOLECULE
No_630-gen_results/8p0m/2024-11-26-14-13-15/
 9 9 0 0 0
SMALL
GASTEIGER

@<TRIPOS>ATOM
      1 C         -28.0162   -0.8135   28.8779 C.2     1  UNL1        0.1665
      2 N         -27.1876   -0.3590   28.4524 N.2     1  UNL1       -0.2315
      3 CL        -29.4641   -1.3937   28.5418 Cl      1  UNL1       -0.0588
      4 C         -26.2494    0.1903   28.6156 C.ar    1  UNL1        0.0824
      5 C         -25.2882    0.9464   27.7408 C.ar    1  UNL1        0.0191
      6 C         -24.0451    1.4260   28.0830 C.ar    1  UNL1        0.0015
      7 C         -23.5237    1.2540   29.3156 C.ar    1  UNL1        0.0001
      8 C         -25.2718    0.1117   29.8518 C.ar    1  UNL1        0.0191
      9 C         -24.1540    0.6046   30.2211 C.ar    1  UNL1        0.0015
@<TRIPOS>BOND
     1     1     2    2
     2     1     3    1
     3     2     4    1
     4     4     5   ar
     5     5     6   ar
     6     6     7   ar
     7     7     9   ar
     8     9     8   ar
     9     8     4   ar
