@<TRIPOS>MOLECULE
No_632-gen_results/8p0m/2024-11-26-14-13-15/
 16 17 0 0 0
SMALL
GASTEIGER

@<TRIPOS>ATOM
      1 C         -28.0162   -0.8135   28.8779 C.ar    1  UNL1       -0.0003
      2 C         -28.4690   -0.7850   29.8287 C.ar    1  UNL1       -0.0002
      3 C         -27.0871    0.2903   28.6377 C.ar    1  UNL1        0.0243
      4 C         -26.2516    0.4114   27.4223 C.3     1  UNL1        0.2315
      5 C         -28.3913    0.1041   30.9805 C.ar    1  UNL1       -0.0000
      6 C         -27.5332    1.1666   30.7866 C.ar    1  UNL1       -0.0002
      7 C         -26.8281    1.2557   29.6454 C.ar    1  UNL1       -0.0003
      8 N         -25.0637    0.2673   27.5265 N.pl3   1  UNL1       -0.0307
      9 C         -24.1412    1.1287   26.8758 C.2     1  UNL1        0.3612
     10 C         -24.3049    1.8044   25.8142 C.2     1  UNL1        0.0928
     11 C         -26.9224    0.4885   26.1506 C.3     1  UNL1        0.0817
     12 C         -25.4663    1.9151   25.0008 C.2     1  UNL1        0.0033
     13 C         -26.6467    1.3446   25.1923 C.2     1  UNL1       -0.0212
     14 N         -22.8746    1.1921   27.4630 N.2     1  UNL1       -0.0376
     15 C         -22.0381    2.0538   26.8165 C.2     1  UNL1        0.2095
     16 C         -23.0372    2.5571   25.5613 C.3     1  UNL1        0.0862
@<TRIPOS>BOND
     1     3     4    1
     2     4     8    1
     3     8     9    1
     4     9    10    2
     5     4    11    1
     6    10    12    1
     7    11    13    1
     8    12    13    2
     9     9    14    1
    10    14    15    2
    11    15    16    1
    12     1     2   ar
    13     2     5   ar
    14     5     6   ar
    15     6     7   ar
    16     7     3   ar
    17     3     1   ar
