@<TRIPOS>MOLECULE
No_633-gen_results/8p0m/2024-11-26-14-13-15/
 27 30 0 0 0
SMALL
GASTEIGER

@<TRIPOS>ATOM
      1 C         -28.0162   -0.8135   28.8779 C.ar    1  UNL1       -0.0034
      2 C         -27.0636   -0.1190   28.6079 C.ar    1  UNL1       -0.0178
      3 C         -27.0010    0.6913   27.4910 C.ar    1  UNL1       -0.0034
      4 C         -28.1373    0.7363   26.6350 C.ar    1  UNL1        0.0064
      5 C         -29.2360    0.0765   27.0690 C.ar    1  UNL1        0.0345
      6 C         -29.2177   -0.6429   28.1747 C.ar    1  UNL1        0.0064
      7 BR        -30.7399    0.1742   25.9746 Br      1  UNL1       -0.0490
      8 C         -25.7054   -0.2172   29.4175 C.3     1  UNL1        0.0526
      9 C         -24.8393   -1.2020   29.1655 C.3     1  UNL1        0.0526
     10 C         -24.8553   -2.2022   28.9791 C.ar    1  UNL1       -0.0178
     11 C         -26.0330   -3.0625   28.9293 C.ar    1  UNL1       -0.0039
     12 C         -25.8262   -4.5057   29.0674 C.ar    1  UNL1       -0.0003
     13 C         -24.6115   -5.0722   28.8686 C.ar    1  UNL1       -0.0000
     14 C         -23.4985   -4.3181   28.5927 C.ar    1  UNL1       -0.0003
     15 C         -23.5909   -3.0246   28.7618 C.ar    1  UNL1       -0.0039
     16 C         -23.5780   -0.3834   28.6136 C.ar    1  UNL1       -0.0178
     17 C         -23.5493    0.6695   27.8160 C.ar    1  UNL1       -0.0039
     18 C         -22.4684    1.5333   27.7862 C.ar    1  UNL1       -0.0003
     19 C         -21.2028    1.1005   28.2513 C.ar    1  UNL1       -0.0000
     20 C         -22.3007   -0.6171   29.3995 C.ar    1  UNL1       -0.0039
     21 C         -21.1709    0.1247   29.1748 C.ar    1  UNL1       -0.0003
     22 C         -25.7186    0.6104   30.6944 C.ar    1  UNL1       -0.0178
     23 C         -25.8614    1.9783   30.5066 C.ar    1  UNL1       -0.0039
     24 C         -26.4214    2.6620   31.0539 C.ar    1  UNL1       -0.0003
     25 C         -26.7514    2.2893   32.4756 C.ar    1  UNL1       -0.0000
     26 C         -26.5440    0.9823   32.8511 C.ar    1  UNL1       -0.0003
     27 C         -26.1253    0.0439   31.8659 C.ar    1  UNL1       -0.0039
@<TRIPOS>BOND
     1     5     7    1
     2     2     8    1
     3     8     9    1
     4     9    16    1
     5     8    22    1
     6     9    10    1
     7     1     2   ar
     8     2     3   ar
     9     3     4   ar
    10     4     5   ar
    11     5     6   ar
    12     6     1   ar
    13    22    23   ar
    14    23    24   ar
    15    24    25   ar
    16    25    26   ar
    17    26    27   ar
    18    27    22   ar
    19    10    11   ar
    20    11    12   ar
    21    12    13   ar
    22    13    14   ar
    23    14    15   ar
    24    15    10   ar
    25    16    17   ar
    26    17    18   ar
    27    18    19   ar
    28    19    21   ar
    29    21    20   ar
    30    20    16   ar
