@<TRIPOS>MOLECULE
No_634-gen_results/8p0m/2024-11-26-14-13-15/
 17 18 0 0 0
SMALL
GASTEIGER

@<TRIPOS>ATOM
      1 C         -28.0162   -0.8135   28.8779 C.ar    1  UNL1        0.0029
      2 C         -28.4690   -0.7850   29.8287 C.ar    1  UNL1        0.0001
      3 C         -28.1960    0.3478   28.0550 C.ar    1  UNL1        0.0350
      4 C         -29.0191    1.3501   28.3782 C.ar    1  UNL1        0.0029
      5 C         -29.4107    0.1803   30.3782 C.ar    1  UNL1        0.0000
      6 C         -29.6059    1.2495   29.6193 C.ar    1  UNL1        0.0001
      7 C         -27.4597    0.3802   26.7091 C.2     1  UNL1        0.1759
      8 C         -26.4659    1.4084   26.5648 C.3     1  UNL1        0.0743
      9 C         -25.2449    1.3279   27.3559 C.ar    1  UNL1       -0.0159
     10 C         -24.3040    2.2993   27.2314 C.ar    1  UNL1       -0.0039
     11 C         -23.0865    2.2908   27.9633 C.ar    1  UNL1       -0.0003
     12 C         -22.7829    1.1055   28.7621 C.ar    1  UNL1       -0.0000
     13 C         -23.7196    0.1211   28.8175 C.ar    1  UNL1       -0.0003
     14 C         -24.9189    0.1881   28.1423 C.ar    1  UNL1       -0.0039
     15 C         -27.0197    2.7514   26.8929 C.3     1  UNL1        0.0121
     16 C         -26.0789    1.4029   25.0545 C.3     1  UNL1        0.0121
     17 O         -27.8527   -0.3232   25.7991 O.2     1  UNL1       -0.2910
@<TRIPOS>BOND
     1     3     7    1
     2     7     8    1
     3     8     9    1
     4     8    15    1
     5     8    16    1
     6     7    17    2
     7     9    10   ar
     8    10    11   ar
     9    11    12   ar
    10    12    13   ar
    11    13    14   ar
    12    14     9   ar
    13     1     2   ar
    14     2     5   ar
    15     5     6   ar
    16     6     4   ar
    17     4     3   ar
    18     3     1   ar
