@<TRIPOS>MOLECULE
No_636-gen_results/8p0m/2024-11-26-14-13-15/
 20 21 0 0 0
SMALL
GASTEIGER

@<TRIPOS>ATOM
      1 C         -28.0162   -0.8135   28.8779 C.3     1  UNL1        0.0239
      2 C         -27.0636   -0.1189   28.6079 C.3     1  UNL1        0.0109
      3 C         -26.9716    0.7139   27.5060 C.3     1  UNL1        0.0097
      4 C         -25.8205    1.4909   27.1160 C.3     1  UNL1        0.0117
      5 C         -24.6562    1.4242   27.9180 C.3     1  UNL1        0.1039
      6 C         -24.6847    0.5901   29.0659 C.3     1  UNL1        0.0204
      7 C         -25.8099   -0.1265   29.3338 C.3     1  UNL1        0.0788
      8 C         -28.0540   -1.5468   30.1892 C.3     1  UNL1        0.1152
      9 N         -26.8785   -1.7467   30.8493 N.am    1  UNL1       -0.2054
     10 C         -25.8061   -0.9985   30.5502 C.2     1  UNL1        0.2409
     11 C         -23.4516    2.2263   27.5883 C.2     1  UNL1        0.3643
     12 O         -23.2679    2.7571   26.4898 O.co2   1  UNL1       -0.2457
     13 O         -22.3882    2.1433   28.4010 O.co2   1  UNL1       -0.2457
     14 C         -28.0856    0.8002   26.5385 C.3     1  UNL1        0.0782
     15 C         -29.1483    1.5024   26.8601 C.2     1  UNL1        0.2409
     16 C         -27.8385    0.5752   25.1803 C.3     1  UNL1        0.0096
     17 O         -29.4081    1.9677   28.0327 O.2     1  UNL1       -0.2734
     18 N         -30.1655    1.5259   25.9998 N.am    1  UNL1       -0.2035
     19 C         -31.4819    2.0370   26.2855 C.3     1  UNL1        0.1385
     20 O         -24.7392   -1.1358   31.2091 O.2     1  UNL1       -0.2734
@<TRIPOS>BOND
     1     2     3    1
     2     3     4    1
     3     4     5    1
     4     5     6    1
     5     2     7    1
     6     6     7    1
     7     1     8    1
     8     7    10    1
     9     9    10   am
    10     5    11    1
    11    11    12   ar
    12    11    13   ar
    13     3    14    1
    14    14    15    1
    15    14    16    1
    16    15    17    2
    17    15    18   am
    18    18    19    1
    19    10    20    2
    20     2     1    1
    21     8     9    1
