@<TRIPOS>MOLECULE
No_638-gen_results/8p0m/2024-11-26-14-13-15/
 30 33 0 0 0
SMALL
GASTEIGER

@<TRIPOS>ATOM
      1 C         -28.0162   -0.8135   28.8779 C.ar    1  UNL1        0.0046
      2 C         -27.0636   -0.1190   28.6079 C.ar    1  UNL1        0.0001
      3 C         -25.7923   -0.4302   29.0761 C.ar    1  UNL1        0.0000
      4 C         -24.5456    0.3494   28.8225 C.ar    1  UNL1        0.0000
      5 C         -24.6586    1.4196   27.8878 C.ar    1  UNL1        0.0000
      6 C         -23.5403    2.1791   27.5500 C.ar    1  UNL1        0.0000
      7 C         -22.2925    1.7428   28.0473 C.ar    1  UNL1        0.0000
      8 C         -22.1712    0.7079   28.9284 C.ar    1  UNL1        0.0000
      9 C         -23.3345   -0.0624   29.3081 C.ar    1  UNL1        0.0000
     10 C         -27.9466   -1.8823   29.8708 C.ar    1  UNL1        0.0554
     11 C         -29.0848   -2.6408   30.2431 C.2     1  UNL1        0.2690
     12 C         -25.5893   -1.6211   29.8789 C.ar    1  UNL1        0.0001
     13 C         -26.7012   -2.2720   30.3293 C.ar    1  UNL1        0.0046
     14 N         -29.0132   -3.9683   30.4220 N.am    1  UNL1       -0.1753
     15 C         -29.8184   -4.6738   31.2298 C.ar    1  UNL1        0.0767
     16 O         -30.0221   -2.1082   30.8047 O.2     1  UNL1       -0.2680
     17 C         -29.4263   -5.1548   32.3404 C.ar    1  UNL1        0.0168
     18 C         -30.1637   -5.4375   33.2230 C.ar    1  UNL1        0.0044
     19 C         -31.5639   -5.6359   33.0880 C.ar    1  UNL1        0.0370
     20 C         -32.0487   -5.1815   31.8417 C.ar    1  UNL1        0.1402
     21 C         -31.1494   -4.5979   30.9602 C.ar    1  UNL1        0.0535
     22 O         -33.3851   -5.1234   31.6288 O.3     1  UNL1       -0.4747
     23 C         -33.9812   -5.5687   30.6566 C.3     1  UNL1        0.1883
     24 C         -33.6245   -6.5792   29.9155 C.ar    1  UNL1        0.0172
     25 C         -32.8199   -6.4044   29.0410 C.ar    1  UNL1       -0.0008
     26 C         -31.9876   -7.4682   28.4304 C.ar    1  UNL1       -0.0002
     27 C         -32.2495   -8.7713   28.8216 C.ar    1  UNL1       -0.0000
     28 C         -33.1948   -8.9796   29.7790 C.ar    1  UNL1       -0.0002
     29 C         -33.7725   -7.9307   30.3773 C.ar    1  UNL1       -0.0008
     30 C         -35.2376   -4.8947   30.1800 C.3     1  UNL1        0.0523
@<TRIPOS>BOND
     1     3     4    1
     2    10    11    1
     3    11    14   am
     4    14    15    1
     5    11    16    2
     6    20    22    1
     7    22    23    1
     8    23    24    1
     9    23    30    1
    10    15    17   ar
    11    17    18   ar
    12    18    19   ar
    13    19    20   ar
    14    20    21   ar
    15    21    15   ar
    16    24    25   ar
    17    25    26   ar
    18    26    27   ar
    19    27    28   ar
    20    28    29   ar
    21    29    24   ar
    22     1     2   ar
    23     2     3   ar
    24     3    12   ar
    25    12    13   ar
    26    13    10   ar
    27    10     1   ar
    28     4     5   ar
    29     5     6   ar
    30     6     7   ar
    31     7     8   ar
    32     8     9   ar
    33     9     4   ar
