@<TRIPOS>MOLECULE
No_639-gen_results/8p0m/2024-11-26-14-13-15/
 17 18 0 0 0
SMALL
GASTEIGER

@<TRIPOS>ATOM
      1 C         -28.0162   -0.8135   28.8779 C.ar    1  UNL1        0.0852
      2 C         -27.0636   -0.1189   28.6079 C.ar    1  UNL1        0.1505
      3 C         -26.9716    0.7139   27.5060 C.ar    1  UNL1        0.0285
      4 C         -28.1053    0.7744   26.6421 C.ar    1  UNL1        0.0089
      5 C         -29.2008    0.1044   27.0527 C.ar    1  UNL1        0.0808
      6 C         -29.2096   -0.6029   28.1853 C.ar    1  UNL1        0.0202
      7 C         -30.3702    0.2264   26.1604 C.2     1  UNL1        0.3878
      8 O         -31.2210   -0.4630   26.3096 O.co2   1  UNL1       -0.2406
      9 O         -30.1679    0.8392   24.9395 O.co2   1  UNL1       -0.2406
     10 F         -25.8568   -0.1888   29.3781 F       1  UNL1       -0.2033
     11 CL        -28.0728   -1.8161   30.3453 Cl      1  UNL1       -0.0799
     12 C         -25.6623    1.4048   27.1295 C.ar    1  UNL1        0.0022
     13 C         -25.1738    1.6856   26.2556 C.ar    1  UNL1        0.0001
     14 C         -23.8306    2.3995   26.1497 C.ar    1  UNL1        0.0000
     15 C         -23.1922    2.5480   27.3548 C.ar    1  UNL1        0.0000
     16 C         -23.7782    2.0730   28.4743 C.ar    1  UNL1        0.0000
     17 C         -24.9852    1.5431   28.5267 C.ar    1  UNL1        0.0001
@<TRIPOS>BOND
     1     5     7    1
     2     7     8   ar
     3     7     9   ar
     4     2    10    1
     5     1    11    1
     6     3    12    1
     7    12    13   ar
     8    13    14   ar
     9    14    15   ar
    10    15    16   ar
    11    16    17   ar
    12    17    12   ar
    13     1     2   ar
    14     2     3   ar
    15     3     4   ar
    16     4     5   ar
    17     5     6   ar
    18     6     1   ar
