@<TRIPOS>MOLECULE
No_64-gen_results/8p0m/2024-11-26-14-13-15/
 18 18 0 0 0
SMALL
GASTEIGER

@<TRIPOS>ATOM
      1 C         -28.0162   -0.8135   28.8779 C.ar    1  UNL1        0.0104
      2 C         -28.4690   -0.7850   29.8287 C.ar    1  UNL1        0.0798
      3 C         -27.0871    0.2903   28.6377 C.ar    1  UNL1        0.0717
      4 C         -26.2516    0.4114   27.4223 C.3     1  UNL1        0.4186
      5 C         -28.3913    0.1041   30.9805 C.ar    1  UNL1        0.0081
      6 C         -27.5332    1.1666   30.7866 C.ar    1  UNL1        0.0201
      7 C         -26.8281    1.2557   29.6454 C.ar    1  UNL1        0.0054
      8 F         -26.0545    1.5503   27.3137 F       1  UNL1       -0.1659
      9 F         -25.1471   -0.3298   27.5523 F       1  UNL1       -0.1659
     10 F         -26.9727   -0.0291   26.3313 F       1  UNL1       -0.1659
     11 C         -29.4550   -2.0094   30.2241 C.2     1  UNL1        0.3877
     12 O         -29.0643   -3.1443   30.3969 O.co2   1  UNL1       -0.2406
     13 O         -30.6839   -1.7709   30.3859 O.co2   1  UNL1       -0.2406
     14 C         -27.3378    2.1838   31.8569 C.2     1  UNL1        0.1093
     15 N         -26.5350    2.8885   31.9622 N.2     1  UNL1       -0.1922
     16 C         -25.3743    2.9111   31.2847 C.1     1  UNL1        0.0685
     17 C         -24.4019    3.3036   31.4543 C.1     1  UNL1        0.1183
     18 O         -24.4604    4.2395   32.5075 O.3     1  UNL1       -0.1271
@<TRIPOS>BOND
     1     3     4    1
     2     4     8    1
     3     4     9    1
     4     4    10    1
     5     2    11    1
     6    11    12   ar
     7    11    13   ar
     8     6    14    1
     9    14    15    2
    10    15    16    1
    11    16    17    3
    12    17    18    1
    13     1     2   ar
    14     2     5   ar
    15     5     6   ar
    16     6     7   ar
    17     7     3   ar
    18     3     1   ar
