@<TRIPOS>MOLECULE
No_640-gen_results/8p0m/2024-11-26-14-13-15/
 13 14 0 0 0
SMALL
GASTEIGER

@<TRIPOS>ATOM
      1 C         -28.0162   -0.8135   28.8779 C.ar    1  UNL1       -0.0003
      2 C         -28.4690   -0.7850   29.8287 C.ar    1  UNL1       -0.0000
      3 C         -27.1356    0.2359   28.5352 C.ar    1  UNL1       -0.0026
      4 C         -26.8050    1.0509   29.2763 C.ar    1  UNL1       -0.0046
      5 C         -28.2372    0.1503   30.9300 C.ar    1  UNL1       -0.0003
      6 C         -27.3522    1.1239   30.6071 C.ar    1  UNL1       -0.0029
      7 C         -26.3833    0.3863   27.1651 C.2     1  UNL1       -0.0003
      8 C         -25.9668    1.1634   26.6536 C.2     1  UNL1       -0.0003
      9 C         -25.3845    2.0055   26.9256 C.2     1  UNL1       -0.0045
     10 C         -24.7565    2.2838   27.7766 C.2     1  UNL1       -0.0243
     11 C         -25.0539    2.4161   29.2418 C.3     1  UNL1        0.0495
     12 C         -25.5190    2.2227   29.2987 C.3     1  UNL1        0.1183
     13 N         -26.0063    2.8690   30.3566 N.3     1  UNL1       -0.1278
@<TRIPOS>BOND
     1     3     7    1
     2     7     8    2
     3     8     9    1
     4     9    10    2
     5    10    11    1
     6     4    12    1
     7    11    12    1
     8    12    13    1
     9     1     2   ar
    10     2     5   ar
    11     5     6   ar
    12     6     4   ar
    13     4     3   ar
    14     3     1   ar
