@<TRIPOS>MOLECULE
No_641-gen_results/8p0m/2024-11-26-14-13-15/
 19 21 0 0 0
SMALL
GASTEIGER

@<TRIPOS>ATOM
      1 C         -28.0162   -0.8135   28.8779 C.ar    1  UNL1        0.0000
      2 C         -27.0636   -0.1189   28.6079 C.ar    1  UNL1        0.0000
      3 C         -26.9716    0.7139   27.5060 C.ar    1  UNL1        0.0002
      4 C         -25.8205    1.4910   27.1160 C.ar    1  UNL1        0.0066
      5 C         -24.6562    1.4242   27.9180 C.ar    1  UNL1        0.0798
      6 C         -24.6847    0.5901   29.0659 C.ar    1  UNL1        0.0066
      7 C         -25.8099   -0.1265   29.3338 C.ar    1  UNL1        0.0002
      8 C         -28.0445   -1.5734   30.1690 C.ar    1  UNL1        0.0000
      9 C         -26.8172   -1.7595   30.8704 C.ar    1  UNL1        0.0000
     10 C         -25.7477   -0.9917   30.5376 C.ar    1  UNL1        0.0000
     11 C         -23.4587    2.2281   27.5845 C.2     1  UNL1        0.3878
     12 O         -22.3400    1.9846   28.1432 O.co2   1  UNL1       -0.2406
     13 O         -23.6155    3.3124   26.9306 O.co2   1  UNL1       -0.2406
     14 C         -28.0952    0.8093   26.5373 C.ar    1  UNL1        0.0000
     15 C         -27.9552    0.6974   25.2441 C.ar    1  UNL1        0.0000
     16 C         -29.0025    0.5171   24.3528 C.ar    1  UNL1        0.0000
     17 C         -30.2728    0.4524   24.8542 C.ar    1  UNL1        0.0000
     18 C         -30.4511    0.5468   25.9183 C.ar    1  UNL1        0.0000
     19 C         -29.4685    0.6465   27.0402 C.ar    1  UNL1        0.0000
@<TRIPOS>BOND
     1     5    11    1
     2    11    12   ar
     3    11    13   ar
     4     3    14    1
     5     2     3   ar
     6     3     4   ar
     7     4     5   ar
     8     5     6   ar
     9     6     7   ar
    10     1     2   ar
    11     2     7   ar
    12     7    10   ar
    13    10     9   ar
    14     9     8   ar
    15     8     1   ar
    16    14    15   ar
    17    15    16   ar
    18    16    17   ar
    19    17    18   ar
    20    18    19   ar
    21    19    14   ar
