@<TRIPOS>MOLECULE
No_642-gen_results/8p0m/2024-11-26-14-13-15/
 13 14 0 0 0
SMALL
GASTEIGER

@<TRIPOS>ATOM
      1 C         -28.0162   -0.8135   28.8779 C.ar    1  UNL1        0.0148
      2 C         -27.0636   -0.1189   28.6079 C.ar    1  UNL1        0.0516
      3 C         -25.7923   -0.4302   29.0761 C.ar    1  UNL1        0.0148
      4 C         -25.5756   -1.5654   29.9363 C.ar    1  UNL1        0.0013
      5 C         -26.7354   -2.3004   30.2173 C.ar    1  UNL1        0.0001
      6 C         -27.9184   -1.9537   29.7629 C.ar    1  UNL1        0.0013
      7 N         -27.1059    1.0338   27.8185 N.pl3   1  UNL1       -0.2862
      8 C         -26.2610    1.3293   26.9036 C.2     1  UNL1        0.0607
      9 C         -28.2389    1.8929   27.8972 C.3     1  UNL1        0.0956
     10 C         -25.3479    2.2931   27.1277 C.2     1  UNL1       -0.0101
     11 C         -25.4315    3.2437   27.9212 C.3     1  UNL1        0.0274
     12 C         -26.3505    3.3447   28.9429 C.3     1  UNL1        0.0065
     13 C         -27.7076    3.1043   28.7766 C.3     1  UNL1        0.0221
@<TRIPOS>BOND
     1     2     7    1
     2     7     8    1
     3     7     9    1
     4     8    10    2
     5    10    11    1
     6    11    12    1
     7     9    13    1
     8    12    13    1
     9     1     2   ar
    10     2     3   ar
    11     3     4   ar
    12     4     5   ar
    13     5     6   ar
    14     6     1   ar
