@<TRIPOS>MOLECULE
No_643-gen_results/8p0m/2024-11-26-14-13-15/
 27 29 0 0 0
SMALL
GASTEIGER

@<TRIPOS>ATOM
      1 C         -28.0162   -0.8135   28.8779 C.ar    1  UNL1        0.0376
      2 C         -27.0636   -0.1190   28.6079 C.ar    1  UNL1        0.0031
      3 C         -25.7647   -0.3897   29.0360 C.ar    1  UNL1        0.0002
      4 C         -25.5296   -1.5302   29.9014 C.ar    1  UNL1        0.0031
      5 C         -26.6888   -2.2893   30.1810 C.ar    1  UNL1        0.0376
      6 C         -27.8727   -1.9508   29.7373 C.ar    1  UNL1        0.1488
      7 C         -24.5491    0.4100   28.7341 C.ar    1  UNL1       -0.0001
      8 C         -23.3309    0.0437   29.0569 C.ar    1  UNL1       -0.0000
      9 C         -22.1994    0.8236   28.7067 C.ar    1  UNL1       -0.0001
     10 C         -22.3657    1.8184   27.6957 C.ar    1  UNL1        0.0011
     11 C         -24.6193    1.4577   27.7557 C.ar    1  UNL1        0.0011
     12 C         -23.5641    2.1491   27.3161 C.ar    1  UNL1        0.0436
     13 O         -28.9603   -2.6937   30.1050 O.3     1  UNL1       -0.4210
     14 C         -30.0757   -2.1270   30.5896 C.2     1  UNL1        0.3457
     15 C         -30.5204   -2.8267   31.7053 C.ar    1  UNL1        0.0762
     16 C         -31.6382   -2.3246   32.2773 C.ar    1  UNL1        0.0065
     17 C         -29.8719   -3.9426   32.1005 C.ar    1  UNL1        0.0130
     18 C         -30.3742   -4.7115   33.3344 C.ar    1  UNL1        0.0800
     19 C         -32.1278   -3.0800   33.4988 C.ar    1  UNL1        0.0004
     20 C         -31.4803   -4.2302   33.9467 C.ar    1  UNL1        0.0066
     21 O         -30.6004   -1.1816   30.1144 O.2     1  UNL1       -0.2445
     22 C         -23.7587    3.2680   26.3495 C.3     1  UNL1        0.3410
     23 C         -29.6418   -5.9158   33.7105 C.2     1  UNL1        0.3878
     24 O         -29.0877   -5.9723   34.6944 O.co2   1  UNL1       -0.2406
     25 O         -29.3902   -6.7708   32.6744 O.co2   1  UNL1       -0.2406
     26 F         -24.0968    4.3464   27.0238 F       1  UNL1       -0.1933
     27 F         -23.4994    3.1672   25.2179 F       1  UNL1       -0.1933
@<TRIPOS>BOND
     1     3     7    1
     2     6    13    1
     3    13    14    1
     4    14    15    1
     5    14    21    2
     6    12    22    1
     7    18    23    1
     8    23    24   ar
     9    23    25   ar
    10    22    26    1
    11    22    27    1
    12     7     8   ar
    13     8     9   ar
    14     9    10   ar
    15    10    12   ar
    16    12    11   ar
    17    11     7   ar
    18     1     2   ar
    19     2     3   ar
    20     3     4   ar
    21     4     5   ar
    22     5     6   ar
    23     6     1   ar
    24    15    16   ar
    25    16    19   ar
    26    19    20   ar
    27    20    18   ar
    28    18    17   ar
    29    17    15   ar
