@<TRIPOS>MOLECULE
No_648-gen_results/8p0m/2024-11-26-14-13-15/
 24 25 0 0 0
SMALL
GASTEIGER

@<TRIPOS>ATOM
      1 C         -28.0162   -0.8135   28.8779 C.ar    1  UNL1        0.0370
      2 C         -27.0636   -0.1189   28.6079 C.ar    1  UNL1        0.0031
      3 C         -25.7647   -0.3897   29.0360 C.ar    1  UNL1        0.0002
      4 C         -25.5296   -1.5302   29.9014 C.ar    1  UNL1        0.0031
      5 C         -26.6888   -2.2893   30.1810 C.ar    1  UNL1        0.0370
      6 C         -27.8727   -1.9508   29.7373 C.ar    1  UNL1        0.1409
      7 O         -28.9304   -2.7298   30.1154 O.3     1  UNL1       -0.4520
      8 C         -24.5394    0.4211   28.7421 C.ar    1  UNL1        0.0000
      9 C         -23.3459    0.1143   29.1690 C.ar    1  UNL1        0.0000
     10 C         -22.1936    0.8740   28.7553 C.ar    1  UNL1        0.0000
     11 C         -22.3615    1.8342   27.6952 C.ar    1  UNL1        0.0000
     12 C         -24.5980    1.3584   27.6395 C.ar    1  UNL1        0.0000
     13 C         -23.5460    2.0827   27.2326 C.ar    1  UNL1        0.0000
     14 C         -30.0628   -2.2190   30.5756 C.3     1  UNL1        0.3578
     15 C         -31.1021   -2.9170   30.2262 C.3     1  UNL1        0.4555
     16 F         -31.9521   -2.9843   30.8441 F       1  UNL1       -0.1649
     17 F         -31.5780   -2.4799   28.9803 F       1  UNL1       -0.1649
     18 N         -29.8980   -2.2596   32.0983 N.pl3   1  UNL1       -0.1907
     19 F         -30.8024   -4.2495   29.8089 F       1  UNL1       -0.1649
     20 C         -30.1241   -1.1912   32.8250 C.2     1  UNL1        0.0840
     21 C         -30.0666    0.0554   32.3769 C.2     1  UNL1        0.0172
     22 C         -29.9674    0.4410   31.2725 C.2     1  UNL1       -0.0032
     23 C         -29.8651    1.8583   30.8598 C.2     1  UNL1       -0.0257
     24 C         -29.8702    2.7307   31.8667 C.3     1  UNL1        0.0307
@<TRIPOS>BOND
     1     6     7    1
     2     3     8    1
     3     7    14    1
     4    14    15    1
     5    15    16    1
     6    15    17    1
     7    14    18    1
     8    15    19    1
     9    18    20    1
    10    20    21    2
    11    21    22    1
    12    22    23    2
    13    23    24    1
    14     1     2   ar
    15     2     3   ar
    16     3     4   ar
    17     4     5   ar
    18     5     6   ar
    19     6     1   ar
    20     8     9   ar
    21     9    10   ar
    22    10    11   ar
    23    11    13   ar
    24    13    12   ar
    25    12     8   ar
