@<TRIPOS>MOLECULE
No_649-gen_results/8p0m/2024-11-26-14-13-15/
 35 38 0 0 0
SMALL
GASTEIGER

@<TRIPOS>ATOM
      1 O         -28.1229   -1.3353   28.4874 O.2     1  UNL1       -0.2730
      2 C         -27.4806   -0.4044   28.7094 C.2     1  UNL1        0.2451
      3 C         -27.1904    0.2460   29.5268 C.3     1  UNL1        0.1039
      4 N         -26.6871   -0.0001   27.4423 N.am    1  UNL1       -0.2046
      5 C         -26.3501    1.4331   29.7418 C.3     1  UNL1        0.0267
      6 C         -25.8445    1.0999   27.3990 C.3     1  UNL1        0.1264
      7 C         -25.6695    1.8265   28.6078 C.3     1  UNL1        0.1258
      8 C         -27.8644   -0.1127   30.9563 C.ar    1  UNL1        0.0207
      9 C         -29.0650    0.7011   31.2091 C.ar    1  UNL1        0.0031
     10 C         -29.7564    0.2952   32.1326 C.ar    1  UNL1        0.0713
     11 C         -29.4451   -0.8444   33.0175 C.ar    1  UNL1        0.0070
     12 C         -28.3455   -1.5819   32.6946 C.ar    1  UNL1        0.0371
     13 C         -27.5386   -1.2424   31.6196 C.ar    1  UNL1        0.1417
     14 C         -24.7713    2.9898   28.6313 C.2     1  UNL1        0.3661
     15 O         -24.4412    3.4716   29.4970 O.co2   1  UNL1       -0.2456
     16 O         -24.3842    3.4550   27.4251 O.co2   1  UNL1       -0.2456
     17 O         -26.4964   -1.9543   31.2185 O.3     1  UNL1       -0.4538
     18 C         -30.9490    1.1519   32.6058 C.3     1  UNL1        0.4186
     19 F         -31.8796    0.9752   32.0254 F       1  UNL1       -0.1659
     20 F         -31.1863    0.8466   33.9547 F       1  UNL1       -0.1659
     21 F         -30.5909    2.4325   32.6615 F       1  UNL1       -0.1659
     22 C         -25.2143   -1.4484   31.3618 C.ar    1  UNL1        0.1450
     23 C         -24.7838   -0.7270   32.4135 C.ar    1  UNL1        0.0375
     24 C         -24.2939   -1.7367   30.2516 C.ar    1  UNL1        0.0336
     25 C         -23.3830   -1.0296   30.0124 C.ar    1  UNL1       -0.0147
     26 C         -22.7973   -0.1506   31.0613 C.ar    1  UNL1       -0.0037
     27 C         -23.6159    0.0920   32.1799 C.ar    1  UNL1        0.0028
     28 C         -22.4345   -1.1825   28.8435 C.3     1  UNL1        0.0550
     29 C         -21.7879    0.1138   28.4283 C.ar    1  UNL1        0.0097
     30 C         -22.6664    1.0918   27.8355 C.ar    1  UNL1       -0.0017
     31 C         -21.9803    2.1995   27.2635 C.ar    1  UNL1       -0.0002
     32 C         -20.4328    0.2777   28.4748 C.ar    1  UNL1        0.1365
     33 F         -19.7970   -0.7551   29.0042 F       1  UNL1       -0.2045
     34 C         -20.5743    2.2173   27.2751 C.ar    1  UNL1        0.0023
     35 C         -19.8708    1.3295   27.9051 C.ar    1  UNL1        0.0293
@<TRIPOS>BOND
     1     1     2    2
     2     2     3    1
     3     2     4   am
     4     3     5    1
     5     5     7    1
     6     6     7    1
     7     3     8    1
     8     7    14    1
     9    14    15   ar
    10    14    16   ar
    11    13    17    1
    12    10    18    1
    13    18    19    1
    14    18    20    1
    15    18    21    1
    16    17    22    1
    17    25    28    1
    18    28    29    1
    19    32    33    1
    20     6     4    1
    21    22    23   ar
    22    23    27   ar
    23    27    26   ar
    24    26    25   ar
    25    25    24   ar
    26    24    22   ar
    27    29    30   ar
    28    30    31   ar
    29    31    34   ar
    30    34    35   ar
    31    35    32   ar
    32    32    29   ar
    33     8     9   ar
    34     9    10   ar
    35    10    11   ar
    36    11    12   ar
    37    12    13   ar
    38    13     8   ar
