@<TRIPOS>MOLECULE
No_650-gen_results/8p0m/2024-11-26-14-13-15/
 19 20 0 0 0
SMALL
GASTEIGER

@<TRIPOS>ATOM
      1 C         -28.0162   -0.8135   28.8779 C.ar    1  UNL1        0.0589
      2 C         -28.4690   -0.7850   29.8287 C.ar    1  UNL1        0.1424
      3 C         -26.5042   -0.7777   28.8766 C.ar    1  UNL1        0.1387
      4 C         -25.8103   -0.8531   30.1028 C.ar    1  UNL1        0.0107
      5 C         -27.9906   -0.8916   31.2257 C.ar    1  UNL1        0.0295
      6 C         -26.6042   -0.8676   31.2652 C.ar    1  UNL1        0.0006
      7 F         -29.9222   -0.7307   29.6847 F       1  UNL1       -0.2041
      8 C         -24.3803   -0.8299   30.1524 C.3     1  UNL1        0.0662
      9 C         -23.7911    0.5294   30.1528 C.2     1  UNL1        0.0359
     10 C         -24.2213    1.5932   30.5455 C.2     1  UNL1       -0.0140
     11 C         -25.5063    1.6619   31.1710 C.3     1  UNL1        0.0529
     12 C         -25.9154    3.0490   31.6431 C.ar    1  UNL1       -0.0178
     13 C         -27.0611    3.2278   32.4167 C.ar    1  UNL1       -0.0039
     14 C         -27.4470    4.4909   32.6967 C.ar    1  UNL1       -0.0003
     15 C         -26.7802    5.6107   32.2319 C.ar    1  UNL1       -0.0000
     16 C         -25.6539    5.4612   31.4849 C.ar    1  UNL1       -0.0003
     17 C         -25.1926    4.1746   31.1740 C.ar    1  UNL1       -0.0039
     18 F         -25.7529   -0.7573   27.7744 F       1  UNL1       -0.2044
     19 CL        -22.0649    0.3985   29.5009 Cl      1  UNL1       -0.0869
@<TRIPOS>BOND
     1     2     7    1
     2     4     8    1
     3     8     9    1
     4     9    10    2
     5    10    11    1
     6     3    18    1
     7     9    19    1
     8    11    12    1
     9    12    13   ar
    10    13    14   ar
    11    14    15   ar
    12    15    16   ar
    13    16    17   ar
    14    17    12   ar
    15     1     2   ar
    16     2     5   ar
    17     5     6   ar
    18     6     4   ar
    19     4     3   ar
    20     3     1   ar
