@<TRIPOS>MOLECULE
No_652-gen_results/8p0m/2024-11-26-14-13-15/
 26 28 0 0 0
SMALL
GASTEIGER

@<TRIPOS>ATOM
      1 C         -28.0162   -0.8135   28.8779 C.ar    1  UNL1        0.0369
      2 C         -27.0636   -0.1190   28.6079 C.ar    1  UNL1        0.0031
      3 C         -25.7647   -0.3897   29.0360 C.ar    1  UNL1        0.0002
      4 C         -25.5296   -1.5303   29.9014 C.ar    1  UNL1        0.0031
      5 C         -26.6888   -2.2893   30.1810 C.ar    1  UNL1        0.0369
      6 C         -27.8727   -1.9508   29.7373 C.ar    1  UNL1        0.1386
      7 O         -28.9304   -2.7298   30.1154 O.3     1  UNL1       -0.4746
      8 C         -24.5394    0.4211   28.7421 C.ar    1  UNL1        0.0000
      9 C         -23.3459    0.1143   29.1690 C.ar    1  UNL1        0.0000
     10 C         -22.1936    0.8740   28.7554 C.ar    1  UNL1        0.0000
     11 C         -22.3615    1.8342   27.6952 C.ar    1  UNL1        0.0000
     12 C         -24.5980    1.3584   27.6395 C.ar    1  UNL1        0.0000
     13 C         -23.5460    2.0826   27.2326 C.ar    1  UNL1        0.0000
     14 C         -29.3052   -2.7582   31.4550 C.3     1  UNL1        0.2175
     15 C         -30.6792   -2.6243   31.6446 C.3     1  UNL1        0.1307
     16 C         -31.4337   -2.2524   30.6485 C.ar    1  UNL1       -0.0113
     17 C         -32.7693   -2.4195   30.7735 C.ar    1  UNL1       -0.0037
     18 C         -33.6592   -1.6053   30.0476 C.ar    1  UNL1       -0.0001
     19 C         -33.1561   -0.8818   28.9210 C.ar    1  UNL1        0.0066
     20 C         -31.7742   -0.7462   28.7530 C.ar    1  UNL1        0.0795
     21 C         -30.9200   -1.4166   29.6390 C.ar    1  UNL1        0.0028
     22 C         -31.2897    0.1309   27.6462 C.2     1  UNL1        0.3877
     23 O         -30.7688    1.1144   27.9372 O.co2   1  UNL1       -0.2406
     24 O         -31.3304   -0.3792   26.4724 O.co2   1  UNL1       -0.2406
     25 C         -31.1944   -2.9077   32.9670 C.2     1  UNL1        0.2151
     26 O         -31.0490   -4.0071   33.4279 O.2     1  UNL1       -0.2878
@<TRIPOS>BOND
     1     6     7    1
     2     3     8    1
     3     7    14    1
     4    14    15    1
     5    15    16    1
     6    20    22    1
     7    22    23   ar
     8    22    24   ar
     9    15    25    1
    10    25    26    2
    11     1     2   ar
    12     2     3   ar
    13     3     4   ar
    14     4     5   ar
    15     5     6   ar
    16     6     1   ar
    17    16    17   ar
    18    17    18   ar
    19    18    19   ar
    20    19    20   ar
    21    20    21   ar
    22    21    16   ar
    23     8     9   ar
    24     9    10   ar
    25    10    11   ar
    26    11    13   ar
    27    13    12   ar
    28    12     8   ar
