@<TRIPOS>MOLECULE
No_653-gen_results/8p0m/2024-11-26-14-13-15/
 20 22 0 0 0
SMALL
GASTEIGER

@<TRIPOS>ATOM
      1 C         -28.0162   -0.8135   28.8779 C.3     1  UNL1        0.0260
      2 C         -27.0636   -0.1189   28.6079 C.ar    1  UNL1       -0.0262
      3 C         -26.8756    1.1325   28.9134 C.ar    1  UNL1       -0.0265
      4 C         -25.6883    1.9515   28.5672 C.ar    1  UNL1        0.0020
      5 C         -24.6394    1.2834   27.8753 C.ar    1  UNL1        0.0794
      6 C         -24.8068   -0.0513   27.6040 C.ar    1  UNL1        0.0062
      7 C         -25.9020   -0.7670   27.9511 C.ar    1  UNL1       -0.0044
      8 C         -28.6392   -0.5118   30.2403 C.3     1  UNL1        0.0050
      9 C         -28.8731    0.8215   30.4840 C.3     1  UNL1        0.0041
     10 C         -27.6873    1.6637   30.0653 C.3     1  UNL1        0.0186
     11 C         -23.4738    1.9736   27.3661 C.2     1  UNL1        0.3877
     12 O         -22.3313    1.7362   27.7924 O.co2   1  UNL1       -0.2406
     13 O         -23.7019    3.1626   26.7977 O.co2   1  UNL1       -0.2406
     14 C         -30.1445    1.2539   29.9955 C.3     1  UNL1        0.0003
     15 C         -30.3497    2.1214   29.0187 C.3     1  UNL1        0.0000
     16 C         -29.5505    3.1511   28.8995 C.3     1  UNL1        0.0003
     17 C         -28.2828    3.0418   29.5756 C.3     1  UNL1        0.0040
     18 C         -26.9615    2.0923   31.4040 C.3     1  UNL1        0.0037
     19 C         -27.5873    2.4178   32.4991 C.3     1  UNL1        0.0003
     20 C         -25.4820    1.8885   31.3832 C.3     1  UNL1        0.0003
@<TRIPOS>BOND
     1     1     8    1
     2     3    10    1
     3     9    10    1
     4     5    11    1
     5    11    12   ar
     6    11    13   ar
     7     9    14    1
     8    14    15    1
     9    15    16    1
    10    10    17    1
    11    16    17    1
    12    10    18    1
    13    18    19    1
    14    18    20    1
    15     2     1    1
    16     8     9    1
    17     2     3   ar
    18     3     4   ar
    19     4     5   ar
    20     5     6   ar
    21     6     7   ar
    22     7     2   ar
