@<TRIPOS>MOLECULE
No_654-gen_results/8p0m/2024-11-26-14-13-15/
 20 21 0 0 0
SMALL
GASTEIGER

@<TRIPOS>ATOM
      1 C         -28.0162   -0.8135   28.8779 C.ar    1  UNL1        0.0115
      2 C         -28.4690   -0.7850   29.8287 C.ar    1  UNL1        0.0577
      3 C         -26.5455   -0.8762   28.8500 C.ar    1  UNL1        0.0040
      4 C         -25.8041   -1.0324   30.0571 C.ar    1  UNL1        0.0390
      5 C         -27.9437   -0.9869   31.2075 C.ar    1  UNL1        0.0115
      6 C         -26.5825   -1.0386   31.2231 C.ar    1  UNL1        0.0040
      7 CL        -30.2809   -0.7232   29.8834 Cl      1  UNL1       -0.0822
      8 C         -24.3690   -1.1186   30.0640 C.2     1  UNL1        0.1955
      9 C         -23.5954   -0.5553   29.0940 C.ar    1  UNL1        0.0386
     10 C         -22.1698   -0.5482   29.2457 C.ar    1  UNL1        0.0032
     11 C         -24.0101   -0.2257   27.8497 C.ar    1  UNL1       -0.0008
     12 C         -23.2773    0.6688   27.0179 C.ar    1  UNL1       -0.0183
     13 C         -21.3396    0.2567   28.4436 C.ar    1  UNL1       -0.0002
     14 C         -21.9278    0.9704   27.3679 C.ar    1  UNL1       -0.0040
     15 C         -23.9230    1.4087   25.9215 C.3     1  UNL1        0.0439
     16 C         -23.9692    2.8454   25.9811 C.2     1  UNL1       -0.0266
     17 C         -24.5530    0.6836   24.9873 C.3     1  UNL1        0.0094
     18 O         -23.8672   -1.6376   31.1435 O.2     1  UNL1       -0.2866
     19 C         -25.2059    3.5372   26.3142 C.2     1  UNL1       -0.0300
     20 C         -25.1145    4.8466   26.8806 C.3     1  UNL1        0.0304
@<TRIPOS>BOND
     1     2     7    1
     2     4     8    1
     3     8     9    1
     4    12    15    1
     5    15    16    1
     6    15    17    1
     7     8    18    2
     8    16    19    2
     9    19    20    1
    10     9    10   ar
    11    10    13   ar
    12    13    14   ar
    13    14    12   ar
    14    12    11   ar
    15    11     9   ar
    16     1     2   ar
    17     2     5   ar
    18     5     6   ar
    19     6     4   ar
    20     4     3   ar
    21     3     1   ar
