@<TRIPOS>MOLECULE
No_656-gen_results/8p0m/2024-11-26-14-13-15/
 35 38 0 0 0
SMALL
GASTEIGER

@<TRIPOS>ATOM
      1 C         -28.0162   -0.8135   28.8779 C.ar    1  UNL1        0.0436
      2 C         -28.4690   -0.7850   29.8287 C.ar    1  UNL1        0.0787
      3 C         -26.5455   -0.8762   28.8500 C.ar    1  UNL1        0.1418
      4 C         -25.8041   -1.0324   30.0571 C.ar    1  UNL1        0.0167
      5 C         -27.9437   -0.9869   31.2075 C.ar    1  UNL1        0.0063
      6 C         -24.4008   -1.0969   30.0965 C.3     1  UNL1        0.0558
      7 C         -26.5612   -1.0746   31.2270 C.ar    1  UNL1       -0.0007
      8 C         -23.7186    0.1121   29.8577 C.ar    1  UNL1       -0.0145
      9 C         -23.9342    1.2364   30.4826 C.ar    1  UNL1       -0.0037
     10 C         -23.4117    2.4841   30.0239 C.ar    1  UNL1        0.0030
     11 C         -22.6993    2.4501   28.8196 C.ar    1  UNL1        0.0420
     12 C         -22.8811    0.2711   28.6666 C.ar    1  UNL1        0.0381
     13 C         -22.3464    1.3566   28.2562 C.ar    1  UNL1        0.1954
     14 O         -25.8243   -0.7846   27.7071 O.3     1  UNL1       -0.4538
     15 C         -26.1762    0.0830   26.7472 C.ar    1  UNL1        0.1453
     16 C         -25.5823   -0.0541   25.4944 C.ar    1  UNL1        0.0375
     17 C         -26.8910    1.2744   26.9587 C.ar    1  UNL1        0.0375
     18 C         -27.0542    2.2128   25.9754 C.ar    1  UNL1        0.0031
     19 C         -26.5831    1.9399   24.7379 C.ar    1  UNL1        0.0002
     20 C         -25.8790    0.8332   24.4103 C.ar    1  UNL1        0.0031
     21 C         -30.0565   -0.8012   30.0544 C.2     1  UNL1        0.3414
     22 O         -30.6754   -1.4029   30.6460 O.2     1  UNL1       -0.2449
     23 O         -30.6343    0.0635   29.1495 O.3     1  UNL1       -0.4426
     24 O         -21.6393    1.4488   27.0859 O.3     1  UNL1       -0.2866
     25 C         -31.8174    0.4583   29.1895 C.3     1  UNL1        0.2419
     26 C         -32.2971    0.7012   28.0439 C.3     1  UNL1        0.2028
     27 O         -31.6576    1.2220   27.1426 O.3     1  UNL1       -0.3312
     28 C         -33.0032   -0.6093   27.3654 C.3     1  UNL1        0.2307
     29 C         -32.5679   -0.9047   26.2234 C.3     1  UNL1        0.2393
     30 C         -31.6746    0.0863   25.6627 C.3     1  UNL1        0.2408
     31 N         -31.7495    0.6701   24.4242 N.3     1  UNL1       -0.0972
     32 O         -34.4214   -0.4981   27.4829 O.2     1  UNL1       -0.4707
     33 O         -31.7991   -2.1161   26.0300 O.3     1  UNL1       -0.2149
     34 C         -35.0578   -1.3187   28.1956 C.2     1  UNL1        0.1724
     35 C         -36.1598   -1.3714   28.2701 C.2     1  UNL1        0.0433
@<TRIPOS>BOND
     1     4     6    1
     2     6     8    1
     3     3    14    1
     4    14    15    1
     5     2    21    1
     6    21    22    2
     7    21    23    1
     8    13    24    1
     9    23    25    1
    10    25    26    1
    11    26    27    1
    12    26    28    1
    13    28    29    1
    14    27    30    1
    15    29    30    1
    16    30    31    1
    17    28    32    1
    18    29    33    1
    19    32    34    1
    20    34    35    2
    21     8     9   ar
    22     9    10   ar
    23    10    11   ar
    24    11    13   ar
    25    13    12   ar
    26    12     8   ar
    27    15    16   ar
    28    16    20   ar
    29    20    19   ar
    30    19    18   ar
    31    18    17   ar
    32    17    15   ar
    33     1     2   ar
    34     2     5   ar
    35     5     7   ar
    36     7     4   ar
    37     4     3   ar
    38     3     1   ar
