@<TRIPOS>MOLECULE
No_657-gen_results/8p0m/2024-11-26-14-13-15/
 23 25 0 0 0
SMALL
GASTEIGER

@<TRIPOS>ATOM
      1 O         -28.1229   -1.3353   28.4874 O.2     1  UNL1       -0.2748
      2 C         -28.5208   -0.4363   29.0779 C.2     1  UNL1        0.2271
      3 C         -29.6977    0.0507   28.9764 C.3     1  UNL1        0.1026
      4 N         -27.7059   -0.0219   30.1625 N.am    1  UNL1       -0.2777
      5 C         -26.3949   -0.3536   30.3653 C.3     1  UNL1        0.1148
      6 C         -30.7741   -0.5406   29.5651 C.3     1  UNL1        0.0831
      7 N         -30.5852   -1.2493   30.5093 N.3     1  UNL1       -0.2578
      8 C         -31.1051   -2.1755   31.1104 C.3     1  UNL1        0.0735
      9 C         -30.5973   -2.8790   32.3061 C.3     1  UNL1        0.0175
     10 C         -29.2853   -2.4714   32.5793 C.3     1  UNL1        0.0046
     11 C         -28.7028   -1.7059   32.2252 C.3     1  UNL1        0.0368
     12 C         -29.1714   -0.9423   30.9566 C.3     1  UNL1        0.1341
     13 N         -28.9036   -0.0252   31.4440 N.pl3   1  UNL1       -0.2978
     14 C         -27.4912    1.5329   29.9771 C.3     1  UNL1        0.0952
     15 C         -28.9059    0.8025   32.2799 C.ar    1  UNL1        0.0487
     16 C         -29.5162    0.9672   30.8289 C.3     1  UNL1        0.0757
     17 C         -28.8905    2.0914   30.3531 C.3     1  UNL1        0.0413
     18 C         -30.9659    1.3266   31.0704 C.3     1  UNL1        0.0215
     19 C         -28.2627    2.0413   32.7243 C.ar    1  UNL1        0.0145
     20 C         -29.6972    0.4267   33.5353 C.ar    1  UNL1        0.0145
     21 C         -29.7107    1.1647   34.7073 C.ar    1  UNL1        0.0013
     22 C         -28.0405    2.5261   34.1116 C.ar    1  UNL1        0.0013
     23 C         -28.8128    2.0996   35.0352 C.ar    1  UNL1        0.0001
@<TRIPOS>BOND
     1     1     2    2
     2     2     3    1
     3     2     4   am
     4     4     5    1
     5     3     6    1
     6     6     7    1
     7     7     8    1
     8     9    10    1
     9     7    12    1
    10    11    12    1
    11    12    13    1
    12     4    14    1
    13    13    15    1
    14    13    16    1
    15    14    17    1
    16    16    17    1
    17    16    18    1
    18     8     9    1
    19    10    11    1
    20    15    19   ar
    21    19    22   ar
    22    22    23   ar
    23    23    21   ar
    24    21    20   ar
    25    20    15   ar
