@<TRIPOS>MOLECULE
No_658-gen_results/8p0m/2024-11-26-14-13-15/
 22 23 0 0 0
SMALL
GASTEIGER

@<TRIPOS>ATOM
      1 O         -28.1229   -1.3353   28.4874 O.2     1  UNL1       -0.2742
      2 C         -27.0637   -0.8242   28.8687 C.2     1  UNL1        0.2380
      3 C         -26.4017   -0.0623   28.6224 C.3     1  UNL1        0.1801
      4 N         -26.2652   -1.8674   29.7609 N.am    1  UNL1       -0.2521
      5 C         -25.0436    0.3924   29.0662 C.3     1  UNL1        0.0335
      6 C         -24.4726   -0.5445   29.9870 C.3     1  UNL1        0.1242
      7 C         -25.1332   -1.6696   30.2893 C.3     1  UNL1        0.1071
      8 C         -26.9105    1.1098   27.6608 C.2     1  UNL1        0.3730
      9 O         -26.2732    1.5552   26.8036 O.co2   1  UNL1       -0.2451
     10 O         -28.1693    1.3169   27.7969 O.co2   1  UNL1       -0.2451
     11 C         -27.0395   -3.0895   30.1611 C.3     1  UNL1        0.2438
     12 C         -23.0900   -0.2254   30.5004 C.2     1  UNL1        0.3660
     13 O         -22.5808    0.8376   30.2663 O.co2   1  UNL1       -0.2456
     14 O         -22.5145   -1.0410   31.3958 O.co2   1  UNL1       -0.2456
     15 C         -28.2879   -2.9871   30.8227 C.3     1  UNL1        0.0830
     16 C         -28.6512   -1.8497   31.3775 C.ar    1  UNL1       -0.0176
     17 C         -29.9103   -1.7467   32.0660 C.ar    1  UNL1       -0.0041
     18 C         -30.3662   -0.5237   32.5904 C.ar    1  UNL1       -0.0003
     19 C         -29.6206    0.6761   32.3589 C.ar    1  UNL1       -0.0000
     20 C         -28.3965    0.5650   31.6452 C.ar    1  UNL1       -0.0003
     21 C         -27.9859   -0.6393   31.2202 C.ar    1  UNL1       -0.0041
     22 F         -26.4641   -4.0953   29.7207 F       1  UNL1       -0.2144
@<TRIPOS>BOND
     1     1     2    2
     2     2     3    1
     3     2     4   am
     4     5     6    1
     5     4     7    1
     6     6     7    1
     7     3     8    1
     8     8     9   ar
     9     8    10   ar
    10     4    11    1
    11     6    12    1
    12    12    13   ar
    13    12    14   ar
    14    11    15    1
    15    11    22    1
    16    15    16    1
    17     3     5    1
    18    16    17   ar
    19    17    18   ar
    20    18    19   ar
    21    19    20   ar
    22    20    21   ar
    23    21    16   ar
