@<TRIPOS>MOLECULE
No_66-gen_results/8p0m/2024-11-26-14-13-15/
 24 27 0 0 0
SMALL
GASTEIGER

@<TRIPOS>ATOM
      1 C         -28.0162   -0.8135   28.8779 C.ar    1  UNL1        0.0000
      2 C         -27.0636   -0.1189   28.6079 C.ar    1  UNL1        0.0014
      3 C         -26.9716    0.7139   27.5060 C.ar    1  UNL1        0.0175
      4 C         -25.8205    1.4910   27.1160 C.ar    1  UNL1        0.0071
      5 C         -24.6562    1.4242   27.9180 C.ar    1  UNL1        0.0678
      6 C         -24.6847    0.5901   29.0659 C.ar    1  UNL1        0.0056
      7 C         -25.8099   -0.1265   29.3338 C.ar    1  UNL1        0.0002
      8 C         -28.0445   -1.5734   30.1690 C.ar    1  UNL1        0.0000
      9 C         -26.8173   -1.7595   30.8704 C.ar    1  UNL1        0.0000
     10 C         -25.7477   -0.9917   30.5376 C.ar    1  UNL1        0.0000
     11 C         -23.4587    2.2281   27.5845 C.2     1  UNL1        0.3334
     12 O         -23.5274    3.1694   26.8453 O.2     1  UNL1       -0.2541
     13 F         -22.5084    2.2799   28.4560 F       1  UNL1       -0.1586
     14 C         -28.0942    0.8121   26.5370 C.ar    1  UNL1        0.0775
     15 N         -27.9728    0.8080   25.3236 N.ar    1  UNL1       -0.2442
     16 C         -29.4323    0.8972   27.0394 C.ar    1  UNL1        0.0017
     17 C         -30.4235    0.9795   26.1349 C.ar    1  UNL1        0.0541
     18 C         -28.8288    0.8946   24.3609 C.ar    1  UNL1        0.0990
     19 C         -31.8034    1.0286   26.5697 C.2     1  UNL1        0.2646
     20 C         -30.0962    0.9736   24.7981 C.ar    1  UNL1        0.0249
     21 N         -32.0822    1.2293   27.7960 N.am    1  UNL1       -0.2013
     22 O         -32.6862    0.8382   25.7469 O.2     1  UNL1       -0.2684
     23 C         -31.2829    1.5722   28.8969 C.3     1  UNL1        0.1202
     24 C         -29.8520    1.3903   28.5436 C.3     1  UNL1        0.0514
@<TRIPOS>BOND
     1     5    11    1
     2    11    12    2
     3    11    13    1
     4     3    14    1
     5    17    19    1
     6    19    21   am
     7    19    22    2
     8    21    23    1
     9    16    24    1
    10    24    23    1
    11     2     3   ar
    12     3     4   ar
    13     4     5   ar
    14     5     6   ar
    15     6     7   ar
    16    14    15   ar
    17    15    18   ar
    18    18    20   ar
    19    20    17   ar
    20    17    16   ar
    21    16    14   ar
    22     1     2   ar
    23     2     7   ar
    24     7    10   ar
    25    10     9   ar
    26     9     8   ar
    27     8     1   ar
