@<TRIPOS>MOLECULE
No_660-gen_results/8p0m/2024-11-26-14-13-15/
 22 24 0 0 0
SMALL
GASTEIGER

@<TRIPOS>ATOM
      1 C         -28.0162   -0.8135   28.8779 C.ar    1  UNL1        0.0111
      2 C         -28.4690   -0.7850   29.8287 C.ar    1  UNL1        0.0577
      3 C         -26.5042   -0.7777   28.8766 C.ar    1  UNL1       -0.0031
      4 C         -25.8103   -0.8531   30.1028 C.ar    1  UNL1       -0.0184
      5 C         -27.9906   -0.8916   31.2257 C.ar    1  UNL1        0.0111
      6 C         -26.6042   -0.8676   31.2652 C.ar    1  UNL1       -0.0031
      7 CL        -30.2937   -0.8377   29.8355 Cl      1  UNL1       -0.0822
      8 C         -24.3700   -0.8208   30.1393 C.3     1  UNL1        0.0446
      9 C         -23.6317   -0.3592   29.1003 C.ar    1  UNL1       -0.0187
     10 C         -22.1856   -0.3104   29.2384 C.ar    1  UNL1       -0.0040
     11 C         -21.4360    0.2369   28.1746 C.ar    1  UNL1       -0.0006
     12 C         -22.0683    1.1431   27.3132 C.ar    1  UNL1       -0.0040
     13 C         -23.4676    1.3367   27.3406 C.ar    1  UNL1       -0.0181
     14 C         -24.2377    0.6885   28.2905 C.ar    1  UNL1       -0.0079
     15 C         -24.0096    2.3358   26.4133 C.3     1  UNL1        0.0526
     16 C         -25.0842    3.0392   26.8667 C.ar    1  UNL1       -0.0178
     17 C         -26.2508    2.3927   26.8888 C.ar    1  UNL1       -0.0039
     18 C         -27.3257    3.3284   27.3398 C.ar    1  UNL1       -0.0003
     19 C         -27.1183    4.5988   27.6942 C.ar    1  UNL1       -0.0000
     20 C         -24.9466    4.4664   27.2036 C.ar    1  UNL1       -0.0039
     21 C         -25.9476    5.2263   27.5650 C.ar    1  UNL1       -0.0003
     22 C         -23.9652   -2.3471   30.3626 C.3     1  UNL1        0.0094
@<TRIPOS>BOND
     1     2     7    1
     2     4     8    1
     3    13    15    1
     4    15    16    1
     5     8    22    1
     6     8     9    1
     7     9    10   ar
     8    10    11   ar
     9    11    12   ar
    10    12    13   ar
    11    13    14   ar
    12    14     9   ar
    13     1     2   ar
    14     2     5   ar
    15     5     6   ar
    16     6     4   ar
    17     4     3   ar
    18     3     1   ar
    19    16    17   ar
    20    17    18   ar
    21    18    19   ar
    22    19    21   ar
    23    21    20   ar
    24    20    16   ar
