@<TRIPOS>MOLECULE
No_661-gen_results/8p0m/2024-11-26-14-13-15/
 16 17 0 0 0
SMALL
GASTEIGER

@<TRIPOS>ATOM
      1 C         -28.0162   -0.8135   28.8779 C.ar    1  UNL1       -0.0000
      2 C         -28.4690   -0.7850   29.8287 C.ar    1  UNL1       -0.0000
      3 C         -28.1816    0.4277   28.1134 C.ar    1  UNL1       -0.0003
      4 C         -28.9841    1.4155   28.5154 C.ar    1  UNL1       -0.0000
      5 C         -29.3802    0.1384   30.4612 C.ar    1  UNL1       -0.0000
      6 C         -29.5415    1.2736   29.7242 C.ar    1  UNL1       -0.0000
      7 C         -27.4452    0.4872   26.7726 C.ar    1  UNL1       -0.0036
      8 C         -27.8631    0.8051   25.7558 C.ar    1  UNL1       -0.0003
      9 C         -27.0800    0.7678   24.5001 C.ar    1  UNL1       -0.0000
     10 C         -26.0298    0.1277   26.8193 C.ar    1  UNL1       -0.0178
     11 C         -25.3384   -0.1677   28.1503 C.3     1  UNL1        0.0520
     12 C         -25.7275    0.4402   24.5600 C.ar    1  UNL1       -0.0003
     13 C         -25.1850    0.1761   25.7466 C.ar    1  UNL1       -0.0039
     14 C         -24.5130    0.8410   28.6886 C.2     1  UNL1       -0.0260
     15 C         -23.7459    0.5251   29.7589 C.2     1  UNL1       -0.0300
     16 C         -22.7992    1.4235   30.3538 C.3     1  UNL1        0.0304
@<TRIPOS>BOND
     1     3     7    1
     2    10    11    1
     3    11    14    1
     4    14    15    2
     5    15    16    1
     6     7     8   ar
     7     8     9   ar
     8     9    12   ar
     9    12    13   ar
    10    13    10   ar
    11    10     7   ar
    12     1     2   ar
    13     2     5   ar
    14     5     6   ar
    15     6     4   ar
    16     4     3   ar
    17     3     1   ar
