@<TRIPOS>MOLECULE
No_662-gen_results/8p0m/2024-11-26-14-13-15/
 26 28 0 0 0
SMALL
GASTEIGER

@<TRIPOS>ATOM
      1 C         -28.0162   -0.8135   28.8779 C.3     1  UNL1        0.0437
      2 C         -27.0636   -0.1189   28.6079 C.ar    1  UNL1       -0.0208
      3 C         -26.9716    0.7139   27.5060 C.ar    1  UNL1       -0.0038
      4 C         -25.8205    1.4910   27.1160 C.ar    1  UNL1        0.0025
      5 C         -24.6562    1.4242   27.9180 C.ar    1  UNL1        0.0347
      6 C         -24.6847    0.5901   29.0659 C.ar    1  UNL1        0.0025
      7 C         -25.8099   -0.1265   29.3338 C.ar    1  UNL1       -0.0041
      8 C         -28.6943   -0.4734   30.1587 C.3     1  UNL1        0.0768
      9 N         -29.7069   -1.2924   30.6301 N.3     1  UNL1       -0.2724
     10 C         -23.4632    2.1896   27.5970 C.2     1  UNL1        0.1735
     11 C         -22.3583    1.5018   27.3120 C.3     1  UNL1        0.0773
     12 C         -29.8702   -1.6668   31.7363 C.3     1  UNL1        0.0721
     13 O         -23.6380    3.4506   27.3066 O.2     1  UNL1       -0.2913
     14 C         -30.8141   -2.6882   32.0609 C.3     1  UNL1        0.0174
     15 C         -31.1104   -3.4861   31.2703 C.3     1  UNL1        0.0029
     16 C         -30.8361   -3.2942   29.8433 C.3     1  UNL1        0.0174
     17 C         -30.1870   -2.1338   29.6023 C.3     1  UNL1        0.0721
     18 C         -28.1655    0.7995   26.6365 C.ar    1  UNL1       -0.0001
     19 C         -28.0628    0.8930   25.4041 C.ar    1  UNL1       -0.0000
     20 C         -29.1640    0.9262   24.4836 C.ar    1  UNL1        0.0002
     21 C         -30.4137    0.7517   24.9766 C.ar    1  UNL1        0.0066
     22 C         -30.5608    0.6377   26.3774 C.ar    1  UNL1        0.0798
     23 C         -29.4804    0.6363   27.2226 C.ar    1  UNL1        0.0066
     24 C         -31.9605    0.4763   26.8901 C.2     1  UNL1        0.3878
     25 O         -32.2428    0.7730   28.0197 O.co2   1  UNL1       -0.2406
     26 O         -32.7729   -0.1258   26.1355 O.co2   1  UNL1       -0.2406
@<TRIPOS>BOND
     1     1     8    1
     2     8     9    1
     3     5    10    1
     4    10    11    1
     5     9    12    1
     6    10    13    2
     7    14    15    1
     8     9    17    1
     9    16    17    1
    10     3    18    1
    11    22    24    1
    12    24    25   ar
    13    24    26   ar
    14     1     2    1
    15    12    14    1
    16    15    16    1
    17    18    19   ar
    18    19    20   ar
    19    20    21   ar
    20    21    22   ar
    21    22    23   ar
    22    23    18   ar
    23     2     3   ar
    24     3     4   ar
    25     4     5   ar
    26     5     6   ar
    27     6     7   ar
    28     7     2   ar
