@<TRIPOS>MOLECULE
No_663-gen_results/8p0m/2024-11-26-14-13-15/
 35 38 0 0 0
SMALL
GASTEIGER

@<TRIPOS>ATOM
      1 O         -28.1229   -1.3353   28.4874 O.2     1  UNL1       -0.2731
      2 C         -28.5208   -0.4363   29.0779 C.2     1  UNL1        0.2444
      3 C         -29.6977    0.0507   28.9764 C.3     1  UNL1        0.1576
      4 N         -27.5405    0.1756   30.0054 N.am    1  UNL1       -0.2741
      5 C         -27.8890    1.2664   30.8176 C.3     1  UNL1        0.0938
      6 N         -30.5287   -0.3224   28.2067 N.am    1  UNL1       -0.2350
      7 C         -30.0828    1.2815   29.8160 C.3     1  UNL1        0.0314
      8 C         -29.3828    1.7630   30.4508 C.3     1  UNL1        0.0237
      9 C         -26.2340   -0.3870   30.2204 C.3     1  UNL1        0.1199
     10 C         -25.1880    0.5886   30.3238 C.ar    1  UNL1       -0.0061
     11 C         -24.5540    0.9268   29.0791 C.ar    1  UNL1        0.0037
     12 C         -23.3935    1.5728   29.1287 C.ar    1  UNL1        0.0795
     13 C         -22.7549    1.9771   30.3395 C.ar    1  UNL1        0.0062
     14 C         -23.5479    1.7866   31.5148 C.ar    1  UNL1       -0.0043
     15 C         -24.6747    1.0247   31.4969 C.ar    1  UNL1       -0.0242
     16 C         -22.5960    1.9016   27.8691 C.2     1  UNL1        0.3877
     17 O         -21.3710    1.7894   27.8786 O.co2   1  UNL1       -0.2406
     18 O         -23.2847    2.2876   26.8592 O.co2   1  UNL1       -0.2406
     19 C         -25.3622    0.7737   32.7990 C.3     1  UNL1        0.0308
     20 C         -30.7401    0.0829   26.9504 C.ar    1  UNL1        0.0558
     21 C         -31.5996   -0.6644   26.0810 C.ar    1  UNL1        0.0150
     22 C         -30.0632    1.1734   26.3626 C.ar    1  UNL1        0.0150
     23 C         -30.2327    1.5227   25.0361 C.ar    1  UNL1        0.0013
     24 C         -31.7457   -0.3288   24.7155 C.ar    1  UNL1        0.0013
     25 C         -31.0913    0.7734   24.2391 C.ar    1  UNL1        0.0001
     26 C         -31.4040   -1.4388   28.6788 C.2     1  UNL1        0.3276
     27 O         -32.2215   -1.9764   28.1556 O.2     1  UNL1       -0.2504
     28 N         -31.3555   -1.5854   30.0908 N.am    1  UNL1       -0.1833
     29 C         -32.0179   -2.6437   30.7900 C.3     1  UNL1        0.1431
     30 C         -31.7308   -3.0938   31.6445 C.ar    1  UNL1       -0.0005
     31 C         -30.7368   -2.9545   32.1811 C.ar    1  UNL1       -0.0026
     32 C         -30.1786   -3.5650   33.4644 C.ar    1  UNL1       -0.0003
     33 C         -30.9606   -4.5273   33.9024 C.ar    1  UNL1       -0.0000
     34 C         -32.0916   -4.9407   33.3421 C.ar    1  UNL1       -0.0003
     35 C         -32.4770   -4.2626   32.2047 C.ar    1  UNL1       -0.0026
@<TRIPOS>BOND
     1     1     2    2
     2     2     3    1
     3     2     4   am
     4     4     5    1
     5     3     6    1
     6     3     7    1
     7     5     8    1
     8     4     9    1
     9     9    10    1
    10    12    16    1
    11    16    17   ar
    12    16    18   ar
    13    15    19    1
    14     6    20    1
    15     6    26   am
    16    26    27    2
    17    26    28   am
    18    28    29    1
    19    29    30    1
    20     7     8    1
    21    20    21   ar
    22    21    24   ar
    23    24    25   ar
    24    25    23   ar
    25    23    22   ar
    26    22    20   ar
    27    30    31   ar
    28    31    32   ar
    29    32    33   ar
    30    33    34   ar
    31    34    35   ar
    32    35    30   ar
    33    10    11   ar
    34    11    12   ar
    35    12    13   ar
    36    13    14   ar
    37    14    15   ar
    38    15    10   ar
