@<TRIPOS>MOLECULE
No_664-gen_results/8p0m/2024-11-26-14-13-15/
 35 38 0 0 0
SMALL
GASTEIGER

@<TRIPOS>ATOM
      1 C         -28.0162   -0.8135   28.8779 C.ar    1  UNL1        0.0024
      2 C         -28.4690   -0.7850   29.8287 C.ar    1  UNL1        0.0033
      3 C         -26.5455   -0.8762   28.8500 C.ar    1  UNL1        0.0001
      4 C         -25.6825   -0.7773   27.6829 C.ar    1  UNL1        0.0000
      5 C         -29.9909   -0.7300   29.9814 C.ar    1  UNL1        0.0398
      6 C         -24.2640   -0.7731   27.9513 C.ar    1  UNL1        0.0013
      7 C         -23.7548   -0.9500   29.2468 C.ar    1  UNL1        0.0166
      8 C         -25.6279   -1.0194   30.0116 C.ar    1  UNL1        0.0000
      9 C         -24.4691   -1.0218   30.2986 C.ar    1  UNL1        0.0013
     10 C         -30.6078   -0.5169   28.7714 C.ar    1  UNL1        0.1725
     11 C         -29.8996   -0.3236   27.6517 C.ar    1  UNL1        0.1744
     12 C         -28.5640   -0.3434   27.6651 C.ar    1  UNL1        0.0328
     13 F         -30.5138   -0.0310   26.5045 F       1  UNL1       -0.2009
     14 C         -22.1951   -0.8781   29.2495 C.2     1  UNL1        0.0886
     15 N         -21.5223    0.0728   29.1173 N.am    1  UNL1       -0.1779
     16 C         -22.1226    1.2489   28.7127 C.2     1  UNL1        0.2461
     17 C         -21.5930    1.8495   27.4155 C.3     1  UNL1        0.0968
     18 O         -23.0807    1.7546   29.3338 O.2     1  UNL1       -0.2730
     19 O         -31.9600   -0.3643   28.7353 O.3     1  UNL1       -0.4511
     20 C         -32.5430    0.7664   28.9263 C.ar    1  UNL1        0.1485
     21 C         -33.6697    0.8802   29.1312 C.ar    1  UNL1        0.0749
     22 C         -34.3201    2.1885   29.3507 C.ar    1  UNL1        0.1483
     23 C         -33.5066    3.3343   29.2747 C.ar    1  UNL1        0.0377
     24 C         -32.1575    3.1718   28.9918 C.ar    1  UNL1        0.0063
     25 C         -31.6039    1.9742   28.8393 C.ar    1  UNL1        0.0377
     26 O         -35.6307    2.3034   29.6251 O.3     1  UNL1       -0.4534
     27 C         -36.0073    2.8967   30.7250 C.ar    1  UNL1        0.1459
     28 C         -36.6167    4.0963   30.5209 C.ar    1  UNL1        0.0452
     29 C         -37.1041    4.8365   31.6859 C.ar    1  UNL1        0.0404
     30 C         -37.0851    4.1700   32.9326 C.ar    1  UNL1        0.0079
     31 C         -35.8689    2.3065   31.9720 C.ar    1  UNL1        0.0375
     32 C         -36.3993    2.9430   33.0750 C.ar    1  UNL1        0.0037
     33 C         -37.7879    6.0922   31.5067 C.1     1  UNL1       -0.0582
     34 P         -38.2993    7.0896   31.6310 P.3     1  UNL1        0.2944
     35 O         -38.8327    7.9297   31.0058 O.2     1  UNL1       -0.2901
@<TRIPOS>BOND
     1     1     3    1
     2    11    13    1
     3     7    14    1
     4    14    15    2
     5    15    16    1
     6    16    17    1
     7    16    18    2
     8    10    19    1
     9    19    20    1
    10    22    26    1
    11    26    27    1
    12    29    33    1
    13    33    34    3
    14    34    35    2
    15     3     4   ar
    16     4     6   ar
    17     6     7   ar
    18     7     9   ar
    19     9     8   ar
    20     8     3   ar
    21     1     2   ar
    22     2     5   ar
    23     5    10   ar
    24    10    11   ar
    25    11    12   ar
    26    12     1   ar
    27    27    28   ar
    28    28    29   ar
    29    29    30   ar
    30    30    32   ar
    31    32    31   ar
    32    31    27   ar
    33    20    21   ar
    34    21    22   ar
    35    22    23   ar
    36    23    24   ar
    37    24    25   ar
    38    25    20   ar
