@<TRIPOS>MOLECULE
No_665-gen_results/8p0m/2024-11-26-14-13-15/
 15 16 0 0 0
SMALL
GASTEIGER

@<TRIPOS>ATOM
      1 C         -28.0162   -0.8135   28.8779 C.ar    1  UNL1        0.0066
      2 C         -28.4690   -0.7850   29.8287 C.ar    1  UNL1        0.0798
      3 C         -28.1816    0.4277   28.1134 C.ar    1  UNL1        0.0002
      4 C         -28.9841    1.4155   28.5154 C.ar    1  UNL1        0.0000
      5 C         -28.3375   -2.0481   30.7873 C.2     1  UNL1        0.3878
      6 C         -29.5615    1.2930   29.7416 C.ar    1  UNL1        0.0002
      7 C         -30.3704    2.2942   30.2808 C.ar    1  UNL1        0.0000
      8 C         -29.2364    0.1209   30.4333 C.ar    1  UNL1        0.0066
      9 O         -27.6572   -2.0580   31.6526 O.co2   1  UNL1       -0.2406
     10 O         -28.9434   -3.1702   30.3431 O.co2   1  UNL1       -0.2406
     11 C         -31.2052    2.8493   29.7361 C.ar    1  UNL1        0.0000
     12 C         -32.0588    3.6996   30.0249 C.ar    1  UNL1        0.0000
     13 C         -32.0420    4.0737   31.4790 C.ar    1  UNL1        0.0000
     14 C         -31.1223    3.4501   32.2657 C.ar    1  UNL1        0.0000
     15 C         -30.2776    2.5323   31.7431 C.ar    1  UNL1        0.0000
@<TRIPOS>BOND
     1     2     5    1
     2     6     7    1
     3     5     9   ar
     4     5    10   ar
     5     1     2   ar
     6     2     8   ar
     7     8     6   ar
     8     6     4   ar
     9     4     3   ar
    10     3     1   ar
    11     7    11   ar
    12    11    12   ar
    13    12    13   ar
    14    13    14   ar
    15    14    15   ar
    16    15     7   ar
