@<TRIPOS>MOLECULE
No_667-gen_results/8p0m/2024-11-26-14-13-15/
 31 33 0 0 0
SMALL
GASTEIGER

@<TRIPOS>ATOM
      1 N         -28.0544   -1.0498   28.7246 N.pl3   1  UNL1       -0.2103
      2 C         -26.9659   -0.4722   28.7709 C.ar    1  UNL1        0.1017
      3 C         -25.9289   -1.0196   29.5059 C.ar    1  UNL1        0.0890
      4 C         -24.5844   -0.4437   29.6599 C.ar    1  UNL1        0.0119
      5 C         -24.3615    0.7792   28.9691 C.ar    1  UNL1        0.0820
      6 C         -25.4238    1.3029   28.1832 C.ar    1  UNL1        0.0375
      7 C         -26.6399    0.7108   28.0777 C.ar    1  UNL1        0.1554
      8 C         -28.9866   -0.6295   29.6997 C.ar    1  UNL1        0.0708
      9 C         -29.9759   -0.7430   29.8327 C.ar    1  UNL1        0.0229
     10 C         -30.8439   -0.2903   30.9437 C.ar    1  UNL1        0.0769
     11 C         -30.2160    0.4157   31.9521 C.ar    1  UNL1        0.0065
     12 C         -28.2489    0.0915   30.8004 C.ar    1  UNL1        0.0165
     13 C         -28.9282    0.5330   31.8995 C.ar    1  UNL1        0.0015
     14 C         -23.0238    1.3196   29.0326 C.2     1  UNL1        0.3878
     15 O         -22.1794    0.9347   28.2618 O.co2   1  UNL1       -0.2406
     16 O         -22.9395    2.5889   29.5240 O.co2   1  UNL1       -0.2406
     17 F         -27.6080    1.3147   27.4449 F       1  UNL1       -0.2028
     18 C         -26.0264   -2.2589   30.3631 C.3     1  UNL1        0.4199
     19 F         -26.7770   -3.1025   29.6587 F       1  UNL1       -0.1658
     20 F         -26.6994   -1.9586   31.4938 F       1  UNL1       -0.1658
     21 F         -24.8683   -2.7311   30.6004 F       1  UNL1       -0.1658
     22 C         -32.3397   -0.5395   30.9449 C.2     1  UNL1        0.3416
     23 O         -32.8998   -1.1435   30.3078 O.2     1  UNL1       -0.2449
     24 O         -33.0411    0.3315   31.7960 O.3     1  UNL1       -0.4404
     25 C         -34.3003    0.2226   31.9744 C.3     1  UNL1        0.2354
     26 C         -34.7791   -0.5309   33.0090 C.ar    1  UNL1        0.0213
     27 C         -36.0175   -0.8730   33.1286 C.ar    1  UNL1       -0.0007
     28 C         -36.5116   -1.7104   34.1961 C.ar    1  UNL1       -0.0002
     29 C         -35.5549   -2.1799   35.1489 C.ar    1  UNL1       -0.0000
     30 C         -34.2202   -1.8340   35.0071 C.ar    1  UNL1       -0.0002
     31 C         -33.7961   -1.0317   33.9965 C.ar    1  UNL1       -0.0007
@<TRIPOS>BOND
     1     1     2    1
     2     1     8    1
     3     5    14    1
     4    14    15   ar
     5    14    16   ar
     6     7    17    1
     7     3    18    1
     8    18    19    1
     9    18    20    1
    10    18    21    1
    11    10    22    1
    12    22    23    2
    13    22    24    1
    14    24    25    1
    15    25    26    1
    16    26    27   ar
    17    27    28   ar
    18    28    29   ar
    19    29    30   ar
    20    30    31   ar
    21    31    26   ar
    22     2     3   ar
    23     3     4   ar
    24     4     5   ar
    25     5     6   ar
    26     6     7   ar
    27     7     2   ar
    28     8     9   ar
    29     9    10   ar
    30    10    11   ar
    31    11    13   ar
    32    13    12   ar
    33    12     8   ar
