@<TRIPOS>MOLECULE
No_67-gen_results/8p0m/2024-11-26-14-13-15/
 13 14 0 0 0
SMALL
GASTEIGER

@<TRIPOS>ATOM
      1 C         -28.0162   -0.8135   28.8779 C.ar    1  UNL1       -0.0039
      2 C         -28.4690   -0.7850   29.8287 C.ar    1  UNL1       -0.0003
      3 C         -28.1960    0.3478   28.0550 C.ar    1  UNL1       -0.0178
      4 C         -29.0191    1.3501   28.3782 C.ar    1  UNL1       -0.0039
      5 C         -29.4107    0.1803   30.3782 C.ar    1  UNL1       -0.0000
      6 C         -29.6059    1.2495   29.6193 C.ar    1  UNL1       -0.0003
      7 C         -27.4478    0.3799   26.7122 C.3     1  UNL1        0.0526
      8 C         -25.9806    0.2548   26.7837 C.ar    1  UNL1       -0.0178
      9 C         -25.2376    1.2324   27.4671 C.ar    1  UNL1       -0.0039
     10 C         -23.8851    0.9844   27.7611 C.ar    1  UNL1       -0.0003
     11 C         -23.4878   -0.2075   28.3554 C.ar    1  UNL1       -0.0000
     12 C         -24.3928   -1.2940   28.1361 C.ar    1  UNL1       -0.0003
     13 C         -25.6367   -1.0564   27.4864 C.ar    1  UNL1       -0.0039
@<TRIPOS>BOND
     1     3     7    1
     2     7     8    1
     3     8     9   ar
     4     9    10   ar
     5    10    11   ar
     6    11    12   ar
     7    12    13   ar
     8    13     8   ar
     9     1     2   ar
    10     2     5   ar
    11     5     6   ar
    12     6     4   ar
    13     4     3   ar
    14     3     1   ar
