@<TRIPOS>MOLECULE
No_670-gen_results/8p0m/2024-11-26-14-13-15/
 35 38 0 0 0
SMALL
GASTEIGER

@<TRIPOS>ATOM
      1 C         -28.0162   -0.8135   28.8779 C.ar    1  UNL1        0.0114
      2 C         -27.0636   -0.1189   28.6079 C.ar    1  UNL1        0.0009
      3 C         -25.7647   -0.3897   29.0360 C.ar    1  UNL1        0.0002
      4 C         -24.5516    0.4058   28.7646 C.ar    1  UNL1        0.0030
      5 C         -24.6957    1.4480   27.7988 C.ar    1  UNL1        0.0369
      6 C         -23.5821    2.2166   27.4626 C.ar    1  UNL1        0.1391
      7 C         -22.3211    1.8240   27.9807 C.ar    1  UNL1        0.0369
      8 C         -22.1777    0.8172   28.8883 C.ar    1  UNL1        0.0031
      9 C         -23.3181    0.0417   29.2597 C.ar    1  UNL1        0.0002
     10 C         -27.8970   -1.8952   29.8587 C.ar    1  UNL1        0.0577
     11 C         -26.6530   -2.3395   30.2732 C.ar    1  UNL1        0.0114
     12 C         -25.5330   -1.5566   29.9092 C.ar    1  UNL1        0.0009
     13 CL        -29.2509   -2.8451   30.2832 Cl      1  UNL1       -0.0822
     14 O         -23.6555    3.1942   26.5774 O.3     1  UNL1       -0.4690
     15 C         -25.0028    3.7297   26.3927 C.3     1  UNL1        0.2508
     16 C         -25.5372    4.3413   27.2928 C.ar    1  UNL1        0.1027
     17 N         -26.7397    4.7684   27.3359 N.ar    1  UNL1       -0.2443
     18 C         -27.3114    5.3796   28.3979 C.ar    1  UNL1        0.1050
     19 C         -27.0543    5.1755   29.4780 C.ar    1  UNL1        0.0951
     20 C         -27.6591    5.7390   30.6905 C.2     1  UNL1        0.3472
     21 C         -25.8466    4.4012   29.7353 C.ar    1  UNL1        0.0094
     22 C         -25.1162    3.9520   28.6654 C.ar    1  UNL1        0.0187
     23 O         -28.6723    5.6861   30.9868 O.2     1  UNL1       -0.2444
     24 O         -26.7640    6.4062   31.5316 O.3     1  UNL1       -0.4210
     25 C         -26.0703    7.1703   31.5023 C.ar    1  UNL1        0.1500
     26 C         -24.8116    7.0300   32.0208 C.ar    1  UNL1        0.0524
     27 C         -23.7166    7.9957   31.8528 C.ar    1  UNL1        0.0547
     28 C         -23.9863    9.1149   31.0255 C.ar    1  UNL1        0.0150
     29 C         -26.2378    8.3313   30.6231 C.ar    1  UNL1        0.0377
     30 C         -25.2172    9.2857   30.4462 C.ar    1  UNL1        0.0044
     31 N         -22.5167    7.8587   32.4933 N.pl3   1  UNL1       -0.2843
     32 C         -21.4681    8.7055   32.3448 C.2     1  UNL1        0.0608
     33 C         -20.3063    8.5004   33.1560 C.2     1  UNL1       -0.0097
     34 C         -22.2332    6.7101   33.2737 C.3     1  UNL1        0.1173
     35 C         -19.2779    9.5365   33.0071 C.3     1  UNL1        0.0321
@<TRIPOS>BOND
     1     3     4    1
     2    10    13    1
     3     6    14    1
     4    14    15    1
     5    15    16    1
     6    19    20    1
     7    20    23    2
     8    20    24    1
     9    24    25    1
    10    27    31    1
    11    31    32    1
    12    32    33    2
    13    31    34    1
    14    33    35    1
    15    16    17   ar
    16    17    18   ar
    17    18    19   ar
    18    19    21   ar
    19    21    22   ar
    20    22    16   ar
    21    25    26   ar
    22    26    27   ar
    23    27    28   ar
    24    28    30   ar
    25    30    29   ar
    26    29    25   ar
    27     1     2   ar
    28     2     3   ar
    29     3    12   ar
    30    12    11   ar
    31    11    10   ar
    32    10     1   ar
    33     4     5   ar
    34     5     6   ar
    35     6     7   ar
    36     7     8   ar
    37     8     9   ar
    38     9     4   ar
