@<TRIPOS>MOLECULE
No_671-gen_results/8p0m/2024-11-26-14-13-15/
 10 10 0 0 0
SMALL
GASTEIGER

@<TRIPOS>ATOM
      1 C         -28.0162   -0.8135   28.8779 C.ar    1  UNL1        0.0089
      2 C         -28.4690   -0.7850   29.8287 C.ar    1  UNL1        0.0799
      3 C         -26.5042   -0.7777   28.8766 C.ar    1  UNL1        0.0298
      4 C         -25.8103   -0.8531   30.1028 C.ar    1  UNL1        0.1401
      5 C         -27.9906   -0.8916   31.2257 C.ar    1  UNL1        0.0089
      6 C         -26.6042   -0.8676   31.2652 C.ar    1  UNL1        0.0298
      7 F         -24.5534   -0.7870   30.1406 F       1  UNL1       -0.2042
      8 C         -30.0954   -0.8409   29.8497 C.2     1  UNL1        0.3878
      9 O         -30.7389   -1.6683   30.1743 O.co2   1  UNL1       -0.2406
     10 O         -30.6157    0.2482   29.3074 O.co2   1  UNL1       -0.2406
@<TRIPOS>BOND
     1     4     7    1
     2     2     8    1
     3     8     9   ar
     4     8    10   ar
     5     1     2   ar
     6     2     5   ar
     7     5     6   ar
     8     6     4   ar
     9     4     3   ar
    10     3     1   ar
