@<TRIPOS>MOLECULE
No_672-gen_results/8p0m/2024-11-26-14-13-15/
 35 38 0 0 0
SMALL
GASTEIGER

@<TRIPOS>ATOM
      1 C         -28.0162   -0.8135   28.8779 C.ar    1  UNL1        0.0068
      2 C         -28.4690   -0.7850   29.8287 C.ar    1  UNL1        0.0798
      3 C         -26.5455   -0.8762   28.8500 C.ar    1  UNL1        0.0066
      4 C         -25.8041   -1.0324   30.0571 C.ar    1  UNL1        0.0757
      5 C         -27.9437   -0.9869   31.2075 C.ar    1  UNL1        0.0068
      6 C         -26.5825   -1.0386   31.2231 C.ar    1  UNL1        0.0066
      7 C         -24.3810   -1.1082   30.0855 C.2     1  UNL1        0.3414
      8 O         -23.9253   -1.6271   30.8714 O.2     1  UNL1       -0.2449
      9 O         -23.7427   -0.2150   29.3151 O.3     1  UNL1       -0.4399
     10 C         -22.8788    0.6543   29.7424 C.3     1  UNL1        0.2698
     11 C         -30.0864   -0.6651   29.8701 C.2     1  UNL1        0.3878
     12 O         -30.5993    0.3018   30.4704 O.co2   1  UNL1       -0.2406
     13 O         -30.6791   -1.3104   28.9653 O.co2   1  UNL1       -0.2406
     14 C         -23.2066    2.0403   29.4631 C.3     1  UNL1        0.2858
     15 O         -24.2487    2.4434   30.0525 O.3     1  UNL1       -0.3112
     16 C         -25.2815    3.1357   29.4711 C.3     1  UNL1        0.3161
     17 C         -25.1722    3.1493   28.2119 C.3     1  UNL1        0.4130
     18 O         -23.9426    2.6437   27.8936 O.3     1  UNL1       -0.2684
     19 C         -26.6467    2.4865   30.0950 C.2     1  UNL1        0.3586
     20 F         -25.1096    4.3706   27.6912 F       1  UNL1       -0.1638
     21 O         -27.6028    2.7253   29.5082 O.2     1  UNL1       -0.2466
     22 O         -26.6028    1.8938   31.2309 O.3     1  UNL1       -0.4222
     23 C         -27.5591    2.2756   32.2122 C.ar    1  UNL1        0.1485
     24 C         -27.1610    1.8812   33.4898 C.ar    1  UNL1        0.0376
     25 C         -28.2363    1.5850   34.3551 C.ar    1  UNL1        0.0031
     26 C         -29.5411    1.8957   33.9684 C.ar    1  UNL1        0.0002
     27 C         -29.8073    2.2312   32.6383 C.ar    1  UNL1        0.0031
     28 C         -28.5243    3.1539   31.9717 C.ar    1  UNL1        0.0376
     29 O         -25.9979    2.3753   27.3553 O.3     1  UNL1       -0.4312
     30 C         -26.7687    2.7942   26.3668 C.ar    1  UNL1        0.1438
     31 C         -27.1595    1.8506   25.5177 C.ar    1  UNL1        0.0371
     32 C         -28.4109    1.9301   24.8204 C.ar    1  UNL1        0.0031
     33 C         -29.2739    2.9396   25.2519 C.ar    1  UNL1        0.0002
     34 C         -28.7929    4.0300   26.0512 C.ar    1  UNL1        0.0031
     35 C         -27.6082    3.9264   26.6196 C.ar    1  UNL1        0.0371
@<TRIPOS>BOND
     1     4     7    1
     2     7     8    2
     3     7     9    1
     4     9    10    1
     5     2    11    1
     6    11    12   ar
     7    11    13   ar
     8    10    14    1
     9    14    15    1
    10    15    16    1
    11    16    17    1
    12    14    18    1
    13    17    18    1
    14    16    19    1
    15    17    20    1
    16    19    21    2
    17    19    22    1
    18    22    23    1
    19    17    29    1
    20    29    30    1
    21    23    24   ar
    22    24    25   ar
    23    25    26   ar
    24    26    27   ar
    25    27    28   ar
    26    28    23   ar
    27    30    31   ar
    28    31    32   ar
    29    32    33   ar
    30    33    34   ar
    31    34    35   ar
    32    35    30   ar
    33     1     2   ar
    34     2     5   ar
    35     5     6   ar
    36     6     4   ar
    37     4     3   ar
    38     3     1   ar
