@<TRIPOS>MOLECULE
No_674-gen_results/8p0m/2024-11-26-14-13-15/
 25 28 0 0 0
SMALL
GASTEIGER

@<TRIPOS>ATOM
      1 C         -28.0162   -0.8135   28.8779 C.3     1  UNL1        0.0292
      2 C         -27.0636   -0.1189   28.6079 C.3     1  UNL1        0.0226
      3 C         -26.8756    1.1325   28.9134 C.3     1  UNL1        0.0749
      4 C         -25.6883    1.9515   28.5672 C.3     1  UNL1        0.0310
      5 C         -24.6394    1.2834   27.8753 C.3     1  UNL1        0.1050
      6 C         -24.8068   -0.0513   27.6040 C.3     1  UNL1        0.0114
      7 C         -25.9019   -0.7670   27.9511 C.3     1  UNL1        0.0025
      8 C         -28.6455   -0.5282   30.2428 C.ar    1  UNL1       -0.0088
      9 C         -29.5544   -1.0303   30.6491 C.ar    1  UNL1       -0.0030
     10 C         -30.1656   -0.8377   31.9377 C.ar    1  UNL1       -0.0002
     11 C         -23.4526    1.9904   27.4567 C.2     1  UNL1        0.3644
     12 C         -29.6412    0.1649   32.7471 C.ar    1  UNL1        0.0012
     13 C         -28.5026    0.8124   32.2845 C.ar    1  UNL1        0.0142
     14 C         -27.9863    0.4931   31.0987 C.ar    1  UNL1        0.0448
     15 N         -27.4548    1.5981   30.1846 N.pl3   1  UNL1       -0.2947
     16 C         -27.5235    2.9270   30.5480 C.3     1  UNL1        0.1767
     17 O         -22.3110    1.6948   27.8458 O.co2   1  UNL1       -0.2457
     18 O         -23.6375    3.0347   26.6599 O.co2   1  UNL1       -0.2457
     19 C         -28.5528    3.7178   30.0752 C.ar    1  UNL1        0.0111
     20 C         -29.5295    3.3641   29.3772 C.ar    1  UNL1       -0.0014
     21 C         -30.5024    4.1693   28.8849 C.ar    1  UNL1       -0.0002
     22 C         -30.4592    5.5074   29.2626 C.ar    1  UNL1       -0.0000
     23 C         -29.4704    5.9965   30.0313 C.ar    1  UNL1       -0.0002
     24 C         -28.4395    5.1447   30.4915 C.ar    1  UNL1       -0.0014
     25 CL        -26.2588    3.3985   31.5697 Cl      1  UNL1       -0.0877
@<TRIPOS>BOND
     1     2     3    1
     2     3     4    1
     3     4     5    1
     4     5     6    1
     5     2     7    1
     6     6     7    1
     7     1     8    1
     8     5    11    1
     9     3    15    1
    10    14    15    1
    11    15    16    1
    12    11    17   ar
    13    11    18   ar
    14    16    19    1
    15    16    25    1
    16     2     1    1
    17     8     9   ar
    18     9    10   ar
    19    10    12   ar
    20    12    13   ar
    21    13    14   ar
    22    14     8   ar
    23    19    20   ar
    24    20    21   ar
    25    21    22   ar
    26    22    23   ar
    27    23    24   ar
    28    24    19   ar
