@<TRIPOS>MOLECULE
No_675-gen_results/8p0m/2024-11-26-14-13-15/
 14 14 0 0 0
SMALL
GASTEIGER

@<TRIPOS>ATOM
      1 O         -28.1229   -1.3353   28.4874 O.2     1  UNL1       -0.2699
      2 C         -27.0637   -0.8242   28.8687 C.2     1  UNL1        0.2491
      3 C         -26.4017   -0.0623   28.6224 C.ar    1  UNL1        0.0538
      4 N         -26.3805   -1.7991   29.9619 N.am    1  UNL1       -0.2726
      5 C         -26.7771    1.0571   27.7896 C.ar    1  UNL1        0.0045
      6 C         -25.9129    1.9788   27.2177 C.ar    1  UNL1        0.0004
      7 C         -24.5242    2.0312   27.6989 C.ar    1  UNL1        0.0066
      8 C         -24.1056    1.0476   28.5575 C.ar    1  UNL1        0.0799
      9 C         -24.9060    0.0666   28.9860 C.ar    1  UNL1        0.0111
     10 C         -27.1336   -3.0436   30.2088 C.3     1  UNL1        0.1152
     11 C         -22.6547    1.0775   28.9406 C.2     1  UNL1        0.3878
     12 O         -22.3665    0.4455   29.9555 O.co2   1  UNL1       -0.2406
     13 O         -21.7344    1.2777   28.0375 O.co2   1  UNL1       -0.2406
     14 C         -26.1714   -1.2025   31.2683 C.3     1  UNL1        0.1152
@<TRIPOS>BOND
     1     1     2    2
     2     2     3    1
     3     2     4   am
     4     4    10    1
     5     8    11    1
     6    11    12   ar
     7    11    13   ar
     8     4    14    1
     9     3     5   ar
    10     5     6   ar
    11     6     7   ar
    12     7     8   ar
    13     8     9   ar
    14     9     3   ar
