@<TRIPOS>MOLECULE
No_676-gen_results/8p0m/2024-11-26-14-13-15/
 13 14 0 0 0
SMALL
GASTEIGER

@<TRIPOS>ATOM
      1 C         -28.0162   -0.8135   28.8779 C.ar    1  UNL1        0.0114
      2 C         -28.4690   -0.7850   29.8287 C.ar    1  UNL1        0.0577
      3 C         -26.5042   -0.7777   28.8766 C.ar    1  UNL1        0.0009
      4 C         -25.8103   -0.8531   30.1028 C.ar    1  UNL1        0.0001
      5 C         -27.9906   -0.8916   31.2257 C.ar    1  UNL1        0.0114
      6 C         -26.6042   -0.8676   31.2652 C.ar    1  UNL1        0.0009
      7 CL        -30.2937   -0.8377   29.8355 Cl      1  UNL1       -0.0822
      8 C         -24.3700   -0.8208   30.1393 C.ar    1  UNL1        0.0000
      9 C         -23.6623   -1.3275   30.7489 C.ar    1  UNL1        0.0000
     10 C         -23.7738    0.1466   29.1200 C.ar    1  UNL1        0.0000
     11 C         -22.3826    0.2062   28.9964 C.ar    1  UNL1        0.0000
     12 C         -22.2067   -1.2773   30.8730 C.ar    1  UNL1        0.0000
     13 C         -21.6231   -0.4908   29.8603 C.ar    1  UNL1        0.0000
@<TRIPOS>BOND
     1     2     7    1
     2     4     8    1
     3     8     9   ar
     4     9    12   ar
     5    12    13   ar
     6    13    11   ar
     7    11    10   ar
     8    10     8   ar
     9     1     2   ar
    10     2     5   ar
    11     5     6   ar
    12     6     4   ar
    13     4     3   ar
    14     3     1   ar
