@<TRIPOS>MOLECULE
No_678-gen_results/8p0m/2024-11-26-14-13-15/
 23 26 0 0 0
SMALL
GASTEIGER

@<TRIPOS>ATOM
      1 C         -28.0162   -0.8135   28.8779 C.3     1  UNL1        0.1627
      2 C         -27.0636   -0.1189   28.6079 C.ar    1  UNL1        0.0007
      3 C         -26.9716    0.7139   27.5060 C.ar    1  UNL1       -0.0068
      4 C         -25.8205    1.4909   27.1160 C.ar    1  UNL1       -0.0221
      5 C         -24.6562    1.4242   27.9180 C.ar    1  UNL1       -0.0040
      6 C         -24.6847    0.5901   29.0659 C.ar    1  UNL1       -0.0006
      7 C         -25.8099   -0.1266   29.3338 C.ar    1  UNL1       -0.0025
      8 C         -29.2444   -0.0768   29.2011 C.2     1  UNL1        0.2459
      9 C         -30.3707   -0.8034   29.6891 C.2     1  UNL1        0.2866
     10 C         -23.4608    2.1939   27.6006 C.ar    1  UNL1       -0.0003
     11 C         -22.2219    1.6760   28.1592 C.ar    1  UNL1       -0.0000
     12 C         -22.2292    0.8070   29.2408 C.ar    1  UNL1       -0.0000
     13 C         -23.4462    0.1962   29.7116 C.ar    1  UNL1       -0.0000
     14 N         -30.1290   -1.9132   30.2699 N.am    1  UNL1       -0.2609
     15 O         -31.5333   -0.5743   29.2792 O.2     1  UNL1       -0.2667
     16 C         -31.2218   -2.8582   30.6592 C.3     1  UNL1        0.0951
     17 O         -29.3602    1.1820   29.0660 O.2     1  UNL1       -0.2847
     18 C         -30.9099   -3.8130   30.9826 C.3     1  UNL1        0.0217
     19 C         -29.4856   -4.3533   31.2320 C.3     1  UNL1        0.0050
     20 C         -28.5176   -3.4642   30.8018 C.3     1  UNL1        0.0382
     21 C         -28.8041   -2.3953   30.3812 C.3     1  UNL1        0.1505
     22 N         -27.8064   -1.7146   29.7349 N.3     1  UNL1       -0.1889
     23 C         -25.8560    2.3613   25.9762 C.3     1  UNL1        0.0310
@<TRIPOS>BOND
     1     1     8    1
     2     8     9    1
     3     9    14   am
     4     9    15    2
     5    14    16    1
     6     8    17    2
     7    18    19    1
     8    14    21    1
     9    20    21    1
    10     1    22    1
    11    21    22    1
    12     4    23    1
    13     1     2    1
    14    16    18    1
    15    19    20    1
    16     6    13   ar
    17    13    12   ar
    18    12    11   ar
    19    11    10   ar
    20    10     5   ar
    21     2     3   ar
    22     3     4   ar
    23     4     5   ar
    24     5     6   ar
    25     6     7   ar
    26     7     2   ar
