@<TRIPOS>MOLECULE
No_68-gen_results/8p0m/2024-11-26-14-13-15/
 9 9 0 0 0
SMALL
GASTEIGER

@<TRIPOS>ATOM
      1 O         -28.1229   -1.3353   28.4874 O.2     1  UNL1       -0.2733
      2 C         -27.0637   -0.8242   28.8687 C.2     1  UNL1        0.2414
      3 C         -26.9592    0.0926   29.7582 C.3     1  UNL1        0.0873
      4 N         -25.8012   -1.3566   28.3971 N.am    1  UNL1       -0.2050
      5 C         -25.7368    0.7239   30.2099 C.3     1  UNL1        0.0174
      6 C         -24.6325   -0.8190   28.9102 C.3     1  UNL1        0.1211
      7 C         -24.5194    0.1968   29.7468 C.3     1  UNL1        0.0655
      8 C         -23.2417    0.7136   30.1382 C.2     1  UNL1        0.0971
      9 N         -23.1809    1.7546   30.7155 N.2     1  UNL1       -0.1514
@<TRIPOS>BOND
     1     1     2    2
     2     2     3    1
     3     2     4   am
     4     3     5    1
     5     4     6    1
     6     5     7    1
     7     7     8    1
     8     8     9    2
     9     7     6    1
