@<TRIPOS>MOLECULE
No_682-gen_results/8p0m/2024-11-26-14-13-15/
 15 16 0 0 0
SMALL
GASTEIGER

@<TRIPOS>ATOM
      1 C         -28.0162   -0.8135   28.8779 C.ar    1  UNL1        0.0066
      2 C         -27.0636   -0.1190   28.6079 C.ar    1  UNL1        0.0002
      3 C         -25.7923   -0.4302   29.0761 C.ar    1  UNL1        0.0000
      4 C         -25.5314   -1.5876   29.6105 C.ar    1  UNL1        0.0002
      5 C         -26.6366   -2.4336   29.9654 C.ar    1  UNL1        0.0066
      6 C         -27.8411   -2.0285   29.6196 C.ar    1  UNL1        0.0798
      7 C         -27.1811    1.2305   27.9191 C.ar    1  UNL1        0.0000
      8 C         -26.8135    2.2979   28.1662 C.ar    1  UNL1        0.0000
      9 C         -27.8070    1.0237   26.5519 C.ar    1  UNL1        0.0000
     10 C         -27.9237    2.0919   25.6926 C.ar    1  UNL1        0.0000
     11 C         -26.8693    3.5234   27.3814 C.ar    1  UNL1        0.0000
     12 C         -27.4720    3.3762   26.1369 C.ar    1  UNL1        0.0000
     13 C         -28.9702   -2.9103   30.0864 C.2     1  UNL1        0.3878
     14 O         -29.3031   -2.8762   31.0793 O.co2   1  UNL1       -0.2406
     15 O         -29.3526   -3.6605   29.1979 O.co2   1  UNL1       -0.2406
@<TRIPOS>BOND
     1     2     7    1
     2     6    13    1
     3    13    14   ar
     4    13    15   ar
     5     1     2   ar
     6     2     3   ar
     7     3     4   ar
     8     4     5   ar
     9     5     6   ar
    10     6     1   ar
    11     7     8   ar
    12     8    11   ar
    13    11    12   ar
    14    12    10   ar
    15    10     9   ar
    16     9     7   ar
