@<TRIPOS>MOLECULE
No_683-gen_results/8p0m/2024-11-26-14-13-15/
 27 29 0 0 0
SMALL
GASTEIGER

@<TRIPOS>ATOM
      1 C         -28.0162   -0.8135   28.8779 C.ar    1  UNL1        0.0000
      2 C         -28.4690   -0.7850   29.8287 C.ar    1  UNL1        0.0000
      3 C         -27.0871    0.2903   28.6377 C.ar    1  UNL1        0.0000
      4 C         -26.8317    1.2487   29.5869 C.ar    1  UNL1        0.0000
      5 C         -28.3914    0.0801   31.0065 C.ar    1  UNL1        0.0000
      6 C         -27.4940    1.1521   30.7841 C.ar    1  UNL1        0.0000
      7 C         -26.3109    0.3917   27.3640 C.ar    1  UNL1        0.0000
      8 C         -24.9686    0.2477   27.4806 C.ar    1  UNL1        0.0000
      9 C         -26.7177    1.3600   26.4101 C.ar    1  UNL1        0.0000
     10 C         -24.0202    0.8635   26.7161 C.ar    1  UNL1        0.0000
     11 C         -24.4457    1.6680   25.6504 C.ar    1  UNL1        0.0000
     12 C         -25.7807    1.9484   25.5228 C.ar    1  UNL1        0.0000
     13 C         -28.1107    1.6083   26.1044 C.ar    1  UNL1        0.0001
     14 C         -29.0328    0.7631   26.2817 C.ar    1  UNL1        0.0046
     15 C         -30.4122    0.9799   26.0518 C.ar    1  UNL1        0.0555
     16 C         -30.7466    2.2110   25.5692 C.ar    1  UNL1        0.0046
     17 C         -28.7013    2.9469   25.6824 C.ar    1  UNL1        0.0000
     18 C         -29.8523    3.2129   25.3700 C.ar    1  UNL1        0.0001
     19 C         -31.4033   -0.0599   26.2783 C.2     1  UNL1        0.2717
     20 O         -32.2051   -0.4544   25.7377 O.2     1  UNL1       -0.2679
     21 N         -31.0247   -0.8593   27.5119 N.am    1  UNL1       -0.1332
     22 C         -31.9028   -1.8656   28.0484 C.2     1  UNL1        0.3269
     23 C         -32.9487   -1.3187   28.7604 C.2     1  UNL1        0.3206
     24 O         -32.9568   -0.2497   29.2342 O.2     1  UNL1       -0.2633
     25 N         -34.0078   -2.1737   28.9974 N.am    1  UNL1       -0.1958
     26 C         -34.0604   -3.5286   28.5577 C.3     1  UNL1        0.1390
     27 O         -31.8463   -2.9399   27.5715 O.2     1  UNL1       -0.2629
@<TRIPOS>BOND
     1     3     7    1
     2     9    13    1
     3    15    19    1
     4    19    20    2
     5    19    21   am
     6    21    22   am
     7    22    23    1
     8    23    24    2
     9    23    25   am
    10    25    26    1
    11    22    27    2
    12    13    14   ar
    13    14    15   ar
    14    15    16   ar
    15    16    18   ar
    16    18    17   ar
    17    17    13   ar
    18     1     2   ar
    19     2     5   ar
    20     5     6   ar
    21     6     4   ar
    22     4     3   ar
    23     3     1   ar
    24     7     8   ar
    25     8    10   ar
    26    10    11   ar
    27    11    12   ar
    28    12     9   ar
    29     9     7   ar
