@<TRIPOS>MOLECULE
No_684-gen_results/8p0m/2024-11-26-14-13-15/
 22 23 0 0 0
SMALL
GASTEIGER

@<TRIPOS>ATOM
      1 C         -28.0162   -0.8135   28.8779 C.3     1  UNL1        0.0557
      2 C         -27.0636   -0.1190   28.6079 C.ar    1  UNL1       -0.0177
      3 C         -27.0010    0.6913   27.4910 C.ar    1  UNL1       -0.0039
      4 C         -25.8548    1.4825   27.0830 C.ar    1  UNL1        0.0014
      5 C         -24.6901    1.4526   27.8807 C.ar    1  UNL1        0.0249
      6 C         -23.4878    2.1451   27.6011 C.2     1  UNL1        0.1702
      7 C         -25.8122   -0.1656   29.4299 C.ar    1  UNL1       -0.0039
      8 C         -24.6456    0.5887   29.0806 C.ar    1  UNL1        0.0014
      9 C         -29.2288   -0.0950   29.4102 C.ar    1  UNL1        0.0167
     10 N         -23.4277    3.0650   26.7254 N.2     1  UNL1       -0.1421
     11 C         -22.1906    1.7153   28.1318 C.2     1  UNL1        0.3526
     12 C         -29.4407    0.9724   29.0938 C.ar    1  UNL1       -0.0009
     13 C         -30.5323    1.5861   29.0461 C.ar    1  UNL1       -0.0001
     14 C         -31.6668    0.8539   29.6439 C.ar    1  UNL1        0.0031
     15 C         -30.2972   -0.9612   29.8720 C.ar    1  UNL1        0.1419
     16 C         -31.5264   -0.4023   30.0397 C.ar    1  UNL1        0.0372
     17 O         -21.1304    2.2325   27.5288 O.2     1  UNL1       -0.2524
     18 F         -22.0791    0.8591   29.0835 F       1  UNL1       -0.1569
     19 O         -30.1076   -2.2456   30.2350 O.3     1  UNL1       -0.4472
     20 C         -29.0806   -2.6376   31.0544 C.2     1  UNL1        0.2248
     21 C         -28.4684   -3.9064   30.6610 C.2     1  UNL1        0.2747
     22 O         -28.9917   -4.9564   30.8950 O.2     1  UNL1       -0.2796
@<TRIPOS>BOND
     1     1     2    1
     2     5     6    1
     3     1     9    1
     4     6    10    2
     5     6    11    1
     6    11    17    2
     7    11    18    1
     8    15    19    1
     9    19    20    1
    10    20    21    2
    11    21    22    1
    12     2     3   ar
    13     3     4   ar
    14     4     5   ar
    15     5     8   ar
    16     8     7   ar
    17     7     2   ar
    18     9    12   ar
    19    12    13   ar
    20    13    14   ar
    21    14    16   ar
    22    16    15   ar
    23    15     9   ar
