@<TRIPOS>MOLECULE
No_685-gen_results/8p0m/2024-11-26-14-13-15/
 33 36 0 0 0
SMALL
GASTEIGER

@<TRIPOS>ATOM
      1 C         -28.0162   -0.8135   28.8779 C.ar    1  UNL1        0.0299
      2 C         -28.4690   -0.7850   29.8287 C.ar    1  UNL1        0.1403
      3 C         -27.0871    0.2903   28.6377 C.ar    1  UNL1        0.0331
      4 C         -26.2516    0.4114   27.4223 C.3     1  UNL1        0.1272
      5 C         -28.3913    0.1041   30.9805 C.ar    1  UNL1        0.0391
      6 C         -27.5332    1.1666   30.7866 C.ar    1  UNL1        0.1118
      7 C         -26.8281    1.2557   29.6454 C.ar    1  UNL1        0.1428
      8 CL        -25.3072    0.2921   27.0766 Cl      1  UNL1       -0.1052
      9 C         -27.4126    0.8368   26.2925 C.ar    1  UNL1       -0.0032
     10 C         -27.2055    0.5142   25.1167 C.ar    1  UNL1       -0.0023
     11 C         -28.1762    0.7843   24.0450 C.ar    1  UNL1        0.0064
     12 C         -29.2611    1.6221   24.3877 C.ar    1  UNL1        0.0345
     13 C         -29.4020    2.0435   25.7596 C.ar    1  UNL1        0.0064
     14 C         -28.4936    1.6511   26.7288 C.ar    1  UNL1       -0.0023
     15 F         -29.3173   -1.9507   30.0455 F       1  UNL1       -0.2042
     16 BR        -30.4399    2.1446   23.1082 Br      1  UNL1       -0.0490
     17 O         -26.0380    2.2840   29.4123 O.3     1  UNL1       -0.4707
     18 C         -24.7585    2.1082   29.9059 C.3     1  UNL1        0.2320
     19 C         -23.9644    1.0265   29.7208 C.ar    1  UNL1        0.0212
     20 C         -23.8014    0.3509   30.9536 C.ar    1  UNL1       -0.0007
     21 C         -23.1756   -0.9318   30.8844 C.ar    1  UNL1       -0.0002
     22 C         -22.6477   -1.3673   29.6602 C.ar    1  UNL1       -0.0000
     23 C         -22.6266   -0.5340   28.5644 C.ar    1  UNL1       -0.0002
     24 C         -23.3175    0.6784   28.6710 C.ar    1  UNL1       -0.0007
     25 C         -27.3306    2.1268   31.9449 C.2     1  UNL1        0.3487
     26 O         -27.7874    3.1713   32.0470 O.3     1  UNL1       -0.4210
     27 O         -26.8651    1.4795   33.0297 O.2     1  UNL1       -0.2444
     28 C         -27.2878    4.1523   32.7527 C.ar    1  UNL1        0.1488
     29 C         -27.7170    5.4422   32.6530 C.ar    1  UNL1        0.0376
     30 C         -27.1249    6.4818   33.4285 C.ar    1  UNL1        0.0031
     31 C         -26.0252    6.2405   34.2893 C.ar    1  UNL1        0.0002
     32 C         -25.5527    4.8939   34.3271 C.ar    1  UNL1        0.0031
     33 C         -26.1221    3.9212   33.5843 C.ar    1  UNL1        0.0376
@<TRIPOS>BOND
     1     3     4    1
     2     4     8    1
     3     4     9    1
     4     2    15    1
     5    12    16    1
     6     7    17    1
     7    17    18    1
     8    18    19    1
     9     6    25    1
    10    25    26    1
    11    25    27    2
    12    26    28    1
    13     9    10   ar
    14    10    11   ar
    15    11    12   ar
    16    12    13   ar
    17    13    14   ar
    18    14     9   ar
    19    28    29   ar
    20    29    30   ar
    21    30    31   ar
    22    31    32   ar
    23    32    33   ar
    24    33    28   ar
    25     1     2   ar
    26     2     5   ar
    27     5     6   ar
    28     6     7   ar
    29     7     3   ar
    30     3     1   ar
    31    19    20   ar
    32    20    21   ar
    33    21    22   ar
    34    22    23   ar
    35    23    24   ar
    36    24    19   ar
