@<TRIPOS>MOLECULE
No_686-gen_results/8p0m/2024-11-26-14-13-15/
 17 17 0 0 0
SMALL
GASTEIGER

@<TRIPOS>ATOM
      1 C         -28.0162   -0.8135   28.8779 C.ar    1  UNL1        0.0797
      2 C         -27.0636   -0.1189   28.6079 C.ar    1  UNL1        0.0028
      3 C         -26.9716    0.7139   27.5060 C.ar    1  UNL1       -0.0145
      4 C         -28.1053    0.7744   26.6421 C.ar    1  UNL1        0.0028
      5 C         -29.2041    0.1179   27.0477 C.ar    1  UNL1        0.0797
      6 C         -29.2127   -0.6088   28.1281 C.ar    1  UNL1        0.0131
      7 C         -25.7106    1.4518   27.1380 C.3     1  UNL1        0.0851
      8 P         -24.3316    1.0098   27.9169 P.3     1  UNL1        0.1216
      9 O         -23.1973    1.6642   27.2116 O.2     1  UNL1       -0.4598
     10 O         -24.4208    1.7651   29.2763 O.3     1  UNL1       -0.3569
     11 O         -24.1626   -0.3996   28.1072 O.3     1  UNL1       -0.3569
     12 C         -30.4214    0.2569   26.2124 C.2     1  UNL1        0.3877
     13 O         -30.4480    0.4515   25.1990 O.co2   1  UNL1       -0.2406
     14 O         -31.5679   -0.0363   26.8144 O.co2   1  UNL1       -0.2406
     15 C         -28.1020   -1.6885   30.1238 C.2     1  UNL1        0.3877
     16 O         -27.5062   -2.7910   30.0037 O.co2   1  UNL1       -0.2406
     17 O         -28.4710   -1.2503   31.2419 O.co2   1  UNL1       -0.2406
@<TRIPOS>BOND
     1     3     7    1
     2     7     8    1
     3     8     9    2
     4     8    10    1
     5     8    11    1
     6     5    12    1
     7    12    13   ar
     8    12    14   ar
     9     1    15    1
    10    15    16   ar
    11    15    17   ar
    12     1     2   ar
    13     2     3   ar
    14     3     4   ar
    15     4     5   ar
    16     5     6   ar
    17     6     1   ar
