@<TRIPOS>MOLECULE
No_687-gen_results/8p0m/2024-11-26-14-13-15/
 23 25 0 0 0
SMALL
GASTEIGER

@<TRIPOS>ATOM
      1 C         -28.0162   -0.8135   28.8779 C.ar    1  UNL1        0.0735
      2 C         -27.0636   -0.1190   28.6079 C.ar    1  UNL1        0.0155
      3 C         -27.0010    0.6913   27.4910 C.ar    1  UNL1        0.0045
      4 C         -28.1373    0.7363   26.6350 C.ar    1  UNL1        0.0370
      5 C         -29.2360    0.0765   27.0690 C.ar    1  UNL1        0.1400
      6 C         -29.2177   -0.6429   28.1747 C.ar    1  UNL1        0.0534
      7 O         -30.3423    0.1617   26.2790 O.3     1  UNL1       -0.4714
      8 C         -25.7291   -0.2038   29.3995 C.ar    1  UNL1        0.0015
      9 C         -24.5649    0.0857   28.8753 C.ar    1  UNL1        0.0066
     10 C         -24.5828    0.9689   27.6601 C.ar    1  UNL1        0.0798
     11 C         -25.7084    1.1929   26.9562 C.ar    1  UNL1        0.0067
     12 C         -23.2548    1.5431   27.2610 C.2     1  UNL1        0.3878
     13 O         -22.2739    1.4378   28.0375 O.co2   1  UNL1       -0.2406
     14 O         -23.1949    2.1816   26.1329 O.co2   1  UNL1       -0.2406
     15 C         -31.4787    0.2089   26.7287 C.3     1  UNL1        0.2525
     16 N         -28.1236   -1.6399   30.0412 N.pl3   1  UNL1       -0.2110
     17 C         -29.2460   -2.2800   30.4738 C.ar    1  UNL1        0.0871
     18 C         -29.4551   -3.3651   30.5934 C.ar    1  UNL1        0.1042
     19 C         -30.7300   -4.0402   30.8975 C.ar    1  UNL1        0.0194
     20 C         -31.8032   -3.1896   31.0691 C.ar    1  UNL1        0.0015
     21 C         -31.6557   -1.8604   30.8984 C.ar    1  UNL1        0.0014
     22 C         -30.4050   -1.2969   30.5882 C.ar    1  UNL1        0.0179
     23 N         -28.3598   -4.3220   30.4698 N.pl3   1  UNL1       -0.1267
@<TRIPOS>BOND
     1     5     7    1
     2    10    12    1
     3    12    13   ar
     4    12    14   ar
     5     7    15    1
     6     1    16    1
     7    18    23    1
     8    16    17    1
     9    17    18   ar
    10    18    19   ar
    11    19    20   ar
    12    20    21   ar
    13    21    22   ar
    14    22    17   ar
    15     1     2   ar
    16     3     4   ar
    17     4     5   ar
    18     5     6   ar
    19     6     1   ar
    20     2     3   ar
    21     3    11   ar
    22    11    10   ar
    23    10     9   ar
    24     9     8   ar
    25     8     2   ar
