@<TRIPOS>MOLECULE
No_688-gen_results/8p0m/2024-11-26-14-13-15/
 13 14 0 0 0
SMALL
GASTEIGER

@<TRIPOS>ATOM
      1 C         -28.0162   -0.8135   28.8779 C.ar    1  UNL1       -0.0003
      2 C         -27.0636   -0.1190   28.6079 C.ar    1  UNL1       -0.0038
      3 C         -25.7647   -0.3897   29.0360 C.ar    1  UNL1       -0.0124
      4 C         -25.5296   -1.5302   29.9014 C.ar    1  UNL1       -0.0038
      5 C         -26.6888   -2.2893   30.1810 C.ar    1  UNL1       -0.0003
      6 C         -27.8727   -1.9508   29.7373 C.ar    1  UNL1       -0.0000
      7 C         -24.5491    0.4100   28.7341 C.3     1  UNL1        0.1178
      8 C         -24.0931    1.3779   29.5761 C.2     1  UNL1        0.2478
      9 N         -23.0089    2.0595   29.1848 N.am    1  UNL1       -0.1855
     10 O         -24.7209    1.7159   30.6477 O.2     1  UNL1       -0.2729
     11 C         -22.2153    1.8098   28.0546 C.3     1  UNL1        0.2044
     12 C         -23.7689    0.1945   27.5340 C.3     1  UNL1        0.1041
     13 N         -22.6908    0.9005   27.2652 N.3     1  UNL1       -0.1951
@<TRIPOS>BOND
     1     3     7    1
     2     7     8    1
     3     8     9   am
     4     8    10    2
     5     7    12    1
     6    12    13    1
     7    13    11    1
     8    11     9    1
     9     1     2   ar
    10     2     3   ar
    11     3     4   ar
    12     4     5   ar
    13     5     6   ar
    14     6     1   ar
