@<TRIPOS>MOLECULE
No_689-gen_results/8p0m/2024-11-26-14-13-15/
 33 36 0 0 0
SMALL
GASTEIGER

@<TRIPOS>ATOM
      1 C         -28.0162   -0.8135   28.8779 C.ar    1  UNL1        0.0945
      2 C         -27.0636   -0.1189   28.6079 C.ar    1  UNL1        0.0040
      3 C         -27.0010    0.6913   27.4910 C.ar    1  UNL1       -0.0172
      4 C         -28.1373    0.7363   26.6350 C.ar    1  UNL1        0.0019
      5 C         -29.2360    0.0765   27.0690 C.ar    1  UNL1        0.0685
      6 C         -29.2177   -0.6429   28.1747 C.ar    1  UNL1        0.0804
      7 C         -30.4152    0.1590   26.1820 C.2     1  UNL1        0.2534
      8 N         -31.3727   -0.5052   26.4854 N.am    1  UNL1       -0.2306
      9 O         -30.2154    0.5174   24.9703 O.2     1  UNL1       -0.2697
     10 C         -31.6893   -1.0458   27.7694 C.3     1  UNL1        0.3386
     11 N         -30.4584   -1.2609   28.5419 N.pl3   1  UNL1       -0.1882
     12 F         -32.6640   -1.6827   28.0613 F       1  UNL1       -0.1891
     13 C         -32.6672   -0.5142   25.6103 C.3     1  UNL1        0.1194
     14 C         -25.7018    1.4113   27.0846 C.3     1  UNL1        0.0557
     15 C         -25.2602    2.4271   28.0059 C.ar    1  UNL1        0.0162
     16 C         -24.3205    2.9674   28.2545 C.ar    1  UNL1        0.1350
     17 C         -26.5110    3.1994   28.6230 C.ar    1  UNL1       -0.0009
     18 C         -26.2906    4.3220   29.4022 C.ar    1  UNL1       -0.0001
     19 C         -25.1840    4.8316   29.6198 C.ar    1  UNL1        0.0031
     20 C         -24.0299    4.2235   29.0598 C.ar    1  UNL1        0.0366
     21 O         -23.0824    2.4112   27.8003 O.3     1  UNL1       -0.4729
     22 C         -22.7179    1.1622   28.1415 C.3     1  UNL1        0.2408
     23 C         -21.4160    1.0818   28.7550 C.3     1  UNL1        0.2292
     24 O         -21.0722   -0.2398   29.0308 O.3     1  UNL1       -0.2162
     25 C         -28.0425   -1.6151   30.1646 C.2     1  UNL1        0.3890
     26 O         -28.4012   -1.3253   31.1735 O.co2   1  UNL1       -0.2405
     27 O         -27.6738   -2.8848   29.8268 O.co2   1  UNL1       -0.2405
     28 C         -27.6030    4.9255   29.9742 C.ar    1  UNL1       -0.0000
     29 C         -28.7665    4.4923   29.7559 C.ar    1  UNL1       -0.0000
     30 C         -29.9165    4.9942   30.3263 C.ar    1  UNL1       -0.0000
     31 C         -29.7909    6.0870   31.1692 C.ar    1  UNL1        0.0000
     32 C         -28.6077    6.6204   31.4555 C.ar    1  UNL1       -0.0000
     33 C         -27.4500    6.0459   30.8896 C.ar    1  UNL1       -0.0000
@<TRIPOS>BOND
     1     5     7    1
     2     7     8   am
     3     7     9    2
     4     8    10    1
     5     6    11    1
     6    10    11    1
     7    10    12    1
     8     8    13    1
     9     3    14    1
    10    14    15    1
    11    16    21    1
    12    21    22    1
    13    22    23    1
    14    23    24    1
    15     1    25    1
    16    25    26   ar
    17    25    27   ar
    18    18    28    1
    19    28    29   ar
    20    29    30   ar
    21    30    31   ar
    22    31    32   ar
    23    32    33   ar
    24    33    28   ar
    25     1     2   ar
    26     2     3   ar
    27     3     4   ar
    28     4     5   ar
    29     5     6   ar
    30     6     1   ar
    31    15    16   ar
    32    16    20   ar
    33    20    19   ar
    34    19    18   ar
    35    18    17   ar
    36    17    15   ar
