@<TRIPOS>MOLECULE
No_69-gen_results/8p0m/2024-11-26-14-13-15/
 7 7 0 0 0
SMALL
GASTEIGER

@<TRIPOS>ATOM
      1 C         -28.0162   -0.8135   28.8779 C.ar    1  UNL1        0.1957
      2 C         -27.0636   -0.1190   28.6079 C.ar    1  UNL1        0.0420
      3 C         -27.0010    0.6913   27.4910 C.ar    1  UNL1        0.0033
      4 C         -28.1420    0.8282   26.7994 C.ar    1  UNL1        0.0002
      5 C         -29.2898   -0.4871   28.3661 C.ar    1  UNL1        0.0420
      6 C         -29.2849    0.2608   27.2623 C.ar    1  UNL1        0.0033
      7 O         -27.9695   -1.5863   30.0599 O.3     1  UNL1       -0.2866
@<TRIPOS>BOND
     1     1     7    1
     2     1     2   ar
     3     2     3   ar
     4     3     4   ar
     5     4     6   ar
     6     6     5   ar
     7     5     1   ar
