@<TRIPOS>MOLECULE
No_690-gen_results/8p0m/2024-11-26-14-13-15/
 11 11 0 0 0
SMALL
GASTEIGER

@<TRIPOS>ATOM
      1 C         -28.0162   -0.8135   28.8779 C.3     1  UNL1        0.0523
      2 C         -27.0636   -0.1189   28.6079 C.ar    1  UNL1       -0.0178
      3 C         -26.8756    1.1325   28.9134 C.ar    1  UNL1       -0.0039
      4 C         -25.6883    1.9515   28.5672 C.ar    1  UNL1       -0.0003
      5 C         -24.6394    1.2834   27.8753 C.ar    1  UNL1       -0.0000
      6 C         -24.8181   -0.0802   27.6166 C.ar    1  UNL1       -0.0003
      7 C         -25.9311   -0.7717   27.9696 C.ar    1  UNL1       -0.0039
      8 C         -28.0898   -1.4945   30.2341 C.2     1  UNL1       -0.0214
      9 C         -29.2073   -2.2991   30.6512 C.2     1  UNL1       -0.0042
     10 C         -30.3614   -2.0537   30.0100 C.2     1  UNL1       -0.0003
     11 C         -30.4489   -1.1712   28.9719 C.2     1  UNL1       -0.0000
@<TRIPOS>BOND
     1     1     8    1
     2     8     9    2
     3     9    10    1
     4    10    11    2
     5     1     2    1
     6     2     3   ar
     7     3     4   ar
     8     4     5   ar
     9     5     6   ar
    10     6     7   ar
    11     7     2   ar
