@<TRIPOS>MOLECULE
No_692-gen_results/8p0m/2024-11-26-14-13-15/
 13 13 0 0 0
SMALL
GASTEIGER

@<TRIPOS>ATOM
      1 C         -28.0162   -0.8135   28.8779 C.ar    1  UNL1        0.0104
      2 C         -28.4690   -0.7850   29.8287 C.ar    1  UNL1        0.0797
      3 C         -27.1356    0.2359   28.5352 C.ar    1  UNL1        0.0716
      4 C         -26.8745    1.2825   29.3982 C.ar    1  UNL1        0.0039
      5 C         -28.3613    0.1987   30.9244 C.ar    1  UNL1        0.0066
      6 C         -27.5277    1.2234   30.6356 C.ar    1  UNL1        0.0002
      7 C         -26.3987    0.2949   27.2279 C.3     1  UNL1        0.4186
      8 F         -25.4359   -0.3066   27.2689 F       1  UNL1       -0.1659
      9 F         -26.0878    1.5926   26.8408 F       1  UNL1       -0.1659
     10 F         -27.2528   -0.0994   26.1880 F       1  UNL1       -0.1659
     11 C         -29.3972   -2.0023   30.3295 C.2     1  UNL1        0.3877
     12 O         -28.9874   -3.1331   30.3897 O.co2   1  UNL1       -0.2406
     13 O         -30.6936   -1.8233   30.3594 O.co2   1  UNL1       -0.2406
@<TRIPOS>BOND
     1     3     7    1
     2     7     8    1
     3     7     9    1
     4     7    10    1
     5     2    11    1
     6    11    12   ar
     7    11    13   ar
     8     1     2   ar
     9     2     5   ar
    10     5     6   ar
    11     6     4   ar
    12     4     3   ar
    13     3     1   ar
