@<TRIPOS>MOLECULE
No_694-gen_results/8p0m/2024-11-26-14-13-15/
 10 10 0 0 0
SMALL
GASTEIGER

@<TRIPOS>ATOM
      1 F         -28.0727   -1.2542   28.5316 F       1  UNL1       -0.2032
      2 C         -28.2662   -0.4214   29.1931 C.ar    1  UNL1        0.1529
      3 C         -29.4445    0.0759   29.3394 C.ar    1  UNL1        0.0610
      4 C         -29.7073    1.1743   30.2277 C.ar    1  UNL1        0.1529
      5 C         -28.5970    1.7109   30.9110 C.ar    1  UNL1        0.0860
      6 C         -27.3024    1.1821   30.7905 C.ar    1  UNL1        0.0273
      7 C         -27.1217    0.1218   29.9802 C.ar    1  UNL1        0.0860
      8 CL        -25.5877   -0.5373   29.8164 Cl      1  UNL1       -0.0799
      9 F         -30.9196    1.6719   30.3503 F       1  UNL1       -0.2032
     10 CL        -28.7759    3.0431   32.0040 Cl      1  UNL1       -0.0799
@<TRIPOS>BOND
     1     1     2    1
     2     7     8    1
     3     4     9    1
     4     5    10    1
     5     2     3   ar
     6     3     4   ar
     7     4     5   ar
     8     5     6   ar
     9     6     7   ar
    10     7     2   ar
