@<TRIPOS>MOLECULE
No_695-gen_results/8p0m/2024-11-26-14-13-15/
 13 13 0 0 0
SMALL
GASTEIGER

@<TRIPOS>ATOM
      1 C         -28.0162   -0.8135   28.8779 C.ar    1  UNL1        0.0079
      2 C         -27.0636   -0.1190   28.6079 C.ar    1  UNL1        0.0460
      3 C         -25.7923   -0.4302   29.0761 C.ar    1  UNL1        0.0308
      4 C         -25.5756   -1.5654   29.9363 C.ar    1  UNL1        0.1402
      5 C         -26.7354   -2.3004   30.2173 C.ar    1  UNL1        0.0362
      6 C         -27.9184   -1.9537   29.7629 C.ar    1  UNL1        0.0819
      7 C         -29.0732   -2.7835   30.1783 C.2     1  UNL1        0.3878
      8 O         -29.3220   -2.7952   31.3885 O.co2   1  UNL1       -0.2406
      9 O         -29.3381   -3.8869   29.5126 O.co2   1  UNL1       -0.2406
     10 C         -27.0897    1.1082   27.7484 C.3     1  UNL1        0.3411
     11 F         -28.1404    1.3173   27.2773 F       1  UNL1       -0.1933
     12 F         -26.0704    1.6284   27.2458 F       1  UNL1       -0.1933
     13 F         -24.3946   -1.8294   30.3489 F       1  UNL1       -0.2042
@<TRIPOS>BOND
     1     6     7    1
     2     7     8   ar
     3     7     9   ar
     4     2    10    1
     5    10    11    1
     6    10    12    1
     7     4    13    1
     8     1     2   ar
     9     2     3   ar
    10     3     4   ar
    11     4     5   ar
    12     5     6   ar
    13     6     1   ar
