@<TRIPOS>MOLECULE
No_699-gen_results/8p0m/2024-11-26-14-13-15/
 14 15 0 0 0
SMALL
GASTEIGER

@<TRIPOS>ATOM
      1 C         -28.0162   -0.8135   28.8779 C.ar    1  UNL1        0.0066
      2 C         -28.4690   -0.7850   29.8287 C.ar    1  UNL1        0.0798
      3 C         -26.5042   -0.7777   28.8766 C.ar    1  UNL1       -0.0001
      4 C         -25.8103   -0.8531   30.1028 C.ar    1  UNL1       -0.0043
      5 C         -27.9906   -0.8916   31.2257 C.ar    1  UNL1        0.0066
      6 C         -26.6042   -0.8676   31.2652 C.ar    1  UNL1       -0.0001
      7 C         -24.3894   -0.8049   30.1638 C.2     1  UNL1       -0.0264
      8 C         -23.6350   -0.8621   29.1472 C.2     1  UNL1       -0.0304
      9 C         -22.1747   -0.6734   29.2132 C.3     1  UNL1        0.0261
     10 C         -23.6708    0.1976   30.9737 C.3     1  UNL1        0.0264
     11 C         -22.1827    0.0982   30.3707 C.3     1  UNL1        0.0093
     12 C         -30.0928   -0.7694   29.8353 C.2     1  UNL1        0.3878
     13 O         -30.6963    0.1149   30.5064 O.co2   1  UNL1       -0.2406
     14 O         -30.6591   -1.5648   29.0947 O.co2   1  UNL1       -0.2406
@<TRIPOS>BOND
     1     4     7    1
     2     7     8    2
     3     8     9    1
     4     7    10    1
     5     9    11    1
     6    10    11    1
     7     2    12    1
     8    12    13   ar
     9    12    14   ar
    10     1     2   ar
    11     2     5   ar
    12     5     6   ar
    13     6     4   ar
    14     4     3   ar
    15     3     1   ar
