@<TRIPOS>MOLECULE
No_7-gen_results/8p0m/2024-11-26-14-13-15/
 35 36 0 0 0
SMALL
GASTEIGER

@<TRIPOS>ATOM
      1 C         -28.0162   -0.8135   28.8779 C.ar    1  UNL1        0.0096
      2 C         -28.4690   -0.7850   29.8287 C.ar    1  UNL1        0.0759
      3 C         -26.5042   -0.7777   28.8766 C.ar    1  UNL1        0.0377
      4 C         -25.8103   -0.8531   30.1028 C.ar    1  UNL1        0.1448
      5 C         -27.9906   -0.8916   31.2257 C.ar    1  UNL1        0.0096
      6 C         -26.6042   -0.8676   31.2652 C.ar    1  UNL1        0.0377
      7 O         -24.5004   -0.7818   30.1446 O.3     1  UNL1       -0.4577
      8 C         -23.6886   -1.2456   29.3147 C.2     1  UNL1        0.1234
      9 C         -30.0995   -0.8277   29.8680 C.2     1  UNL1        0.3416
     10 O         -30.7304   -1.6946   30.2421 O.2     1  UNL1       -0.2449
     11 O         -30.6377    0.2155   29.3236 O.3     1  UNL1       -0.4380
     12 C         -22.3761   -0.6207   29.2617 C.2     1  UNL1        0.0395
     13 C         -23.9344   -2.3666   28.5632 C.3     1  UNL1        0.0725
     14 C         -21.9312    0.3397   28.7419 C.2     1  UNL1        0.0825
     15 C         -20.5834    0.5621   28.2579 C.2     1  UNL1        0.0069
     16 C         -22.9065    1.4400   28.3693 C.2     1  UNL1        0.3878
     17 O         -22.5254    2.3455   27.4719 O.co2   1  UNL1       -0.2406
     18 O         -23.9550    1.5873   28.9069 O.co2   1  UNL1       -0.2406
     19 C         -31.8994    0.2771   28.9035 C.3     1  UNL1        0.2632
     20 C         -32.2053   -0.2290   27.6846 C.2     1  UNL1        0.1519
     21 CL        -32.9720   -1.4764   27.3146 Cl      1  UNL1       -0.0650
     22 N         -31.5287    0.3800   26.6015 N.am    1  UNL1       -0.1681
     23 C         -31.5896   -0.1616   25.3072 C.2     1  UNL1        0.2498
     24 C         -30.3409   -0.5340   24.7524 C.3     1  UNL1        0.1002
     25 C         -29.2336   -0.3394   25.2265 C.2     1  UNL1       -0.0216
     26 C         -28.5885    0.7940   24.9699 C.2     1  UNL1       -0.0256
     27 C         -27.6444    1.3625   25.4638 C.ar    1  UNL1       -0.0043
     28 C         -27.3030    1.9398   26.4764 C.ar    1  UNL1       -0.0003
     29 C         -26.0466    2.5500   26.8645 C.ar    1  UNL1       -0.0000
     30 C         -25.0238    2.2637   25.9963 C.ar    1  UNL1       -0.0000
     31 C         -25.1666    1.5013   24.8570 C.ar    1  UNL1       -0.0000
     32 C         -26.4025    1.0281   24.5855 C.ar    1  UNL1       -0.0003
     33 C         -29.3698    1.7521   24.1332 C.3     1  UNL1        0.0307
     34 O         -32.6403   -0.1142   24.7640 O.2     1  UNL1       -0.2726
     35 C         -30.5019   -1.5477   23.6933 C.3     1  UNL1        0.0144
@<TRIPOS>BOND
     1     4     7    1
     2     7     8    1
     3     2     9    1
     4     9    10    2
     5     9    11    1
     6     8    12    2
     7     8    13    1
     8    12    14    1
     9    14    15    2
    10    14    16    1
    11    16    17   ar
    12    16    18   ar
    13    11    19    1
    14    19    20    1
    15    20    21    1
    16    20    22    2
    17    22    23    1
    18    23    24    1
    19    24    25    1
    20    25    26    2
    21    26    27    1
    22    26    33    1
    23    23    34    2
    24    24    35    1
    25    27    28   ar
    26    28    29   ar
    27    29    30   ar
    28    30    31   ar
    29    31    32   ar
    30    32    27   ar
    31     1     2   ar
    32     2     5   ar
    33     5     6   ar
    34     6     4   ar
    35     4     3   ar
    36     3     1   ar
