@<TRIPOS>MOLECULE
No_70-gen_results/8p0m/2024-11-26-14-13-15/
 26 28 0 0 0
SMALL
GASTEIGER

@<TRIPOS>ATOM
      1 C         -28.0162   -0.8135   28.8779 C.3     1  UNL1        0.0613
      2 C         -27.0636   -0.1189   28.6079 C.3     1  UNL1        0.0076
      3 C         -26.8756    1.1325   28.9134 C.3     1  UNL1        0.0122
      4 C         -25.6883    1.9515   28.5672 C.3     1  UNL1        0.1141
      5 C         -24.6394    1.2834   27.8753 C.3     1  UNL1        0.1141
      6 C         -23.4556    1.9996   27.5653 C.2     1  UNL1        0.3649
      7 C         -25.7633   -0.7885   28.1430 C.3     1  UNL1        0.0010
      8 C         -24.6284   -0.0980   27.7264 C.3     1  UNL1        0.0118
      9 O         -22.9705    2.0713   26.5004 O.co2   1  UNL1       -0.2457
     10 O         -22.7183    2.4748   28.6164 O.co2   1  UNL1       -0.2457
     11 C         -28.0154   -1.2787   30.3423 C.3     1  UNL1        0.0076
     12 C         -28.9982   -1.1914   31.0891 C.3     1  UNL1        0.0046
     13 C         -29.9738   -1.1158   30.8528 C.3     1  UNL1        0.0513
     14 C         -30.3735   -0.8527   29.5017 C.3     1  UNL1        0.2223
     15 C         -29.3307   -0.3783   28.6983 C.2     1  UNL1        0.1898
     16 O         -29.6144    0.0750   27.4453 O.2     1  UNL1       -0.2923
     17 O         -31.5960   -0.4943   29.0744 O.3     1  UNL1       -0.4718
     18 C         -25.6647    3.3783   28.7900 C.2     1  UNL1        0.3649
     19 O         -25.8141    3.7181   29.8761 O.co2   1  UNL1       -0.2457
     20 O         -25.9666    4.1194   27.7286 O.co2   1  UNL1       -0.2457
     21 C         -32.0971    0.5937   29.1378 C.ar    1  UNL1        0.1390
     22 C         -32.5947    1.0929   28.1361 C.ar    1  UNL1        0.0369
     23 C         -33.1158    2.4923   28.1530 C.ar    1  UNL1        0.0031
     24 C         -33.1026    3.1801   29.3776 C.ar    1  UNL1        0.0002
     25 C         -32.5025    2.5590   30.4728 C.ar    1  UNL1        0.0031
     26 C         -31.9562    1.3442   30.3948 C.ar    1  UNL1        0.0369
@<TRIPOS>BOND
     1     2     3    1
     2     3     4    1
     3     4     5    1
     4     5     6    1
     5     2     7    1
     6     5     8    1
     7     7     8    1
     8     6     9   ar
     9     6    10   ar
    10     1    11    1
    11    11    12    1
    12    12    13    1
    13     1    15    1
    14    14    15    1
    15    15    16    2
    16    14    17    1
    17     4    18    1
    18    18    19   ar
    19    18    20   ar
    20    17    21    1
    21     2     1    1
    22    13    14    1
    23    21    22   ar
    24    22    23   ar
    25    23    24   ar
    26    24    25   ar
    27    25    26   ar
    28    26    21   ar
