@<TRIPOS>MOLECULE
No_701-gen_results/8p0m/2024-11-26-14-13-15/
 26 29 0 0 0
SMALL
GASTEIGER

@<TRIPOS>ATOM
      1 C         -28.0162   -0.8135   28.8779 C.ar    1  UNL1        0.0298
      2 C         -27.0636   -0.1190   28.6079 C.ar    1  UNL1        0.0066
      3 C         -27.0010    0.6913   27.4910 C.ar    1  UNL1        0.0538
      4 C         -25.8548    1.4825   27.0830 C.ar    1  UNL1        0.0057
      5 C         -24.6901    1.4526   27.8807 C.ar    1  UNL1        0.0437
      6 C         -24.7379    0.6010   29.0416 C.ar    1  UNL1        0.0011
      7 C         -25.8234   -0.1688   29.3887 C.ar    1  UNL1        0.0001
      8 C         -28.0376   -1.5350   30.2052 C.ar    1  UNL1        0.1401
      9 C         -26.8472   -1.6620   30.9516 C.ar    1  UNL1        0.0296
     10 C         -25.7455   -0.9236   30.5912 C.ar    1  UNL1        0.0023
     11 C         -23.5005    2.2219   27.5437 C.3     1  UNL1        0.3410
     12 F         -23.5986    2.8563   26.5959 F       1  UNL1       -0.1933
     13 F         -22.3779    1.9592   28.0540 F       1  UNL1       -0.1933
     14 F         -28.9819   -2.3578   30.5880 F       1  UNL1       -0.2042
     15 C         -28.1314    0.8013   26.5543 C.2     1  UNL1        0.2527
     16 O         -28.1539    0.5352   25.4111 O.2     1  UNL1       -0.2696
     17 N         -29.2195    1.4893   27.0652 N.am    1  UNL1       -0.2555
     18 C         -30.4432    1.6588   26.3362 C.3     1  UNL1        0.0988
     19 C         -31.3740    2.2347   27.0690 C.3     1  UNL1        0.0266
     20 C         -31.2573    2.5120   28.4044 C.3     1  UNL1        0.0294
     21 C         -30.0495    2.2693   29.1074 C.ar    1  UNL1       -0.0084
     22 C         -29.0491    1.7449   28.4869 C.ar    1  UNL1        0.0501
     23 C         -29.9175    2.4106   30.5886 C.ar    1  UNL1       -0.0030
     24 C         -28.7019    2.2789   31.2171 C.ar    1  UNL1       -0.0002
     25 C         -27.5691    2.0711   30.3391 C.ar    1  UNL1        0.0013
     26 C         -27.8190    1.8312   29.0717 C.ar    1  UNL1        0.0146
@<TRIPOS>BOND
     1     5    11    1
     2    11    12    1
     3    11    13    1
     4     8    14    1
     5     3    15    1
     6    15    16    2
     7    15    17   am
     8    17    18    1
     9    19    20    1
    10    17    22    1
    11    18    19    1
    12    20    21    1
    13     2     3   ar
    14     3     4   ar
    15     4     5   ar
    16     5     6   ar
    17     6     7   ar
    18     1     2   ar
    19     2     7   ar
    20     7    10   ar
    21    10     9   ar
    22     9     8   ar
    23     8     1   ar
    24    21    22   ar
    25    22    26   ar
    26    26    25   ar
    27    25    24   ar
    28    24    23   ar
    29    23    21   ar
