@<TRIPOS>MOLECULE
No_703-gen_results/8p0m/2024-11-26-14-13-15/
 19 21 0 0 0
SMALL
GASTEIGER

@<TRIPOS>ATOM
      1 C         -28.0162   -0.8135   28.8779 C.ar    1  UNL1        0.0375
      2 C         -27.0636   -0.1189   28.6079 C.ar    1  UNL1        0.1454
      3 C         -26.9287    1.1713   29.0083 C.ar    1  UNL1        0.0375
      4 C         -27.9560    1.7411   29.7840 C.ar    1  UNL1        0.0031
      5 C         -29.0569   -0.3271   29.7466 C.ar    1  UNL1        0.0031
      6 C         -28.9828    0.9722   30.1516 C.ar    1  UNL1        0.0002
      7 O         -25.9911   -0.6119   27.8566 O.3     1  UNL1       -0.4522
      8 C         -24.9038   -1.1483   28.5775 C.2     1  UNL1        0.1615
      9 C         -23.7733   -0.9238   28.7488 C.2     1  UNL1        0.0348
     10 C         -25.2670   -2.5528   29.1249 C.2     1  UNL1        0.1306
     11 C         -23.1847    0.4310   28.3210 C.2     1  UNL1       -0.0135
     12 C         -21.8336    0.7493   28.5075 C.2     1  UNL1       -0.0041
     13 C         -21.3396    1.9890   28.0678 C.2     1  UNL1       -0.0042
     14 C         -22.2307    2.7516   27.3235 C.2     1  UNL1       -0.0177
     15 C         -23.7268    1.4808   27.5065 C.3     1  UNL1        0.0659
     16 N         -24.3041   -3.2812   29.4920 N.2     1  UNL1       -0.2608
     17 C         -22.9438   -1.8839   29.4192 C.3     1  UNL1        0.1548
     18 C         -24.5805    1.9226   26.6734 C.2     1  UNL1       -0.0177
     19 C         -24.5078    2.8871   26.1938 C.2     1  UNL1       -0.0042
@<TRIPOS>BOND
     1     2     7    1
     2     7     8    1
     3     8     9    2
     4     8    10    1
     5     9    11    1
     6    11    12    2
     7    12    13    1
     8    13    14    2
     9    11    15    1
    10    14    15    1
    11    10    16    2
    12     9    17    1
    13    16    17    1
    14    15    18    1
    15    18    19    2
    16     1     2   ar
    17     2     3   ar
    18     3     4   ar
    19     4     6   ar
    20     6     5   ar
    21     5     1   ar
