@<TRIPOS>MOLECULE
No_704-gen_results/8p0m/2024-11-26-14-13-15/
 16 17 0 0 0
SMALL
GASTEIGER

@<TRIPOS>ATOM
      1 C         -28.0162   -0.8135   28.8779 C.ar    1  UNL1       -0.0000
      2 C         -28.4690   -0.7850   29.8287 C.ar    1  UNL1       -0.0000
      3 C         -27.0871    0.2903   28.6377 C.ar    1  UNL1       -0.0003
      4 C         -26.8317    1.2487   29.5869 C.ar    1  UNL1       -0.0000
      5 C         -28.3914    0.0801   31.0065 C.ar    1  UNL1       -0.0000
      6 C         -27.4940    1.1521   30.7841 C.ar    1  UNL1       -0.0000
      7 C         -26.3109    0.3918   27.3640 C.ar    1  UNL1       -0.0037
      8 C         -26.7673    1.0252   26.3723 C.ar    1  UNL1       -0.0184
      9 C         -24.9987   -0.1757   27.3492 C.ar    1  UNL1       -0.0003
     10 C         -28.0335    1.5623   26.2720 C.3     1  UNL1        0.0443
     11 C         -25.9518    1.0620   25.1066 C.ar    1  UNL1       -0.0040
     12 C         -24.5391    0.6447   25.1327 C.ar    1  UNL1       -0.0003
     13 C         -24.1737   -0.0385   26.2843 C.ar    1  UNL1       -0.0000
     14 C         -28.9236    1.1645   25.3608 C.3     1  UNL1        0.0094
     15 C         -28.4436    2.6000   27.1803 C.2     1  UNL1       -0.0221
     16 C         -27.8378    3.7421   27.2946 C.2     1  UNL1       -0.0046
@<TRIPOS>BOND
     1     3     7    1
     2     8    10    1
     3    10    14    1
     4    10    15    1
     5    15    16    2
     6     7     8   ar
     7     8    11   ar
     8    11    12   ar
     9    12    13   ar
    10    13     9   ar
    11     9     7   ar
    12     1     2   ar
    13     2     5   ar
    14     5     6   ar
    15     6     4   ar
    16     4     3   ar
    17     3     1   ar
