@<TRIPOS>MOLECULE
No_707-gen_results/8p0m/2024-11-26-14-13-15/
 13 13 0 0 0
SMALL
GASTEIGER

@<TRIPOS>ATOM
      1 C         -28.0162   -0.8135   28.8779 C.ar    1  UNL1        0.0067
      2 C         -28.4690   -0.7850   29.8287 C.ar    1  UNL1        0.0798
      3 C         -26.5042   -0.7777   28.8766 C.ar    1  UNL1        0.0050
      4 C         -25.8103   -0.8531   30.1028 C.ar    1  UNL1        0.0575
      5 C         -27.9906   -0.8916   31.2257 C.ar    1  UNL1        0.0067
      6 C         -26.6042   -0.8676   31.2652 C.ar    1  UNL1        0.0050
      7 C         -24.4452   -0.9530   30.3506 C.2     1  UNL1        0.2749
      8 N         -23.8789   -0.6380   31.3091 N.2     1  UNL1       -0.2319
      9 O         -23.6579   -1.3406   29.3260 O.2     1  UNL1       -0.2656
     10 C         -22.3837   -0.6528   31.5632 C.3     1  UNL1        0.1551
     11 C         -30.0862   -0.8196   29.9851 C.2     1  UNL1        0.3878
     12 O         -30.6180   -1.8676   30.0791 O.co2   1  UNL1       -0.2406
     13 O         -30.7261    0.2631   29.7974 O.co2   1  UNL1       -0.2406
@<TRIPOS>BOND
     1     4     7    1
     2     7     8    2
     3     7     9    1
     4     8    10    1
     5     2    11    1
     6    11    12   ar
     7    11    13   ar
     8     1     2   ar
     9     2     5   ar
    10     5     6   ar
    11     6     4   ar
    12     4     3   ar
    13     3     1   ar
