@<TRIPOS>MOLECULE
No_708-gen_results/8p0m/2024-11-26-14-13-15/
 8 8 0 0 0
SMALL
GASTEIGER

@<TRIPOS>ATOM
      1 C         -28.0162   -0.8135   28.8779 C.ar    1  UNL1        0.0716
      2 C         -27.0636   -0.1189   28.6079 C.ar    1  UNL1        0.1433
      3 C         -25.7923   -0.4302   29.0761 C.ar    1  UNL1        0.0298
      4 C         -25.5756   -1.5654   29.9363 C.ar    1  UNL1        0.0056
      5 C         -26.7354   -2.3004   30.2173 C.ar    1  UNL1        0.0422
      6 C         -27.9184   -1.9537   29.7629 C.ar    1  UNL1        0.1980
      7 F         -27.1354    0.9934   27.8754 F       1  UNL1       -0.2041
      8 O         -29.0003   -2.7255   30.1200 O.3     1  UNL1       -0.2865
@<TRIPOS>BOND
     1     2     7    1
     2     6     8    1
     3     1     2   ar
     4     2     3   ar
     5     3     4   ar
     6     4     5   ar
     7     5     6   ar
     8     6     1   ar
