@<TRIPOS>MOLECULE
No_710-gen_results/8p0m/2024-11-26-14-13-15/
 18 18 0 0 0
SMALL
GASTEIGER

@<TRIPOS>ATOM
      1 C         -28.0162   -0.8135   28.8779 C.ar    1  UNL1        0.0697
      2 C         -27.0636   -0.1190   28.6079 C.ar    1  UNL1        0.0683
      3 C         -27.0010    0.6913   27.4910 C.ar    1  UNL1        0.0138
      4 C         -28.1373    0.7363   26.6350 C.ar    1  UNL1        0.0200
      5 C         -29.2360    0.0765   27.0690 C.ar    1  UNL1        0.0822
      6 C         -29.2177   -0.6429   28.1747 C.ar    1  UNL1        0.0313
      7 CL        -28.0253   -1.7815   30.3211 Cl      1  UNL1       -0.0813
      8 N         -30.3564    0.1438   26.2451 N.2     1  UNL1       -0.2438
      9 CL        -25.5272   -0.2028   29.5632 Cl      1  UNL1       -0.0814
     10 C         -30.2770   -0.0423   24.9101 C.2     1  UNL1        0.0989
     11 C         -30.0434   -0.9007   24.4059 C.2     1  UNL1        0.0220
     12 C         -29.9872   -2.2004   25.0612 C.2     1  UNL1        0.0195
     13 C         -31.2578   -2.6767   25.2647 C.2     1  UNL1        0.0890
     14 N         -32.1071   -2.5149   26.0776 N.am    1  UNL1       -0.1741
     15 C         -32.9785   -2.9992   26.5430 C.2     1  UNL1        0.2692
     16 C         -33.2406   -3.6286   27.4021 C.2     1  UNL1        0.0598
     17 C         -32.1928   -3.7462   28.3590 C.2     1  UNL1        0.0049
     18 O         -34.1434   -2.7798   25.6653 O.2     1  UNL1       -0.2680
@<TRIPOS>BOND
     1     1     7    1
     2     5     8    1
     3     2     9    1
     4     8    10    2
     5    10    11    1
     6    11    12    2
     7    12    13    1
     8    13    14    2
     9    14    15    1
    10    15    16    1
    11    16    17    2
    12    15    18    2
    13     1     2   ar
    14     2     3   ar
    15     3     4   ar
    16     4     5   ar
    17     5     6   ar
    18     6     1   ar
