@<TRIPOS>MOLECULE
No_711-gen_results/8p0m/2024-11-26-14-13-15/
 17 18 0 0 0
SMALL
GASTEIGER

@<TRIPOS>ATOM
      1 C         -28.0162   -0.8135   28.8779 C.ar    1  UNL1       -0.0007
      2 C         -27.0636   -0.1189   28.6079 C.ar    1  UNL1       -0.0002
      3 C         -25.7647   -0.3897   29.0360 C.ar    1  UNL1       -0.0000
      4 C         -25.5296   -1.5302   29.9014 C.ar    1  UNL1       -0.0002
      5 C         -26.6577   -2.2915   30.2035 C.ar    1  UNL1       -0.0007
      6 C         -27.8548   -1.9555   29.7630 C.ar    1  UNL1        0.0212
      7 C         -24.5349    0.4128   28.7431 C.ar    1  UNL1       -0.0000
      8 C         -24.4835    1.2431   27.7398 C.ar    1  UNL1       -0.0000
      9 C         -23.2788    1.9376   27.4159 C.ar    1  UNL1        0.0000
     10 C         -22.0791    1.6509   28.0212 C.ar    1  UNL1        0.0000
     11 C         -23.2748    0.1108   29.4386 C.ar    1  UNL1       -0.0000
     12 C         -22.0811    0.7712   29.0649 C.ar    1  UNL1        0.0000
     13 C         -29.0977   -2.6321   30.1936 C.3     1  UNL1        0.2321
     14 O         -29.2906   -2.6639   31.5539 O.2     1  UNL1       -0.4679
     15 C         -29.6931   -1.6495   32.1257 C.2     1  UNL1        0.1682
     16 C         -30.6674   -1.7268   32.8811 C.2     1  UNL1        0.0142
     17 C         -31.1734   -0.5584   33.5408 C.3     1  UNL1        0.0341
@<TRIPOS>BOND
     1     3     7    1
     2     6    13    1
     3    13    14    1
     4    14    15    1
     5    15    16    2
     6    16    17    1
     7     7     8   ar
     8     8     9   ar
     9     9    10   ar
    10    10    12   ar
    11    12    11   ar
    12    11     7   ar
    13     1     2   ar
    14     2     3   ar
    15     3     4   ar
    16     4     5   ar
    17     5     6   ar
    18     6     1   ar
