@<TRIPOS>MOLECULE
No_712-gen_results/8p0m/2024-11-26-14-13-15/
 25 28 0 0 0
SMALL
GASTEIGER

@<TRIPOS>ATOM
      1 C         -28.0162   -0.8135   28.8779 C.ar    1  UNL1        0.0185
      2 C         -27.0636   -0.1189   28.6079 C.ar    1  UNL1        0.1377
      3 N         -25.8176   -0.3427   29.0488 N.ar    1  UNL1       -0.2027
      4 C         -25.6067   -1.4414   29.8929 C.ar    1  UNL1        0.2234
      5 C         -26.6760   -2.2193   30.2363 C.ar    1  UNL1        0.0533
      6 C         -27.8635   -1.9317   29.7671 C.ar    1  UNL1        0.0743
      7 N         -27.1286    1.0356   27.8135 N.pl3   1  UNL1       -0.2516
      8 C         -26.1342    1.9036   27.7281 C.ar    1  UNL1        0.0569
      9 C         -25.9502    2.9937   27.8825 C.ar    1  UNL1        0.0152
     10 C         -24.7699    3.8628   27.6310 C.ar    1  UNL1        0.0013
     11 C         -23.6799    3.1502   27.1430 C.ar    1  UNL1        0.0001
     12 C         -24.8141    1.3638   27.0327 C.ar    1  UNL1        0.0152
     13 C         -23.7525    1.9521   26.7982 C.ar    1  UNL1        0.0013
     14 C         -28.3188    1.3325   27.1010 C.ar    1  UNL1        0.0532
     15 C         -28.4086    2.2793   26.1597 C.ar    1  UNL1        0.0149
     16 C         -29.5798    2.5354   25.4510 C.ar    1  UNL1        0.0013
     17 C         -30.6889    1.7810   25.7001 C.ar    1  UNL1       -0.0002
     18 C         -30.5932    0.8043   26.6616 C.ar    1  UNL1       -0.0027
     19 C         -29.4840    0.5986   27.3522 C.ar    1  UNL1       -0.0037
     20 C         -29.3512   -0.5018   28.3203 C.3     1  UNL1        0.0567
     21 C         -29.0619   -2.7771   30.1777 C.3     1  UNL1        0.4185
     22 F         -28.9168   -3.9691   29.9153 F       1  UNL1       -0.1659
     23 F         -29.2477   -2.5295   31.5257 F       1  UNL1       -0.1659
     24 F         -30.2209   -2.4531   29.6667 F       1  UNL1       -0.1659
     25 F         -24.3945   -1.6826   30.3113 F       1  UNL1       -0.1832
@<TRIPOS>BOND
     1     2     7    1
     2     7     8    1
     3     7    14    1
     4     1    20    1
     5    19    20    1
     6     6    21    1
     7    21    22    1
     8    21    23    1
     9    21    24    1
    10     4    25    1
    11     1     2   ar
    12     2     3   ar
    13     3     4   ar
    14     4     5   ar
    15     5     6   ar
    16     6     1   ar
    17    14    15   ar
    18    15    16   ar
    19    16    17   ar
    20    17    18   ar
    21    18    19   ar
    22    19    14   ar
    23     8     9   ar
    24     9    10   ar
    25    10    11   ar
    26    11    13   ar
    27    13    12   ar
    28    12     8   ar
