@<TRIPOS>MOLECULE
No_713-gen_results/8p0m/2024-11-26-14-13-15/
 35 39 0 0 0
SMALL
GASTEIGER

@<TRIPOS>ATOM
      1 C         -28.0162   -0.8135   28.8779 C.3     1  UNL1        0.0449
      2 C         -27.0636   -0.1189   28.6079 C.ar    1  UNL1       -0.0245
      3 C         -26.9287    1.1713   29.0083 C.ar    1  UNL1       -0.0261
      4 C         -25.7702    2.0341   28.6884 C.ar    1  UNL1        0.0020
      5 C         -24.7141    1.4431   27.9188 C.ar    1  UNL1        0.0794
      6 C         -24.8590    0.0783   27.5836 C.ar    1  UNL1        0.0062
      7 C         -25.9647   -0.6606   27.9164 C.ar    1  UNL1       -0.0043
      8 C         -28.6510   -0.6086   30.2543 C.3     1  UNL1        0.0687
      9 C         -29.6513   -1.3216   30.5931 C.ar    1  UNL1       -0.0060
     10 C         -30.1116   -2.2865   29.9212 C.ar    1  UNL1        0.0339
     11 C         -31.2447   -3.0583   30.4732 C.ar    1  UNL1        0.1391
     12 C         -31.8013   -2.6893   31.6257 C.ar    1  UNL1        0.0369
     13 C         -31.3455   -1.6663   32.3820 C.ar    1  UNL1        0.0028
     14 C         -30.2577   -0.9277   31.9252 C.ar    1  UNL1       -0.0028
     15 C         -28.7147    0.8963   30.5131 C.3     1  UNL1        0.0235
     16 C         -27.4813    1.6796   30.2187 C.3     1  UNL1        0.0237
     17 C         -23.5332    2.1403   27.3838 C.2     1  UNL1        0.3877
     18 O         -22.4014    1.7820   27.6309 O.co2   1  UNL1       -0.2406
     19 O         -23.7998    3.2067   26.6736 O.co2   1  UNL1       -0.2406
     20 N         -27.5232   -0.9948   31.2458 N.3     1  UNL1       -0.2715
     21 O         -31.7519   -4.0742   29.7087 O.3     1  UNL1       -0.4637
     22 C         -30.8354   -4.9640   29.1568 C.3     1  UNL1        0.3186
     23 C         -31.1606   -5.4218   27.8121 C.2     1  UNL1        0.4084
     24 O         -31.6079   -4.7482   27.0551 O.co2   1  UNL1       -0.2415
     25 O         -30.3893   -6.5326   27.4823 O.co2   1  UNL1       -0.2415
     26 C         -26.9880   -2.1956   31.1977 C.3     1  UNL1        0.0898
     27 C         -27.0950   -0.1428   32.3840 C.3     1  UNL1        0.0577
     28 C         -27.6857   -0.4145   33.4590 C.3     1  UNL1        0.0160
     29 C         -27.5156    0.0329   34.4342 C.3     1  UNL1        0.0014
     30 C         -27.0704    0.9790   34.7297 C.3     1  UNL1        0.0001
     31 C         -26.2489    1.6295   33.6524 C.3     1  UNL1        0.0013
     32 C         -26.3380    0.9904   32.3591 C.3     1  UNL1        0.0138
     33 C         -26.6211    1.8111   31.4693 C.3     1  UNL1        0.0053
     34 C         -24.8307    0.4952   32.0062 C.3     1  UNL1        0.0013
     35 C         -26.3343    3.3794   31.5574 C.3     1  UNL1        0.0004
@<TRIPOS>BOND
     1     1     2    1
     2     1     8    1
     3     8     9    1
     4     8    15    1
     5     3    16    1
     6    15    16    1
     7     5    17    1
     8    17    18   ar
     9    17    19   ar
    10     8    20    1
    11    11    21    1
    12    21    22    1
    13    22    23    1
    14    23    24   ar
    15    23    25   ar
    16    20    26    1
    17    20    27    1
    18    28    29    1
    19    30    31    1
    20    27    32    1
    21    31    32    1
    22    16    33    1
    23    32    33    1
    24    32    34    1
    25    33    35    1
    26    27    28    1
    27    29    30    1
    28     9    10   ar
    29    10    11   ar
    30    11    12   ar
    31    12    13   ar
    32    13    14   ar
    33    14     9   ar
    34     2     7   ar
    35     7     6   ar
    36     6     5   ar
    37     5     4   ar
    38     4     3   ar
    39     3     2   ar
