@<TRIPOS>MOLECULE
No_714-gen_results/8p0m/2024-11-26-14-13-15/
 28 32 0 0 0
SMALL
GASTEIGER

@<TRIPOS>ATOM
      1 C         -28.0162   -0.8135   28.8779 C.ar    1  UNL1        0.0016
      2 C         -27.0636   -0.1189   28.6079 C.ar    1  UNL1        0.0000
      3 C         -25.7647   -0.3897   29.0360 C.ar    1  UNL1        0.0000
      4 C         -24.5516    0.4058   28.7646 C.ar    1  UNL1        0.0000
      5 C         -23.2300    0.1178   29.2575 C.ar    1  UNL1        0.0000
      6 C         -22.1393    0.9427   28.9224 C.ar    1  UNL1        0.0000
      7 C         -27.8294   -1.9287   29.8545 C.ar    1  UNL1        0.0199
      8 C         -26.5882   -2.3272   30.2682 C.ar    1  UNL1        0.0016
      9 C         -25.4565   -1.5432   29.9146 C.ar    1  UNL1        0.0000
     10 C         -22.2302    1.9089   27.8723 C.ar    1  UNL1        0.0000
     11 C         -24.5538    1.4700   27.7617 C.ar    1  UNL1        0.0000
     12 C         -23.4471    2.1666   27.3764 C.ar    1  UNL1        0.0000
     13 C         -28.9783   -2.7708   30.2578 C.ar    1  UNL1        0.1082
     14 N         -28.8311   -4.0718   30.4871 N.ar    1  UNL1       -0.2472
     15 C         -29.8732   -4.9593   30.3153 C.ar    1  UNL1        0.0651
     16 C         -31.0370   -4.5797   30.8644 C.ar    1  UNL1        0.0694
     17 C         -31.3563   -3.1564   30.7934 C.ar    1  UNL1        0.0369
     18 C         -30.2717   -2.2437   30.5088 C.ar    1  UNL1        0.1578
     19 C         -32.1572   -5.5611   30.9571 C.2     1  UNL1        0.2502
     20 O         -33.2477   -5.4269   31.0731 O.2     1  UNL1       -0.2699
     21 N         -31.6688   -6.9171   30.9969 N.am    1  UNL1       -0.2773
     22 C         -30.4060   -7.3582   31.0118 C.3     1  UNL1        0.0815
     23 C         -29.3944   -6.3378   30.8101 C.3     1  UNL1        0.0657
     24 C         -32.6822   -7.9813   31.2264 C.3     1  UNL1        0.0937
     25 F         -30.5059   -0.9563   30.4773 F       1  UNL1       -0.2026
     26 C         -32.3137   -9.0877   30.7859 C.3     1  UNL1        0.0216
     27 C         -30.9565   -9.5879   30.9655 C.3     1  UNL1        0.0035
     28 C         -29.9567   -8.5888   30.7833 C.3     1  UNL1        0.0203
@<TRIPOS>BOND
     1     3     4    1
     2     7    13    1
     3    16    19    1
     4    19    20    2
     5    19    21   am
     6    21    22    1
     7    15    23    1
     8    22    23    1
     9    21    24    1
    10    18    25    1
    11    24    26    1
    12    22    28    1
    13    27    28    1
    14    27    26    1
    15     1     2   ar
    16     2     3   ar
    17     3     9   ar
    18     9     8   ar
    19     8     7   ar
    20     7     1   ar
    21     4     5   ar
    22     5     6   ar
    23     6    10   ar
    24    10    12   ar
    25    12    11   ar
    26    11     4   ar
    27    13    14   ar
    28    14    15   ar
    29    15    16   ar
    30    16    17   ar
    31    17    18   ar
    32    18    13   ar
