@<TRIPOS>MOLECULE
No_715-gen_results/8p0m/2024-11-26-14-13-15/
 12 13 0 0 0
SMALL
GASTEIGER

@<TRIPOS>ATOM
      1 C         -28.0162   -0.8135   28.8779 C.ar    1  UNL1        0.0000
      2 C         -28.4690   -0.7850   29.8287 C.ar    1  UNL1        0.0000
      3 C         -26.5455   -0.8762   28.8500 C.ar    1  UNL1        0.0000
      4 C         -25.6825   -0.7773   27.6829 C.ar    1  UNL1        0.0000
      5 C         -27.9181   -1.0034   31.1877 C.ar    1  UNL1        0.0000
      6 C         -26.5308   -1.0794   31.2463 C.ar    1  UNL1        0.0000
      7 C         -25.7798   -1.0462   30.0905 C.ar    1  UNL1        0.0000
      8 C         -25.8976    0.2387   26.7449 C.ar    1  UNL1        0.0000
      9 C         -24.9256    0.7629   26.0322 C.ar    1  UNL1        0.0000
     10 C         -23.6887    0.9127   26.4602 C.ar    1  UNL1        0.0000
     11 C         -23.2912    0.3782   27.7204 C.ar    1  UNL1        0.0000
     12 C         -24.2215   -0.2742   28.4864 C.ar    1  UNL1        0.0000
@<TRIPOS>BOND
     1     3     4    1
     2     4     8   ar
     3     8     9   ar
     4     9    10   ar
     5    10    11   ar
     6    11    12   ar
     7    12     4   ar
     8     1     2   ar
     9     2     5   ar
    10     5     6   ar
    11     6     7   ar
    12     7     3   ar
    13     3     1   ar
