@<TRIPOS>MOLECULE
No_716-gen_results/8p0m/2024-11-26-14-13-15/
 22 23 0 0 0
SMALL
GASTEIGER

@<TRIPOS>ATOM
      1 C         -28.0162   -0.8135   28.8779 C.ar    1  UNL1        0.0794
      2 C         -27.0636   -0.1190   28.6079 C.ar    1  UNL1        0.0026
      3 C         -27.0010    0.6913   27.4910 C.ar    1  UNL1       -0.0189
      4 C         -28.1373    0.7363   26.6350 C.ar    1  UNL1       -0.0001
      5 C         -29.2360    0.0765   27.0690 C.ar    1  UNL1        0.0713
      6 C         -29.2177   -0.6429   28.1747 C.ar    1  UNL1        0.0104
      7 C         -28.0030   -1.6604   30.1266 C.2     1  UNL1        0.3877
      8 O         -28.6910   -1.7921   30.8886 O.co2   1  UNL1       -0.2406
      9 O         -26.8652   -2.5159   30.0807 O.co2   1  UNL1       -0.2406
     10 C         -30.4292    0.1677   26.1966 C.3     1  UNL1        0.4186
     11 F         -30.9978    1.0430   26.1780 F       1  UNL1       -0.1659
     12 F         -31.2131   -0.9008   26.6725 F       1  UNL1       -0.1659
     13 F         -30.1176   -0.3171   24.9318 F       1  UNL1       -0.1659
     14 C         -25.7539    1.4290   27.0603 C.3     1  UNL1        0.0377
     15 C         -24.6083    1.0287   27.5387 C.ar    1  UNL1       -0.0190
     16 C         -23.4293    1.7982   27.4185 C.ar    1  UNL1       -0.0040
     17 C         -22.2280    1.5189   28.0475 C.ar    1  UNL1       -0.0003
     18 C         -22.1531    0.3598   28.8123 C.ar    1  UNL1       -0.0000
     19 C         -23.2516   -0.5356   28.9067 C.ar    1  UNL1       -0.0003
     20 C         -24.4154   -0.1547   28.3110 C.ar    1  UNL1       -0.0040
     21 C         -25.7263    1.5499   25.4999 C.3     1  UNL1        0.0088
     22 C         -26.0766    2.9555   27.6298 C.3     1  UNL1        0.0088
@<TRIPOS>BOND
     1     1     7    1
     2     7     8   ar
     3     7     9   ar
     4     5    10    1
     5    10    11    1
     6    10    12    1
     7    10    13    1
     8     3    14    1
     9    14    15    1
    10    14    21    1
    11    14    22    1
    12    15    16   ar
    13    16    17   ar
    14    17    18   ar
    15    18    19   ar
    16    19    20   ar
    17    20    15   ar
    18     1     2   ar
    19     2     3   ar
    20     3     4   ar
    21     4     5   ar
    22     5     6   ar
    23     6     1   ar
