@<TRIPOS>MOLECULE
No_717-gen_results/8p0m/2024-11-26-14-13-15/
 12 12 0 0 0
SMALL
GASTEIGER

@<TRIPOS>ATOM
      1 N         -28.0544   -1.0498   28.7246 N.am    1  UNL1       -0.1905
      2 C         -28.6544   -0.5669   29.5076 C.2     1  UNL1        0.3207
      3 C         -26.6945   -1.3221   29.0236 C.3     1  UNL1        0.1397
      4 C         -25.6511   -1.1026   28.1645 C.2     1  UNL1       -0.0005
      5 C         -24.3024   -1.2889   28.6149 C.2     1  UNL1       -0.0028
      6 C         -30.0422   -0.1231   29.2027 C.2     1  UNL1        0.3202
      7 C         -24.0658   -1.7702   29.8602 C.2     1  UNL1       -0.0028
      8 C         -25.9541   -1.7991   30.2967 C.2     1  UNL1       -0.0005
      9 O         -30.1603    0.3480   28.1767 O.2     1  UNL1       -0.2633
     10 N         -31.0684   -0.3488   30.0945 N.am    1  UNL1       -0.1959
     11 O         -28.5733   -0.9715   30.8863 O.2     1  UNL1       -0.2633
     12 C         -31.0563   -0.8446   31.3245 C.3     1  UNL1        0.1390
@<TRIPOS>BOND
     1     1     2   am
     2     1     3    1
     3     3     4    1
     4     4     5    2
     5     2     6    1
     6     5     7    1
     7     3     8    1
     8     7     8    2
     9     6     9    2
    10     6    10   am
    11     2    11    2
    12    10    12    1
