@<TRIPOS>MOLECULE
No_719-gen_results/8p0m/2024-11-26-14-13-15/
 24 25 0 0 0
SMALL
GASTEIGER

@<TRIPOS>ATOM
      1 C         -28.0162   -0.8135   28.8779 C.ar    1  UNL1        0.1594
      2 C         -27.0636   -0.1189   28.6079 C.ar    1  UNL1        0.0385
      3 C         -25.7647   -0.3897   29.0360 C.ar    1  UNL1        0.0032
      4 C         -25.5296   -1.5302   29.9014 C.ar    1  UNL1        0.0011
      5 C         -26.6888   -2.2893   30.1810 C.ar    1  UNL1        0.0145
      6 C         -27.8727   -1.9508   29.7373 C.ar    1  UNL1        0.0922
      7 C         -24.5491    0.4100   28.7341 C.ar    1  UNL1        0.0023
      8 C         -24.4789    1.1871   27.6843 C.ar    1  UNL1        0.0296
      9 C         -23.2716    1.8973   27.3731 C.ar    1  UNL1        0.1401
     10 C         -22.1063    1.7032   28.0412 C.ar    1  UNL1        0.0296
     11 C         -23.3188    0.1792   29.4669 C.ar    1  UNL1        0.0001
     12 C         -22.1165    0.8402   29.1011 C.ar    1  UNL1        0.0023
     13 CL        -29.2295   -2.8994   30.2078 Cl      1  UNL1       -0.0791
     14 F         -23.3239    2.7573   26.3248 F       1  UNL1       -0.2042
     15 O         -29.2799   -0.5276   28.4863 O.3     1  UNL1       -0.4157
     16 C         -29.4439    0.4547   27.5437 C.2     1  UNL1        0.4230
     17 C         -29.8801    1.6095   28.1223 C.2     1  UNL1        0.4231
     18 O         -30.4147    1.6763   29.1902 O.2     1  UNL1       -0.2371
     19 O         -29.9581    2.7338   27.3340 O.3     1  UNL1       -0.4138
     20 O         -29.2894    0.2149   26.3704 O.2     1  UNL1       -0.2371
     21 C         -29.6772    3.8671   27.7716 C.2     1  UNL1        0.1787
     22 C         -29.5000    4.8749   26.8543 C.2     1  UNL1        0.0146
     23 C         -29.6298    4.8027   25.6185 C.3     1  UNL1        0.0293
     24 C         -30.0414    3.5493   25.1501 C.3     1  UNL1        0.0051
@<TRIPOS>BOND
     1     3     7    1
     2     6    13    1
     3     9    14    1
     4     1    15    1
     5    15    16    1
     6    16    17    1
     7    17    18    2
     8    17    19    1
     9    16    20    2
    10    19    21    1
    11    21    22    2
    12    22    23    1
    13    23    24    1
    14     7     8   ar
    15     8     9   ar
    16     9    10   ar
    17    10    12   ar
    18    12    11   ar
    19    11     7   ar
    20     1     2   ar
    21     2     3   ar
    22     3     4   ar
    23     4     5   ar
    24     5     6   ar
    25     6     1   ar
