@<TRIPOS>MOLECULE
No_72-gen_results/8p0m/2024-11-26-14-13-15/
 16 18 0 0 0
SMALL
GASTEIGER

@<TRIPOS>ATOM
      1 C         -28.0162   -0.8135   28.8779 C.ar    1  UNL1        0.0000
      2 C         -27.0636   -0.1189   28.6079 C.ar    1  UNL1        0.0000
      3 C         -25.7923   -0.4302   29.0761 C.ar    1  UNL1        0.0000
      4 C         -25.5756   -1.5654   29.9363 C.ar    1  UNL1        0.0000
      5 C         -26.7354   -2.3004   30.2173 C.ar    1  UNL1        0.0000
      6 C         -27.9184   -1.9537   29.7629 C.ar    1  UNL1        0.0000
      7 C         -27.1057    1.1023   27.7593 C.ar    1  UNL1        0.0001
      8 C         -27.8576    1.5309   27.2156 C.ar    1  UNL1        0.0000
      9 C         -27.8433    2.7213   26.2861 C.ar    1  UNL1        0.0000
     10 C         -26.6217    3.3253   26.0566 C.ar    1  UNL1        0.0015
     11 C         -25.4854    2.7960   26.6725 C.ar    1  UNL1        0.0192
     12 C         -25.6222    1.7365   27.5193 C.ar    1  UNL1        0.0030
     13 C         -24.1950    3.4456   26.4809 C.ar    1  UNL1        0.0988
     14 N         -23.1024    2.6874   26.8927 N.ar    1  UNL1       -0.2423
     15 C         -23.3220    1.6744   27.8167 C.ar    1  UNL1        0.0989
     16 C         -24.4895    1.1336   28.0670 C.ar    1  UNL1        0.0207
@<TRIPOS>BOND
     1     2     7    1
     2     1     2   ar
     3     2     3   ar
     4     3     4   ar
     5     4     5   ar
     6     5     6   ar
     7     6     1   ar
     8     7     8   ar
     9     8     9   ar
    10     9    10   ar
    11    10    11   ar
    12    12     7   ar
    13    11    12   ar
    14    12    16   ar
    15    16    15   ar
    16    15    14   ar
    17    14    13   ar
    18    13    11   ar
