@<TRIPOS>MOLECULE
No_720-gen_results/8p0m/2024-11-26-14-13-15/
 23 26 0 0 0
SMALL
GASTEIGER

@<TRIPOS>ATOM
      1 O         -28.1229   -1.3353   28.4874 O.3     1  UNL1       -0.4747
      2 C         -27.0637   -0.8242   28.8687 C.ar    1  UNL1        0.1353
      3 C         -26.0496   -0.9362   28.7578 C.ar    1  UNL1        0.0366
      4 C         -24.8633   -0.1667   29.1258 C.ar    1  UNL1        0.0027
      5 C         -25.1916    0.9807   29.8735 C.ar    1  UNL1       -0.0001
      6 C         -26.5062    1.2129   30.1127 C.ar    1  UNL1       -0.0005
      7 C         -27.4860    0.4548   29.7296 C.ar    1  UNL1        0.0222
      8 C         -23.4596   -0.3952   28.9148 C.ar    1  UNL1       -0.0042
      9 C         -22.5473    0.6463   28.7225 C.ar    1  UNL1       -0.0218
     10 C         -23.0390    1.9081   29.2725 C.ar    1  UNL1       -0.0043
     11 C         -24.1902    2.0416   29.9524 C.ar    1  UNL1       -0.0003
     12 C         -21.2169    0.5045   28.3676 C.3     1  UNL1        0.0310
     13 C         -29.3618   -1.0688   29.1828 C.3     1  UNL1        0.2174
     14 C         -28.9783    0.1896   29.8746 C.3     1  UNL1        0.0989
     15 C         -29.3123    0.2770   31.3724 C.2     1  UNL1       -0.0195
     16 C         -29.5892    1.4201   29.1300 C.ar    1  UNL1       -0.0117
     17 C         -29.4232    1.8984   28.2461 C.ar    1  UNL1       -0.0035
     18 C         -29.7407    2.8545   27.5194 C.ar    1  UNL1       -0.0003
     19 C         -30.9287    1.8001   29.7960 C.ar    1  UNL1       -0.0035
     20 C         -31.5296    2.8996   29.1873 C.ar    1  UNL1       -0.0003
     21 C         -31.0049    3.4550   28.0322 C.ar    1  UNL1       -0.0000
     22 C         -28.6359    1.1171   32.1436 C.2     1  UNL1       -0.0296
     23 C         -28.8906    1.2169   33.5472 C.3     1  UNL1        0.0304
@<TRIPOS>BOND
     1     1     2    1
     2     9    12    1
     3     1    13    1
     4     7    14    1
     5    13    14    1
     6    14    15    1
     7    14    16    1
     8    15    22    2
     9    22    23    1
    10     2     3   ar
    11     3     4   ar
    12     5     6   ar
    13     6     7   ar
    14     7     2   ar
    15     4     5   ar
    16     5    11   ar
    17    11    10   ar
    18    10     9   ar
    19     9     8   ar
    20     8     4   ar
    21    16    17   ar
    22    17    18   ar
    23    18    21   ar
    24    21    20   ar
    25    20    19   ar
    26    19    16   ar
