@<TRIPOS>MOLECULE
No_722-gen_results/8p0m/2024-11-26-14-13-15/
 27 30 0 0 0
SMALL
GASTEIGER

@<TRIPOS>ATOM
      1 C         -28.0162   -0.8135   28.8779 C.ar    1  UNL1        0.0006
      2 C         -28.4690   -0.7850   29.8287 C.ar    1  UNL1        0.0536
      3 C         -26.5455   -0.8762   28.8500 C.ar    1  UNL1       -0.0176
      4 C         -25.8041   -1.0324   30.0571 C.ar    1  UNL1       -0.0039
      5 C         -27.9437   -0.9869   31.2075 C.ar    1  UNL1        0.0045
      6 C         -26.5825   -1.0386   31.2231 C.ar    1  UNL1       -0.0002
      7 C         -30.0606   -0.7371   29.9024 C.2     1  UNL1        0.2528
      8 O         -30.7252   -1.5544   30.2697 O.2     1  UNL1       -0.2696
      9 N         -30.5245    0.5663   29.6971 N.am    1  UNL1       -0.2534
     10 C         -31.9302    0.7636   29.6237 C.3     1  UNL1        0.1203
     11 C         -29.8595    1.2830   28.6086 C.ar    1  UNL1        0.0542
     12 C         -29.2072    2.2735   28.8787 C.ar    1  UNL1        0.0149
     13 C         -28.4474    3.0505   27.8361 C.ar    1  UNL1        0.0013
     14 C         -28.4951    2.5715   26.5306 C.ar    1  UNL1        0.0001
     15 C         -30.1388    0.9370   27.2927 C.ar    1  UNL1        0.0149
     16 C         -29.3924    1.5196   26.2714 C.ar    1  UNL1        0.0012
     17 C         -25.7031   -0.7240   27.6122 C.3     1  UNL1        0.0526
     18 C         -25.2413    0.6540   27.3297 C.ar    1  UNL1       -0.0178
     19 C         -24.8015    0.9648   26.0764 C.ar    1  UNL1       -0.0039
     20 C         -24.1381    2.1990   25.8176 C.ar    1  UNL1       -0.0003
     21 C         -23.9458    3.0372   26.9343 C.ar    1  UNL1       -0.0000
     22 C         -24.7682    1.6690   28.2605 C.ar    1  UNL1       -0.0039
     23 C         -24.2909    2.7863   28.1064 C.ar    1  UNL1       -0.0003
     24 C         -27.8028    3.2856   25.4917 C.ar    1  UNL1        0.0000
     25 C         -29.5177    1.0563   24.8838 C.ar    1  UNL1        0.0000
     26 C         -28.5883    1.4939   23.9342 C.ar    1  UNL1        0.0000
     27 C         -27.8769    2.7260   24.1570 C.ar    1  UNL1        0.0000
@<TRIPOS>BOND
     1     2     7    1
     2     7     8    2
     3     7     9   am
     4     9    10    1
     5     9    11    1
     6     3    17    1
     7    17    18    1
     8    18    19   ar
     9    19    20   ar
    10    20    21   ar
    11    21    23   ar
    12    23    22   ar
    13    22    18   ar
    14    11    12   ar
    15    12    13   ar
    16    13    14   ar
    17    16    15   ar
    18    15    11   ar
    19     1     2   ar
    20     2     5   ar
    21     5     6   ar
    22     6     4   ar
    23     4     3   ar
    24     3     1   ar
    25    14    16   ar
    26    16    25   ar
    27    25    26   ar
    28    26    27   ar
    29    27    24   ar
    30    24    14   ar
