@<TRIPOS>MOLECULE
No_724-gen_results/8p0m/2024-11-26-14-13-15/
 13 13 0 0 0
SMALL
GASTEIGER

@<TRIPOS>ATOM
      1 C         -28.0162   -0.8135   28.8779 C.ar    1  UNL1       -0.0003
      2 C         -28.4690   -0.7850   29.8287 C.ar    1  UNL1       -0.0000
      3 C         -26.5042   -0.7777   28.8766 C.ar    1  UNL1       -0.0028
      4 C         -25.8103   -0.8531   30.1028 C.ar    1  UNL1       -0.0034
      5 C         -27.9906   -0.8916   31.2257 C.ar    1  UNL1       -0.0003
      6 C         -26.6042   -0.8676   31.2652 C.ar    1  UNL1       -0.0028
      7 C         -24.3894   -0.8049   30.1638 C.3     1  UNL1        0.1240
      8 CL        -23.6962   -1.3814   31.3181 Cl      1  UNL1       -0.1053
      9 C         -23.5935   -0.2403   29.1179 C.2     1  UNL1       -0.0059
     10 C         -22.2168   -0.2542   29.1703 C.2     1  UNL1       -0.0034
     11 C         -21.4623    0.5407   28.2305 C.2     1  UNL1       -0.0049
     12 C         -22.1641    1.3791   27.3462 C.2     1  UNL1       -0.0258
     13 C         -23.5457    1.5079   27.4112 C.3     1  UNL1        0.0307
@<TRIPOS>BOND
     1     4     7    1
     2     7     8    1
     3     7     9    1
     4     9    10    2
     5    10    11    1
     6    11    12    2
     7    12    13    1
     8     1     2   ar
     9     2     5   ar
    10     5     6   ar
    11     6     4   ar
    12     4     3   ar
    13     3     1   ar
