@<TRIPOS>MOLECULE
No_725-gen_results/8p0m/2024-11-26-14-13-15/
 35 38 0 0 0
SMALL
GASTEIGER

@<TRIPOS>ATOM
      1 C         -28.0162   -0.8135   28.8779 C.ar    1  UNL1        0.0377
      2 C         -27.0636   -0.1190   28.6079 C.ar    1  UNL1        0.0093
      3 C         -25.7923   -0.4302   29.0761 C.ar    1  UNL1        0.0006
      4 C         -24.5456    0.3494   28.8225 C.ar    1  UNL1        0.0066
      5 C         -24.6586    1.4196   27.8878 C.ar    1  UNL1        0.0800
      6 C         -25.9471    1.6811   27.3792 C.ar    1  UNL1        0.0130
      7 C         -27.0439    0.9739   27.6871 C.ar    1  UNL1        0.0760
      8 C         -28.0485   -1.5981   30.1629 C.ar    1  UNL1        0.1453
      9 C         -26.7598   -2.0713   30.6119 C.ar    1  UNL1        0.0375
     10 C         -25.6104   -1.4023   30.1709 C.ar    1  UNL1        0.0031
     11 C         -23.4418    2.1630   27.5308 C.2     1  UNL1        0.3878
     12 O         -22.3078    1.8281   27.9245 O.co2   1  UNL1       -0.2406
     13 O         -23.6106    3.1675   26.7056 O.co2   1  UNL1       -0.2406
     14 C         -28.3112    1.2875   26.9727 C.2     1  UNL1        0.3412
     15 O         -29.1108    1.9407   27.3940 O.2     1  UNL1       -0.2449
     16 O         -28.3559    0.7056   25.7530 O.3     1  UNL1       -0.4451
     17 O         -29.0847   -1.8899   30.6995 O.3     1  UNL1       -0.4535
     18 C         -29.6446   -3.1533   30.5706 C.ar    1  UNL1        0.1453
     19 C         -31.0018   -3.1382   30.1534 C.ar    1  UNL1        0.0375
     20 C         -31.7908   -3.5415   30.9976 C.ar    1  UNL1        0.0031
     21 C         -31.4506   -4.6590   31.9567 C.ar    1  UNL1        0.0002
     22 C         -30.0670   -4.7361   32.3205 C.ar    1  UNL1        0.0031
     23 C         -29.2252   -4.1316   31.5178 C.ar    1  UNL1        0.0375
     24 C         -29.0598    1.3035   24.8046 C.3     1  UNL1        0.2134
     25 C         -29.8288    0.3206   24.0894 C.3     1  UNL1        0.0739
     26 C         -30.7090   -0.2897   25.0095 C.ar    1  UNL1       -0.0154
     27 C         -31.5285   -1.3981   24.4748 C.ar    1  UNL1       -0.0039
     28 C         -32.2548   -2.2235   25.3312 C.ar    1  UNL1        0.0028
     29 C         -32.3725   -1.9327   26.6814 C.ar    1  UNL1        0.0369
     30 C         -31.6302   -0.8206   27.1771 C.ar    1  UNL1        0.1387
     31 C         -30.8385   -0.1131   26.3625 C.ar    1  UNL1        0.0328
     32 O         -31.5254   -0.5473   28.4930 O.3     1  UNL1       -0.4707
     33 C         -31.7508    0.7438   28.9269 C.3     1  UNL1        0.2318
     34 C         -32.8393    0.8524   29.8765 C.2     1  UNL1        0.0207
     35 C         -33.1466    2.0855   30.1525 C.2     1  UNL1       -0.0011
@<TRIPOS>BOND
     1     5    11    1
     2    11    12   ar
     3    11    13   ar
     4     7    14    1
     5    14    15    2
     6    14    16    1
     7     8    17    1
     8    17    18    1
     9    16    24    1
    10    24    25    1
    11    25    26    1
    12    30    32    1
    13    32    33    1
    14    33    34    1
    15    34    35    2
    16    18    19   ar
    17    19    20   ar
    18    20    21   ar
    19    21    22   ar
    20    22    23   ar
    21    23    18   ar
    22     3     4   ar
    23     4     5   ar
    24     5     6   ar
    25     6     7   ar
    26     7     2   ar
    27     1     2   ar
    28     2     3   ar
    29     3    10   ar
    30    10     9   ar
    31     9     8   ar
    32     8     1   ar
    33    26    27   ar
    34    27    28   ar
    35    28    29   ar
    36    29    30   ar
    37    30    31   ar
    38    31    26   ar
