@<TRIPOS>MOLECULE
No_726-gen_results/8p0m/2024-11-26-14-13-15/
 35 38 0 0 0
SMALL
GASTEIGER

@<TRIPOS>ATOM
      1 C         -28.0162   -0.8135   28.8779 C.ar    1  UNL1        0.0264
      2 C         -28.4690   -0.7850   29.8287 C.ar    1  UNL1        0.1430
      3 C         -28.1816    0.4277   28.1134 C.ar    1  UNL1       -0.0043
      4 C         -28.9841    1.4155   28.5154 C.ar    1  UNL1        0.0387
      5 C         -29.3802    0.1384   30.4612 C.ar    1  UNL1        0.0716
      6 C         -29.5415    1.2736   29.7242 C.ar    1  UNL1        0.1977
      7 C         -27.4586    0.4934   26.7701 C.3     1  UNL1        0.1228
      8 C         -26.0264    0.3840   26.7617 C.ar    1  UNL1       -0.0097
      9 C         -25.2897    0.9319   25.7830 C.ar    1  UNL1       -0.0035
     10 C         -23.8971    0.9071   25.8407 C.ar    1  UNL1       -0.0003
     11 C         -23.2504    0.7158   27.0661 C.ar    1  UNL1       -0.0003
     12 C         -21.8940    0.9725   27.3672 C.ar    1  UNL1       -0.0000
     13 C         -24.0706    0.4177   28.2609 C.ar    1  UNL1       -0.0039
     14 C         -25.4353    0.2431   28.1045 C.ar    1  UNL1       -0.0038
     15 C         -21.2404    1.0556   28.3869 C.ar    1  UNL1       -0.0003
     16 C         -21.9611    0.5098   29.5869 C.ar    1  UNL1       -0.0039
     17 C         -23.4163    0.2685   29.5075 C.ar    1  UNL1       -0.0178
     18 C         -28.2316    0.4447   25.6291 C.2     1  UNL1        0.2494
     19 O         -28.4375   -0.3672   24.9883 O.2     1  UNL1       -0.2726
     20 N         -28.7065    1.7608   25.3032 N.am    1  UNL1       -0.2000
     21 C         -29.4822    1.9614   24.0578 C.3     1  UNL1        0.1415
     22 C         -30.8877    2.0858   24.2880 C.ar    1  UNL1       -0.0006
     23 C         -31.3120    3.0144   24.9049 C.ar    1  UNL1       -0.0026
     24 C         -32.7815    3.2688   25.1160 C.ar    1  UNL1       -0.0003
     25 C         -33.6037    2.4414   24.3965 C.ar    1  UNL1       -0.0000
     26 C         -33.1046    1.5018   23.5357 C.ar    1  UNL1       -0.0003
     27 C         -31.7394    1.3446   23.4137 C.ar    1  UNL1       -0.0026
     28 O         -30.4420    2.2650   30.2258 O.3     1  UNL1       -0.2865
     29 F         -28.2951   -1.9389   30.6975 F       1  UNL1       -0.2041
     30 C         -24.0757   -0.1901   30.7218 C.3     1  UNL1        0.0523
     31 C         -24.7485    0.8082   31.4198 C.2     1  UNL1       -0.0214
     32 C         -25.6152    0.4514   32.5409 C.2     1  UNL1       -0.0046
     33 C         -26.4162    1.4037   33.1602 C.2     1  UNL1       -0.0049
     34 C         -26.4308    2.7349   32.6895 C.2     1  UNL1       -0.0258
     35 C         -25.5661    3.1039   31.6374 C.3     1  UNL1        0.0307
@<TRIPOS>BOND
     1     3     7    1
     2     7     8    1
     3     7    18    1
     4    18    19    2
     5    18    20   am
     6    20    21    1
     7    21    22    1
     8     6    28    1
     9     2    29    1
    10    17    30    1
    11    30    31    1
    12    31    32    2
    13    32    33    1
    14    33    34    2
    15    34    35    1
    16    11    12   ar
    17    12    15   ar
    18    15    16   ar
    19    16    17   ar
    20    17    13   ar
    21     8     9   ar
    22     9    10   ar
    23    10    11   ar
    24    11    13   ar
    25    13    14   ar
    26    14     8   ar
    27    22    23   ar
    28    23    24   ar
    29    24    25   ar
    30    25    26   ar
    31    26    27   ar
    32    27    22   ar
    33     1     2   ar
    34     2     5   ar
    35     5     6   ar
    36     6     4   ar
    37     4     3   ar
    38     3     1   ar
