@<TRIPOS>MOLECULE
No_727-gen_results/8p0m/2024-11-26-14-13-15/
 16 18 0 0 0
SMALL
GASTEIGER

@<TRIPOS>ATOM
      1 C         -28.0162   -0.8135   28.8779 C.ar    1  UNL1        0.0051
      2 C         -28.4690   -0.7850   29.8287 C.ar    1  UNL1        0.0497
      3 C         -26.5042   -0.7777   28.8766 C.ar    1  UNL1        0.0115
      4 C         -25.8103   -0.8531   30.1028 C.ar    1  UNL1        0.0574
      5 C         -27.9906   -0.8916   31.2257 C.ar    1  UNL1       -0.0153
      6 C         -26.6042   -0.8676   31.2652 C.ar    1  UNL1        0.0073
      7 CL        -24.1648   -0.7915   30.1717 Cl      1  UNL1       -0.0823
      8 C         -30.0988   -0.8363   29.8511 C.2     1  UNL1        0.2487
      9 O         -30.5260   -0.4368   28.9158 O.2     1  UNL1       -0.2699
     10 N         -30.7904   -1.3431   30.9041 N.am    1  UNL1       -0.2774
     11 C         -32.2264   -1.3720   30.8397 C.3     1  UNL1        0.0937
     12 C         -32.7596   -2.1493   31.6153 C.3     1  UNL1        0.0216
     13 C         -32.0894   -2.8092   32.7296 C.3     1  UNL1        0.0035
     14 C         -30.6850   -2.7844   32.7539 C.3     1  UNL1        0.0202
     15 C         -30.0501   -2.0085   32.0479 C.3     1  UNL1        0.0800
     16 C         -28.5581   -1.9872   31.9201 C.3     1  UNL1        0.0463
@<TRIPOS>BOND
     1     4     7    1
     2     2     8    1
     3     8     9    2
     4     8    10   am
     5    10    11    1
     6    12    13    1
     7    10    15    1
     8    14    15    1
     9     5    16    1
    10    15    16    1
    11    11    12    1
    12    13    14    1
    13     1     2   ar
    14     2     5   ar
    15     5     6   ar
    16     6     4   ar
    17     4     3   ar
    18     3     1   ar
