@<TRIPOS>MOLECULE
No_728-gen_results/8p0m/2024-11-26-14-13-15/
 22 23 0 0 0
SMALL
GASTEIGER

@<TRIPOS>ATOM
      1 C         -28.0162   -0.8135   28.8779 C.ar    1  UNL1        0.0713
      2 C         -27.0636   -0.1189   28.6079 C.ar    1  UNL1       -0.0001
      3 C         -26.9716    0.7139   27.5060 C.ar    1  UNL1       -0.0183
      4 C         -28.1053    0.7744   26.6421 C.ar    1  UNL1        0.0026
      5 C         -29.2008    0.1044   27.0527 C.ar    1  UNL1        0.0794
      6 C         -28.0219   -1.5899   30.0879 C.3     1  UNL1        0.4186
      7 C         -29.1640   -0.6394   28.1484 C.ar    1  UNL1        0.0104
      8 F         -27.1133   -2.3915   30.2340 F       1  UNL1       -0.1659
      9 F         -28.0143   -0.8882   31.2715 F       1  UNL1       -0.1659
     10 F         -29.2318   -2.3085   30.1852 F       1  UNL1       -0.1659
     11 C         -30.3765    0.2074   26.1592 C.2     1  UNL1        0.3877
     12 O         -30.3900    0.2140   24.9760 O.co2   1  UNL1       -0.2406
     13 O         -31.5680    0.1197   26.7605 O.co2   1  UNL1       -0.2406
     14 C         -25.6922    1.4118   27.1561 C.3     1  UNL1        0.0446
     15 C         -24.6649    0.8113   26.9915 C.ar    1  UNL1       -0.0184
     16 C         -23.3886    1.5652   26.8011 C.ar    1  UNL1       -0.0031
     17 C         -22.1142    1.1932   27.2243 C.ar    1  UNL1        0.0111
     18 C         -22.0619    0.0951   28.1534 C.ar    1  UNL1        0.0577
     19 C         -23.2735   -0.6296   28.4594 C.ar    1  UNL1        0.0111
     20 C         -24.4771   -0.2471   27.9056 C.ar    1  UNL1       -0.0031
     21 C         -25.9731    2.3960   25.9860 C.3     1  UNL1        0.0094
     22 CL        -20.5476   -0.3246   28.7825 Cl      1  UNL1       -0.0822
@<TRIPOS>BOND
     1     1     6    1
     2     6     8    1
     3     6     9    1
     4     6    10    1
     5     5    11    1
     6    11    12   ar
     7    11    13   ar
     8     3    14    1
     9    14    21    1
    10    18    22    1
    11    14    15    1
    12    15    16   ar
    13    16    17   ar
    14    17    18   ar
    15    18    19   ar
    16    19    20   ar
    17    20    15   ar
    18     1     2   ar
    19     2     3   ar
    20     3     4   ar
    21     4     5   ar
    22     5     7   ar
    23     7     1   ar
