@<TRIPOS>MOLECULE
No_729-gen_results/8p0m/2024-11-26-14-13-15/
 15 16 0 0 0
SMALL
GASTEIGER

@<TRIPOS>ATOM
      1 C         -28.0162   -0.8135   28.8779 C.ar    1  UNL1        0.0730
      2 C         -27.0636   -0.1190   28.6079 C.ar    1  UNL1        0.1548
      3 N         -26.9515    1.1286   28.9566 N.ar    1  UNL1       -0.2272
      4 C         -29.1088   -0.2102   29.6318 C.ar    1  UNL1        0.1431
      5 C         -29.0881    1.0629   29.9416 C.ar    1  UNL1        0.0577
      6 C         -27.9547    1.7679   29.5913 C.ar    1  UNL1        0.1035
      7 N         -25.9103   -0.6251   27.9767 N.pl3   1  UNL1       -0.1940
      8 C         -24.5687   -0.3869   28.4545 C.ar    1  UNL1        0.0721
      9 C         -24.3515   -0.3068   29.6883 C.ar    1  UNL1        0.0166
     10 C         -23.0101   -0.0892   30.1756 C.ar    1  UNL1        0.0013
     11 C         -21.9804    0.0107   29.2135 C.ar    1  UNL1        0.0001
     12 C         -22.2536    0.1182   27.8952 C.ar    1  UNL1        0.0013
     13 C         -23.5925   -0.0886   27.4806 C.ar    1  UNL1        0.0166
     14 O         -30.1661   -1.0352   29.9410 O.3     1  UNL1       -0.4713
     15 C         -30.0119   -2.1085   30.7046 C.3     1  UNL1        0.2525
@<TRIPOS>BOND
     1     2     7    1
     2     7     8    1
     3     4    14    1
     4    14    15    1
     5     1     2   ar
     6     2     3   ar
     7     3     6   ar
     8     6     5   ar
     9     5     4   ar
    10     4     1   ar
    11     8     9   ar
    12     9    10   ar
    13    10    11   ar
    14    11    12   ar
    15    12    13   ar
    16    13     8   ar
