@<TRIPOS>MOLECULE
No_73-gen_results/8p0m/2024-11-26-14-13-15/
 19 20 0 0 0
SMALL
GASTEIGER

@<TRIPOS>ATOM
      1 C         -28.0162   -0.8135   28.8779 C.ar    1  UNL1        0.1959
      2 C         -27.0636   -0.1189   28.6079 C.ar    1  UNL1        0.0390
      3 C         -27.0010    0.6913   27.4910 C.ar    1  UNL1        0.0034
      4 C         -28.1420    0.8282   26.7994 C.ar    1  UNL1        0.0068
      5 C         -29.2898   -0.4871   28.3661 C.ar    1  UNL1        0.0486
      6 C         -29.2849    0.2608   27.2623 C.ar    1  UNL1        0.0829
      7 O         -27.9741   -1.5885   30.0639 O.3     1  UNL1       -0.2866
      8 C         -30.4253    0.4800   26.3062 C.2     1  UNL1        0.3879
      9 O         -30.4232    0.6351   25.1705 O.co2   1  UNL1       -0.2406
     10 O         -31.6170    0.5860   26.9029 O.co2   1  UNL1       -0.2406
     11 C         -25.6482   -0.3689   29.3472 C.ar    1  UNL1        0.0046
     12 C         -24.8232    0.3475   29.7350 C.ar    1  UNL1        0.0188
     13 C         -23.5217   -0.0089   30.1440 C.ar    1  UNL1        0.0015
     14 C         -23.2580   -1.3665   30.2780 C.ar    1  UNL1        0.0000
     15 C         -25.2365   -1.8520   29.3386 C.ar    1  UNL1        0.0001
     16 C         -24.0955   -2.2520   29.7839 C.ar    1  UNL1        0.0000
     17 C         -25.0519    1.8879   29.7502 C.2     1  UNL1        0.0932
     18 N         -25.2995    2.6804   30.8115 N.2     1  UNL1       -0.2668
     19 C         -25.6143    3.9432   30.7318 C.3     1  UNL1        0.1517
@<TRIPOS>BOND
     1     1     7    1
     2     6     8    1
     3     8     9   ar
     4     8    10   ar
     5     2    11    1
     6    12    17    1
     7    17    18    2
     8    18    19    1
     9     1     2   ar
    10     2     3   ar
    11     3     4   ar
    12     4     6   ar
    13     6     5   ar
    14     5     1   ar
    15    11    12   ar
    16    12    13   ar
    17    13    14   ar
    18    14    16   ar
    19    16    15   ar
    20    15    11   ar
