@<TRIPOS>MOLECULE
No_730-gen_results/8p0m/2024-11-26-14-13-15/
 18 20 0 0 0
SMALL
GASTEIGER

@<TRIPOS>ATOM
      1 C         -28.0162   -0.8135   28.8779 C.ar    1  UNL1        0.0079
      2 C         -28.4690   -0.7850   29.8287 C.ar    1  UNL1        0.0424
      3 C         -27.0871    0.2903   28.6377 C.ar    1  UNL1        0.0549
      4 C         -26.2516    0.4114   27.4223 C.ar    1  UNL1        0.1983
      5 C         -29.4309   -1.9307   30.2714 C.2     1  UNL1        0.2342
      6 C         -25.1465    1.2405   27.3564 C.ar    1  UNL1        0.0548
      7 C         -24.2561    1.3035   26.2886 C.ar    1  UNL1        0.0046
      8 C         -23.1371    2.1371   26.3371 C.ar    1  UNL1        0.0002
      9 C         -22.4829    2.1966   27.4856 C.ar    1  UNL1        0.0015
     10 C         -23.1759    1.8382   28.7039 C.ar    1  UNL1        0.0173
     11 C         -24.3798    1.2303   28.5931 C.ar    1  UNL1        0.0630
     12 C         -28.1869    0.1997   30.9664 C.ar    1  UNL1        0.0048
     13 C         -27.3641    1.1777   30.7635 C.ar    1  UNL1        0.0174
     14 C         -26.7186    1.2600   29.5646 C.ar    1  UNL1        0.0630
     15 N         -25.2047    1.2494   29.8047 N.ar    1  UNL1       -0.3250
     16 C         -24.5805    1.0904   31.0345 C.3     1  UNL1        0.1304
     17 O         -26.7802   -0.0231   26.2876 O.2     1  UNL1       -0.2865
     18 O         -29.2445   -2.6713   31.0952 O.2     1  UNL1       -0.2831
@<TRIPOS>BOND
     1     3     4   ar
     2     4     6   ar
     3    11    15   ar
     4    14    15   ar
     5    15    16    1
     6     4    17    2
     7     5    18    2
     8     5     2    1
     9     1     2   ar
    10     2    12   ar
    11    12    13   ar
    12    13    14   ar
    13    14     3   ar
    14     3     1   ar
    15     6     7   ar
    16     7     8   ar
    17     8     9   ar
    18     9    10   ar
    19    10    11   ar
    20    11     6   ar
