@<TRIPOS>MOLECULE
No_731-gen_results/8p0m/2024-11-26-14-13-15/
 23 25 0 0 0
SMALL
GASTEIGER

@<TRIPOS>ATOM
      1 C         -28.0162   -0.8135   28.8779 C.ar    1  UNL1       -0.0039
      2 C         -28.4690   -0.7850   29.8287 C.ar    1  UNL1       -0.0003
      3 C         -27.0871    0.2903   28.6377 C.ar    1  UNL1       -0.0180
      4 C         -26.2516    0.4114   27.4223 C.3     1  UNL1        0.0519
      5 C         -28.3913    0.1041   30.9805 C.ar    1  UNL1       -0.0000
      6 C         -27.5332    1.1666   30.7866 C.ar    1  UNL1       -0.0003
      7 C         -26.8281    1.2557   29.6454 C.ar    1  UNL1       -0.0039
      8 C         -25.1385    0.6749   27.2306 C.ar    1  UNL1       -0.0180
      9 C         -24.3158    0.8672   28.4418 C.ar    1  UNL1       -0.0039
     10 C         -22.9393    1.2963   28.0767 C.ar    1  UNL1       -0.0003
     11 C         -22.6164    1.8590   26.8858 C.ar    1  UNL1       -0.0000
     12 C         -23.7130    1.9604   26.0320 C.ar    1  UNL1       -0.0003
     13 C         -24.8289    1.3650   26.0887 C.ar    1  UNL1       -0.0039
     14 C         -27.0644   -0.0432   26.2006 C.3     1  UNL1        0.0732
     15 C         -27.9208    1.0326   25.7333 C.2     1  UNL1        0.1505
     16 C         -28.7769    0.7087   24.7004 C.3     1  UNL1        0.0515
     17 C         -30.0312    0.5985   25.1420 C.3     1  UNL1        0.0069
     18 C         -31.0171    1.2961   24.8255 C.3     1  UNL1        0.0004
     19 C         -30.8809    2.0431   23.5244 C.3     1  UNL1        0.0000
     20 C         -29.6108    2.2425   23.0193 C.3     1  UNL1        0.0004
     21 C         -28.7501    2.1141   23.8734 C.3     1  UNL1        0.0069
     22 C         -28.3764   -0.3593   23.7433 C.3     1  UNL1        0.0073
     23 O         -27.8663    2.1833   26.3495 O.2     1  UNL1       -0.2961
@<TRIPOS>BOND
     1     3     4    1
     2     4    14    1
     3    14    15    1
     4    15    16    1
     5    16    17    1
     6    18    19    1
     7    16    21    1
     8    20    21    1
     9    16    22    1
    10    15    23    2
    11     4     8    1
    12    17    18    1
    13    19    20    1
    14     8     9   ar
    15     9    10   ar
    16    10    11   ar
    17    11    12   ar
    18    12    13   ar
    19    13     8   ar
    20     1     2   ar
    21     2     5   ar
    22     5     6   ar
    23     6     7   ar
    24     7     3   ar
    25     3     1   ar
