@<TRIPOS>MOLECULE
No_732-gen_results/8p0m/2024-11-26-14-13-15/
 22 23 0 0 0
SMALL
GASTEIGER

@<TRIPOS>ATOM
      1 C         -28.0162   -0.8135   28.8779 C.3     1  UNL1        0.0310
      2 C         -27.0636   -0.1190   28.6079 C.ar    1  UNL1       -0.0219
      3 C         -25.7923   -0.4302   29.0761 C.ar    1  UNL1       -0.0043
      4 C         -24.5456    0.3494   28.8225 C.ar    1  UNL1        0.0035
      5 C         -24.6586    1.4196   27.8878 C.ar    1  UNL1        0.0714
      6 C         -25.9471    1.6811   27.3792 C.ar    1  UNL1        0.0035
      7 C         -27.0439    0.9739   27.6871 C.ar    1  UNL1       -0.0043
      8 C         -28.6597   -0.4600   30.2006 C.3     1  UNL1        0.0310
      9 C         -29.7498   -1.2486   30.6773 C.ar    1  UNL1       -0.0218
     10 C         -23.4472    2.1466   27.5918 C.3     1  UNL1        0.4186
     11 F         -22.5026    1.9925   28.1936 F       1  UNL1       -0.1659
     12 F         -23.1407    1.8779   26.1801 F       1  UNL1       -0.1659
     13 F         -23.8081    3.5082   27.5246 F       1  UNL1       -0.1659
     14 C         -30.1866   -2.1728   29.8735 C.ar    1  UNL1       -0.0043
     15 C         -31.3161   -2.9446   30.4336 C.ar    1  UNL1       -0.0003
     16 C         -31.8134   -2.6869   31.5972 C.ar    1  UNL1       -0.0000
     17 C         -31.3377   -1.7031   32.4289 C.ar    1  UNL1       -0.0003
     18 C         -30.2676   -0.9451   31.9881 C.ar    1  UNL1       -0.0043
     19 C         -28.1212    0.6213   31.0383 C.3     1  UNL1        0.0304
     20 C         -27.2394    1.4905   30.6964 C.2     1  UNL1       -0.0303
     21 C         -26.9685    2.4554   31.8180 C.2     1  UNL1       -0.0303
     22 C         -25.9964    3.5749   31.6895 C.3     1  UNL1        0.0303
@<TRIPOS>BOND
     1     1     2    1
     2     1     8    1
     3     8     9    1
     4     5    10    1
     5    10    11    1
     6    10    12    1
     7    10    13    1
     8     8    19    1
     9    19    20    1
    10    20    21    2
    11    21    22    1
    12     2     3   ar
    13     3     4   ar
    14     4     5   ar
    15     5     6   ar
    16     6     7   ar
    17     7     2   ar
    18     9    14   ar
    19    14    15   ar
    20    15    16   ar
    21    16    17   ar
    22    17    18   ar
    23    18     9   ar
