@<TRIPOS>MOLECULE
No_733-gen_results/8p0m/2024-11-26-14-13-15/
 11 11 0 0 0
SMALL
GASTEIGER

@<TRIPOS>ATOM
      1 C         -28.0162   -0.8135   28.8779 C.ar    1  UNL1        0.0567
      2 C         -27.0636   -0.1189   28.6079 C.ar    1  UNL1        0.0052
      3 C         -26.9716    0.7139   27.5060 C.ar    1  UNL1        0.0084
      4 C         -28.1053    0.7744   26.6421 C.ar    1  UNL1        0.0426
      5 C         -28.0677    1.4872   25.5121 C.1     1  UNL1       -0.0512
      6 C         -29.2691   -0.5335   28.2245 C.ar    1  UNL1        0.0052
      7 C         -29.2230    0.1355   27.0328 C.ar    1  UNL1        0.0084
      8 C         -28.0436   -1.6551   30.1512 C.2     1  UNL1        0.2842
      9 N         -27.0330   -2.4564   30.3355 N.am    1  UNL1       -0.0837
     10 O         -29.0183   -1.7802   30.8601 O.2     1  UNL1       -0.2667
     11 C         -27.7823    2.1776   24.7947 C.1     1  UNL1       -0.0092
@<TRIPOS>BOND
     1     4     5    1
     2     1     8    1
     3     8     9   am
     4     8    10    2
     5     5    11    3
     6     1     2   ar
     7     2     3   ar
     8     3     4   ar
     9     4     7   ar
    10     7     6   ar
    11     6     1   ar
