@<TRIPOS>MOLECULE
No_734-gen_results/8p0m/2024-11-26-14-13-15/
 15 16 0 0 0
SMALL
GASTEIGER

@<TRIPOS>ATOM
      1 C         -28.0162   -0.8135   28.8779 C.ar    1  UNL1        0.0145
      2 C         -28.4690   -0.7850   29.8287 C.ar    1  UNL1        0.0479
      3 C         -26.5455   -0.8762   28.8500 C.ar    1  UNL1        0.0013
      4 C         -25.8974   -0.8267   29.8894 C.ar    1  UNL1        0.0001
      5 C         -27.9129   -0.8385   31.1942 C.ar    1  UNL1        0.0145
      6 C         -26.5519   -0.8324   31.1775 C.ar    1  UNL1        0.0013
      7 N         -29.9716   -0.7904   29.9222 N.pl3   1  UNL1       -0.3072
      8 C         -30.7264   -1.6293   30.4307 C.3     1  UNL1        0.0908
      9 C         -32.1099   -1.5531   30.2484 C.3     1  UNL1        0.0218
     10 C         -30.6083    0.2219   29.1853 C.3     1  UNL1        0.0950
     11 C         -31.9103    0.3188   28.9905 C.3     1  UNL1        0.0415
     12 C         -32.4433    1.3640   28.2076 C.2     1  UNL1       -0.0293
     13 C         -32.6419   -0.6714   29.5986 C.3     1  UNL1        0.0078
     14 C         -33.5839    1.7173   28.1019 C.2     1  UNL1       -0.0303
     15 C         -34.0820    2.7387   27.1993 C.3     1  UNL1        0.0303
@<TRIPOS>BOND
     1     2     7    1
     2     7     8    1
     3     7    10    1
     4    11    12    1
     5     9    13    1
     6    11    13    1
     7    12    14    2
     8    14    15    1
     9     8     9    1
    10    11    10    1
    11     1     2   ar
    12     2     5   ar
    13     5     6   ar
    14     6     4   ar
    15     4     3   ar
    16     3     1   ar
