@<TRIPOS>MOLECULE
No_736-gen_results/8p0m/2024-11-26-14-13-15/
 25 26 0 0 0
SMALL
GASTEIGER

@<TRIPOS>ATOM
      1 C         -28.0162   -0.8135   28.8779 C.ar    1  UNL1        0.0140
      2 C         -27.0636   -0.1189   28.6079 C.ar    1  UNL1        0.0825
      3 C         -25.7923   -0.4302   29.0761 C.ar    1  UNL1        0.0074
      4 C         -25.5756   -1.5654   29.9363 C.ar    1  UNL1        0.0005
      5 C         -26.7354   -2.3004   30.2173 C.ar    1  UNL1        0.0066
      6 C         -27.9184   -1.9537   29.7629 C.ar    1  UNL1        0.0800
      7 P         -27.1148    1.3528   27.5928 P.3     1  UNL1        0.3922
      8 O         -26.4547    1.0674   26.4861 O.2     1  UNL1       -0.2507
      9 O         -26.3948    2.4638   28.3403 O.3     1  UNL1       -0.2853
     10 O         -28.5635    1.7235   27.4555 O.3     1  UNL1       -0.1363
     11 C         -29.0568   -2.7676   30.2165 C.2     1  UNL1        0.3878
     12 O         -30.1023   -2.4916   30.0983 O.co2   1  UNL1       -0.2406
     13 O         -28.7316   -3.9361   30.7837 O.co2   1  UNL1       -0.2406
     14 C         -26.5537    2.9035   29.4081 C.3     1  UNL1        0.2057
     15 C         -26.0600    4.2670   29.6272 C.3     1  UNL1        0.2853
     16 C         -25.8605    5.0606   28.5575 C.2     1  UNL1        0.3526
     17 O         -26.8282    5.0425   30.5971 O.3     1  UNL1       -0.4661
     18 O         -25.6445    6.3266   28.6848 O.2     1  UNL1       -0.2551
     19 C         -28.0498    4.9323   30.6751 C.ar    1  UNL1        0.1393
     20 C         -28.9143    5.5820   30.3740 C.ar    1  UNL1        0.0369
     21 C         -30.3371    5.3467   30.5500 C.ar    1  UNL1        0.0031
     22 C         -30.6422    4.1162   31.1865 C.ar    1  UNL1        0.0002
     23 C         -29.6789    3.2312   31.5505 C.ar    1  UNL1        0.0031
     24 C         -28.3719    3.5709   31.3509 C.ar    1  UNL1        0.0369
     25 F         -25.8628    4.6059   27.3199 F       1  UNL1       -0.1596
@<TRIPOS>BOND
     1     2     7    1
     2     7     8    2
     3     7     9    1
     4     7    10    1
     5     6    11    1
     6    11    12   ar
     7    11    13   ar
     8     9    14    1
     9    14    15    1
    10    15    16    1
    11    15    17    1
    12    16    18    2
    13    17    19    1
    14    16    25    1
    15     1     2   ar
    16     2     3   ar
    17     3     4   ar
    18     4     5   ar
    19     5     6   ar
    20     6     1   ar
    21    19    20   ar
    22    20    21   ar
    23    21    22   ar
    24    22    23   ar
    25    23    24   ar
    26    24    19   ar
