@<TRIPOS>MOLECULE
No_737-gen_results/8p0m/2024-11-26-14-13-15/
 21 22 0 0 0
SMALL
GASTEIGER

@<TRIPOS>ATOM
      1 C         -28.0162   -0.8135   28.8779 C.ar    1  UNL1        0.0489
      2 C         -28.4690   -0.7850   29.8287 C.ar    1  UNL1        0.1467
      3 C         -27.1356    0.2359   28.5352 C.ar    1  UNL1        0.0607
      4 C         -26.8745    1.2825   29.3982 C.ar    1  UNL1        0.0116
      5 C         -28.3613    0.1987   30.9244 C.ar    1  UNL1        0.0376
      6 C         -27.5277    1.2234   30.6356 C.ar    1  UNL1        0.0040
      7 CL        -26.2960    0.2786   27.0255 Cl      1  UNL1       -0.0821
      8 O         -29.3326   -1.8813   30.2453 O.3     1  UNL1       -0.4471
      9 C         -25.9764    2.4048   29.0740 C.ar    1  UNL1        0.0114
     10 C         -26.1664    3.2213   28.0200 C.ar    1  UNL1        0.0009
     11 C         -25.2079    4.2420   27.6960 C.ar    1  UNL1        0.0001
     12 C         -24.8483    2.6628   29.9137 C.ar    1  UNL1        0.0577
     13 CL        -24.6996    1.5573   31.3129 Cl      1  UNL1       -0.0822
     14 C         -24.1164    4.4429   28.2833 C.ar    1  UNL1        0.0009
     15 C         -23.8880    3.5371   29.4914 C.ar    1  UNL1        0.0114
     16 C         -28.8951   -3.1478   30.5673 C.2     1  UNL1        0.1963
     17 C         -27.6420   -3.3710   30.7155 C.1     1  UNL1        0.1666
     18 C         -29.9304   -4.0942   30.6449 C.3     1  UNL1        0.0760
     19 O         -26.6864   -2.5216   30.5557 O.2     1  UNL1       -0.2283
     20 C         -29.5952   -5.3393   31.1368 C.3     1  UNL1        0.0087
     21 C         -28.2098   -5.5950   31.4000 C.3     1  UNL1        0.0005
@<TRIPOS>BOND
     1     3     7    1
     2     2     8    1
     3     4     9    1
     4    12    13    1
     5     8    16    1
     6    16    17    2
     7    16    18    1
     8    17    19    2
     9    18    20    1
    10    20    21    1
    11     9    10   ar
    12    10    11   ar
    13    11    14   ar
    14    14    15   ar
    15    15    12   ar
    16    12     9   ar
    17     1     2   ar
    18     2     5   ar
    19     5     6   ar
    20     6     4   ar
    21     4     3   ar
    22     3     1   ar
