@<TRIPOS>MOLECULE
No_738-gen_results/8p0m/2024-11-26-14-13-15/
 22 23 0 0 0
SMALL
GASTEIGER

@<TRIPOS>ATOM
      1 C         -28.0162   -0.8135   28.8779 C.ar    1  UNL1        0.0987
      2 N         -27.1876   -0.3590   28.4524 N.ar    1  UNL1       -0.2440
      3 C         -28.1059   -1.6261   30.0720 C.ar    1  UNL1        0.0476
      4 C         -26.7940   -1.9729   30.6057 C.ar    1  UNL1        0.0030
      5 C         -25.6390   -1.4719   30.0298 C.ar    1  UNL1        0.0189
      6 C         -25.8498   -0.6230   28.9045 C.ar    1  UNL1        0.0810
      7 C         -24.6498   -0.0129   28.3188 C.ar    1  UNL1        0.0137
      8 C         -24.7073    0.8443   27.2252 C.ar    1  UNL1       -0.0204
      9 C         -25.7232    1.1738   26.5061 C.3     1  UNL1        0.0311
     10 C         -23.3369   -0.3764   28.8608 C.ar    1  UNL1        0.0012
     11 C         -22.2259    0.4545   28.5254 C.ar    1  UNL1        0.0000
     12 C         -23.5240    1.6213   26.7648 C.ar    1  UNL1       -0.0042
     13 C         -22.2674    1.3703   27.5037 C.ar    1  UNL1       -0.0003
     14 C         -29.2816   -2.1898   30.6578 C.3     1  UNL1        0.2686
     15 O         -29.4379   -3.3694   30.6024 O.3     1  UNL1       -0.1939
     16 N         -30.2156   -1.3874   31.1520 N.pl3   1  UNL1       -0.2030
     17 C         -30.1639    0.0787   31.2895 C.2     1  UNL1        0.0831
     18 C         -29.0995    0.5012   31.7283 C.2     1  UNL1        0.0175
     19 C         -28.7372    1.5749   31.9670 C.2     1  UNL1        0.0014
     20 C         -27.8324    2.2666   32.0164 C.2     1  UNL1        0.0000
     21 C         -26.4815    1.5758   32.0372 C.2     1  UNL1        0.0000
     22 C         -26.6065    0.2177   32.0905 C.2     1  UNL1        0.0000
@<TRIPOS>BOND
     1     6     7    1
     2     3    14    1
     3    14    15    1
     4    14    16    1
     5    16    17    1
     6    17    18    2
     7    18    19    1
     8    19    20    2
     9    20    21    1
    10    21    22    2
    11     9     8    1
    12     7     8   ar
    13     8    12   ar
    14    12    13   ar
    15    13    11   ar
    16    11    10   ar
    17    10     7   ar
    18     1     2   ar
    19     2     6   ar
    20     6     5   ar
    21     5     4   ar
    22     4     3   ar
    23     3     1   ar
