@<TRIPOS>MOLECULE
No_739-gen_results/8p0m/2024-11-26-14-13-15/
 16 18 0 0 0
SMALL
GASTEIGER

@<TRIPOS>ATOM
      1 C         -28.0162   -0.8135   28.8779 C.ar    1  UNL1        0.0607
      2 C         -28.4690   -0.7850   29.8287 C.ar    1  UNL1        0.0116
      3 CL        -26.4397   -1.2211   28.7817 Cl      1  UNL1       -0.0821
      4 C         -29.8965   -0.4651   29.9695 C.ar    1  UNL1        0.0039
      5 C         -30.5364   -0.0853   28.7782 C.ar    1  UNL1        0.0340
      6 C         -29.8040   -0.0361   27.6569 C.ar    1  UNL1        0.1412
      7 C         -28.4971   -0.3404   27.6454 C.ar    1  UNL1        0.0483
      8 O         -30.3653    0.3533   26.4519 O.3     1  UNL1       -0.4593
      9 C         -31.9800    0.2969   28.7951 C.ar    1  UNL1        0.0035
     10 C         -32.8076   -0.1384   29.5233 C.ar    1  UNL1       -0.0001
     11 C         -34.1846    0.3170   29.5310 C.ar    1  UNL1       -0.0000
     12 C         -34.5273    1.2204   28.5122 C.ar    1  UNL1       -0.0002
     13 C         -33.5903    1.6670   27.6326 C.ar    1  UNL1        0.0005
     14 C         -32.2909    1.2851   27.7309 C.ar    1  UNL1        0.0334
     15 C         -31.6176    0.8183   26.4356 C.3     1  UNL1        0.2681
     16 CL        -32.1919    1.2165   24.9344 Cl      1  UNL1       -0.0634
@<TRIPOS>BOND
     1     1     3    1
     2     6     8    1
     3     5     9    1
     4     8    15    1
     5    14    15    1
     6    15    16    1
     7     9    10   ar
     8    10    11   ar
     9    11    12   ar
    10    12    13   ar
    11    13    14   ar
    12    14     9   ar
    13     1     2   ar
    14     2     4   ar
    15     4     5   ar
    16     5     6   ar
    17     6     7   ar
    18     7     1   ar
