@<TRIPOS>MOLECULE
No_74-gen_results/8p0m/2024-11-26-14-13-15/
 14 15 0 0 0
SMALL
GASTEIGER

@<TRIPOS>ATOM
      1 C         -28.0162   -0.8135   28.8779 C.ar    1  UNL1       -0.0000
      2 C         -27.0636   -0.1189   28.6079 C.ar    1  UNL1       -0.0000
      3 C         -27.0010    0.6913   27.4910 C.ar    1  UNL1       -0.0003
      4 C         -28.1373    0.7363   26.6350 C.ar    1  UNL1       -0.0040
      5 C         -28.1438    1.4323   25.4881 C.2     1  UNL1       -0.0227
      6 C         -29.2801   -0.5524   28.2480 C.ar    1  UNL1       -0.0000
      7 C         -29.2552    0.0950   27.0446 C.ar    1  UNL1       -0.0003
      8 C         -28.2044    1.4987   24.4412 C.2     1  UNL1       -0.0301
      9 C         -28.3936    2.5732   23.5551 C.3     1  UNL1        0.0264
     10 C         -28.2846    2.9095   25.8008 C.3     1  UNL1        0.0439
     11 C         -28.1836    3.5995   27.0290 C.2     1  UNL1       -0.0266
     12 C         -28.3817    3.6354   24.5103 C.3     1  UNL1        0.0134
     13 C         -29.1751    4.5025   27.2054 C.2     1  UNL1       -0.0300
     14 C         -29.1798    5.2188   28.4607 C.3     1  UNL1        0.0304
@<TRIPOS>BOND
     1     4     5    1
     2     5     8    2
     3     8     9    1
     4     5    10    1
     5    10    11    1
     6     9    12    1
     7    10    12    1
     8    11    13    2
     9    13    14    1
    10     1     2   ar
    11     2     3   ar
    12     3     4   ar
    13     4     7   ar
    14     7     6   ar
    15     6     1   ar
