@<TRIPOS>MOLECULE
No_741-gen_results/8p0m/2024-11-26-14-13-15/
 14 15 0 0 0
SMALL
GASTEIGER

@<TRIPOS>ATOM
      1 C         -28.0162   -0.8135   28.8779 C.ar    1  UNL1       -0.0000
      2 C         -27.0636   -0.1189   28.6079 C.ar    1  UNL1       -0.0003
      3 C         -25.7647   -0.3897   29.0360 C.ar    1  UNL1       -0.0024
      4 C         -24.5516    0.4058   28.7646 C.ar    1  UNL1       -0.0000
      5 C         -23.2300    0.1178   29.2575 C.ar    1  UNL1       -0.0027
      6 C         -23.0942   -1.1309   29.8730 C.ar    1  UNL1       -0.0003
      7 C         -27.7980   -1.9341   29.8560 C.ar    1  UNL1       -0.0000
      8 C         -26.5420   -2.3268   30.2580 C.ar    1  UNL1       -0.0000
      9 C         -25.4913   -1.6691   29.9529 C.ar    1  UNL1       -0.0003
     10 C         -24.1600   -1.9444   30.2903 C.ar    1  UNL1       -0.0000
     11 C         -24.6566    1.6434   27.9604 C.3     1  UNL1        0.1664
     12 CL        -24.8211    1.5848   26.5744 Cl      1  UNL1       -0.1017
     13 C         -24.7017    2.8650   28.7675 C.2     1  UNL1        0.2278
     14 O         -24.7820    3.9435   28.0527 O.2     1  UNL1       -0.2866
@<TRIPOS>BOND
     1     4    11    1
     2    11    12    1
     3    11    13    1
     4    13    14    2
     5     1     2   ar
     6     2     3   ar
     7     9     8   ar
     8     8     7   ar
     9     7     1   ar
    10     3     4   ar
    11     4     5   ar
    12     5     6   ar
    13     6    10   ar
    14    10     9   ar
    15     9     3   ar
