@<TRIPOS>MOLECULE
No_742-gen_results/8p0m/2024-11-26-14-13-15/
 23 25 0 0 0
SMALL
GASTEIGER

@<TRIPOS>ATOM
      1 CL        -28.1493   -0.8198   28.9079 Cl      1  UNL1       -0.0970
      2 C         -26.9116   -0.0797   28.9452 C.3     1  UNL1        0.1390
      3 N         -26.1080   -0.1167   27.9325 N.3     1  UNL1       -0.2562
      4 C         -24.7481   -0.2847   27.9648 C.3     1  UNL1        0.0885
      5 C         -24.0999    0.0517   28.8286 C.3     1  UNL1        0.1074
      6 C         -22.6177   -0.0070   28.9817 C.1     1  UNL1        0.0735
      7 C         -24.6710    0.5879   30.1639 C.3     1  UNL1        0.0192
      8 C         -26.1972    0.2336   30.2384 C.3     1  UNL1        0.0339
      9 N         -21.4897    0.5268   28.8387 N.1     1  UNL1       -0.1958
     10 C         -26.7529    0.1381   26.6121 C.3     1  UNL1        0.1001
     11 C         -26.7096    1.5333   26.2216 C.ar    1  UNL1       -0.0039
     12 C         -25.6099    2.0862   26.3367 C.ar    1  UNL1        0.0267
     13 C         -25.4719    3.5787   26.4489 C.ar    1  UNL1        0.1399
     14 C         -26.6817    4.2561   26.1675 C.ar    1  UNL1        0.0296
     15 C         -27.8945    3.5854   26.0675 C.ar    1  UNL1        0.0020
     16 C         -27.9158    2.2172   26.1247 C.ar    1  UNL1       -0.0025
     17 C         -29.1710    1.5315   25.9722 C.ar    1  UNL1       -0.0003
     18 C         -29.5453    1.0509   24.8311 C.ar    1  UNL1       -0.0000
     19 C         -30.7091    0.2479   24.6468 C.ar    1  UNL1       -0.0000
     20 C         -31.4578   -0.1275   25.7680 C.ar    1  UNL1       -0.0000
     21 C         -31.0815    0.3590   27.0133 C.ar    1  UNL1       -0.0000
     22 C         -29.9437    1.1831   27.1826 C.ar    1  UNL1       -0.0000
     23 F         -24.3592    4.1853   26.4263 F       1  UNL1       -0.2042
@<TRIPOS>BOND
     1     1     2    1
     2     2     3    1
     3     3     4    1
     4     5     6    1
     5     5     7    1
     6     2     8    1
     7     6     9    3
     8     3    10    1
     9    10    11    1
    10    16    17    1
    11    13    23    1
    12     8     7    1
    13     5     4    1
    14    17    18   ar
    15    18    19   ar
    16    19    20   ar
    17    20    21   ar
    18    21    22   ar
    19    22    17   ar
    20    11    12   ar
    21    12    13   ar
    22    13    14   ar
    23    14    15   ar
    24    15    16   ar
    25    16    11   ar
