@<TRIPOS>MOLECULE
No_743-gen_results/8p0m/2024-11-26-14-13-15/
 26 28 0 0 0
SMALL
GASTEIGER

@<TRIPOS>ATOM
      1 C         -28.0162   -0.8135   28.8779 C.ar    1  UNL1        0.0064
      2 C         -27.0636   -0.1189   28.6079 C.ar    1  UNL1        0.0002
      3 C         -25.7923   -0.4302   29.0761 C.ar    1  UNL1        0.0001
      4 C         -24.5456    0.3494   28.8225 C.ar    1  UNL1        0.0032
      5 C         -23.2409    0.0217   29.3323 C.ar    1  UNL1        0.0002
      6 C         -27.8820   -1.8995   29.8633 C.ar    1  UNL1        0.0757
      7 C         -26.6706   -2.3272   30.3212 C.ar    1  UNL1        0.0064
      8 C         -25.5433   -1.5852   29.9316 C.ar    1  UNL1        0.0002
      9 C         -22.1918    0.8302   29.0004 C.ar    1  UNL1        0.0033
     10 C         -22.1472    1.7783   28.0287 C.ar    1  UNL1        0.0420
     11 C         -24.5322    1.3987   27.8163 C.ar    1  UNL1        0.0420
     12 C         -23.3620    2.0694   27.4607 C.ar    1  UNL1        0.1957
     13 C         -29.0683   -2.7198   30.2979 C.2     1  UNL1        0.3417
     14 O         -29.0092   -3.9279   30.2794 O.2     1  UNL1       -0.2449
     15 O         -30.2255   -2.1356   30.3547 O.3     1  UNL1       -0.4352
     16 O         -23.6288    3.0793   26.5887 O.3     1  UNL1       -0.2866
     17 C         -31.1410   -2.5116   31.1109 C.3     1  UNL1        0.2948
     18 C         -32.2538   -1.6309   31.2028 C.2     1  UNL1        0.2902
     19 O         -32.1770   -0.5652   30.7381 O.2     1  UNL1       -0.2689
     20 N         -33.4192   -2.0433   31.7872 N.am    1  UNL1       -0.1761
     21 C         -34.6037   -1.2029   31.8550 C.ar    1  UNL1        0.0735
     22 C         -35.5748   -1.5196   32.2347 C.ar    1  UNL1        0.0166
     23 C         -36.8093   -0.6518   32.2521 C.ar    1  UNL1        0.0013
     24 C         -36.6407    0.6501   31.7126 C.ar    1  UNL1        0.0001
     25 C         -35.3940    0.9937   31.2112 C.ar    1  UNL1        0.0013
     26 C         -34.3449    0.1640   31.2510 C.ar    1  UNL1        0.0166
@<TRIPOS>BOND
     1     3     4    1
     2     6    13    1
     3    13    14    2
     4    13    15    1
     5    12    16    1
     6    15    17    1
     7    17    18    1
     8    18    19    2
     9    18    20   am
    10    20    21    1
    11     1     2   ar
    12     2     3   ar
    13     3     8   ar
    14     8     7   ar
    15     7     6   ar
    16     6     1   ar
    17     4     5   ar
    18     5     9   ar
    19     9    10   ar
    20    10    12   ar
    21    12    11   ar
    22    11     4   ar
    23    21    22   ar
    24    22    23   ar
    25    23    24   ar
    26    24    25   ar
    27    25    26   ar
    28    26    21   ar
