@<TRIPOS>MOLECULE
No_744-gen_results/8p0m/2024-11-26-14-13-15/
 12 13 0 0 0
SMALL
GASTEIGER

@<TRIPOS>ATOM
      1 O         -28.1229   -1.3353   28.4874 O.2     1  UNL1       -0.2745
      2 C         -27.4806   -0.4044   28.7094 C.2     1  UNL1        0.2304
      3 C         -26.3804   -0.0867   27.9394 C.3     1  UNL1        0.1113
      4 N         -27.4232    0.1749   30.0549 N.am    1  UNL1       -0.2734
      5 C         -25.8482    1.0048   27.9942 C.ar    1  UNL1       -0.0154
      6 C         -25.8487    1.7377   29.2952 C.ar    1  UNL1       -0.0058
      7 C         -26.7619    1.3299   30.2362 C.3     1  UNL1        0.1199
      8 C         -24.7793    1.5541   27.0752 C.ar    1  UNL1       -0.0040
      9 C         -23.9996    2.5382   27.2826 C.ar    1  UNL1       -0.0003
     10 C         -24.2163    3.2768   28.5125 C.ar    1  UNL1       -0.0003
     11 C         -25.0261    2.9187   29.4545 C.ar    1  UNL1       -0.0029
     12 C         -28.1044   -0.6268   30.9950 C.3     1  UNL1        0.1152
@<TRIPOS>BOND
     1     1     2    2
     2     2     3    1
     3     2     4   am
     4     4     7    1
     5     4    12    1
     6     3     5    1
     7     6     7    1
     8     5     6   ar
     9     6    11   ar
    10    11    10   ar
    11    10     9   ar
    12     9     8   ar
    13     8     5   ar
