@<TRIPOS>MOLECULE
No_745-gen_results/8p0m/2024-11-26-14-13-15/
 20 21 0 0 0
SMALL
GASTEIGER

@<TRIPOS>ATOM
      1 C         -28.0162   -0.8135   28.8779 C.3     1  UNL1        0.1150
      2 C         -27.0636   -0.1189   28.6079 C.ar    1  UNL1       -0.0048
      3 C         -27.0010    0.6913   27.4910 C.ar    1  UNL1       -0.0032
      4 C         -25.8548    1.4825   27.0830 C.ar    1  UNL1       -0.0034
      5 C         -24.6901    1.4526   27.8807 C.ar    1  UNL1       -0.0075
      6 C         -24.7379    0.6010   29.0416 C.ar    1  UNL1       -0.0034
      7 C         -25.8234   -0.1688   29.3887 C.ar    1  UNL1       -0.0032
      8 N         -28.7568   -0.5479   30.0191 N.3     1  UNL1       -0.2118
      9 C         -29.7597   -1.3260   30.5171 C.3     1  UNL1        0.1064
     10 C         -30.2314   -2.2937   29.8869 C.3     1  UNL1        0.0906
     11 N         -30.7225   -3.1853   30.2949 N.3     1  UNL1       -0.2180
     12 C         -31.1452   -4.3774   29.5864 C.3     1  UNL1        0.0891
     13 C         -23.5283    2.2072   27.5606 C.3     1  UNL1        0.1021
     14 CL        -22.3302    2.3132   28.5967 Cl      1  UNL1       -0.1102
     15 C         -23.3713    2.7089   26.2054 C.3     1  UNL1        0.0223
     16 C         -32.0595   -4.1656   28.5852 C.3     1  UNL1        0.0266
     17 C         -31.9837   -2.8732   28.0517 C.3     1  UNL1        0.0678
     18 C         -31.2235   -1.8905   28.7464 C.3     1  UNL1        0.0267
     19 C         -32.6882   -2.5360   26.8245 C.2     1  UNL1        0.2070
     20 O         -32.9871   -3.3001   26.0286 O.2     1  UNL1       -0.2883
@<TRIPOS>BOND
     1     1     2    1
     2     1     8    1
     3     8     9    1
     4     9    10    1
     5    10    11    1
     6    11    12    1
     7     5    13    1
     8    13    14    1
     9    13    15    1
    10    12    16    1
    11    16    17    1
    12    10    18    1
    13    17    18    1
    14    17    19    1
    15    19    20    2
    16     2     3   ar
    17     3     4   ar
    18     4     5   ar
    19     5     6   ar
    20     6     7   ar
    21     7     2   ar
