@<TRIPOS>MOLECULE
No_748-gen_results/8p0m/2024-11-26-14-13-15/
 10 10 0 0 0
SMALL
GASTEIGER

@<TRIPOS>ATOM
      1 C         -28.0162   -0.8135   28.8779 C.ar    1  UNL1        0.0046
      2 C         -28.4690   -0.7850   29.8287 C.ar    1  UNL1        0.0550
      3 C         -26.5455   -0.8762   28.8500 C.ar    1  UNL1        0.0001
      4 C         -25.8974   -0.8267   29.8894 C.ar    1  UNL1        0.0000
      5 C         -27.9129   -0.8385   31.1942 C.ar    1  UNL1        0.0046
      6 C         -26.5519   -0.8324   31.1775 C.ar    1  UNL1        0.0001
      7 C         -30.0723   -0.7940   29.9383 C.2     1  UNL1        0.2648
      8 O         -30.7088   -0.3443   29.2152 O.2     1  UNL1       -0.2684
      9 N         -30.6327   -1.5693   31.0285 N.am    1  UNL1       -0.1998
     10 C         -32.0516   -1.6891   31.0953 C.3     1  UNL1        0.1388
@<TRIPOS>BOND
     1     2     7    1
     2     7     8    2
     3     7     9   am
     4     9    10    1
     5     1     2   ar
     6     2     5   ar
     7     5     6   ar
     8     6     4   ar
     9     4     3   ar
    10     3     1   ar
