@<TRIPOS>MOLECULE
No_749-gen_results/8p0m/2024-11-26-14-13-15/
 12 12 0 0 0
SMALL
GASTEIGER

@<TRIPOS>ATOM
      1 O         -28.1229   -1.3353   28.4874 O.2     1  UNL1       -0.2730
      2 C         -28.5208   -0.4363   29.0779 C.2     1  UNL1        0.2450
      3 C         -28.5894    0.5916   28.9464 C.3     1  UNL1        0.1002
      4 N         -28.7865   -0.8872   30.4874 N.am    1  UNL1       -0.2052
      5 C         -29.3324    1.6324   29.5095 C.3     1  UNL1        0.0154
      6 C         -27.9025    1.1652   27.6321 C.2     1  UNL1       -0.0173
      7 C         -29.5000   -0.0122   31.3474 C.3     1  UNL1        0.1152
      8 C         -29.6599    1.2918   30.8822 C.3     1  UNL1        0.0243
      9 C         -28.4007    1.3132   26.5532 C.2     1  UNL1       -0.0044
     10 C         -27.6704    1.6707   25.3466 C.2     1  UNL1       -0.0049
     11 C         -26.2613    1.7684   25.3507 C.2     1  UNL1       -0.0258
     12 C         -25.6384    1.5628   26.4536 C.3     1  UNL1        0.0307
@<TRIPOS>BOND
     1     1     2    2
     2     2     3    1
     3     2     4   am
     4     3     5    1
     5     3     6    1
     6     5     8    1
     7     7     8    1
     8     6     9    2
     9     9    10    1
    10    10    11    2
    11    11    12    1
    12     7     4    1
