@<TRIPOS>MOLECULE
No_75-gen_results/8p0m/2024-11-26-14-13-15/
 27 28 0 0 0
SMALL
GASTEIGER

@<TRIPOS>ATOM
      1 C         -28.0162   -0.8135   28.8779 C.ar    1  UNL1        0.0680
      2 C         -27.0636   -0.1189   28.6079 C.ar    1  UNL1        0.0645
      3 C         -26.9716    0.7139   27.5060 C.ar    1  UNL1       -0.0022
      4 C         -28.1053    0.7744   26.6421 C.ar    1  UNL1        0.0014
      5 C         -29.2008    0.1044   27.0527 C.ar    1  UNL1        0.0545
      6 C         -29.2096   -0.6029   28.1853 C.ar    1  UNL1        0.0168
      7 C         -30.4815    0.1441   26.3452 C.2     1  UNL1        0.2528
      8 N         -31.2620    1.1482   26.5381 N.am    1  UNL1       -0.2534
      9 O         -30.6726   -0.5359   25.3365 O.2     1  UNL1       -0.2696
     10 C         -32.4949    1.3555   25.8199 C.3     1  UNL1        0.1203
     11 CL        -28.0157   -1.7915   30.3413 Cl      1  UNL1       -0.0814
     12 C         -31.0604    2.1072   27.6636 C.ar    1  UNL1        0.0541
     13 CL        -25.5017   -0.2376   29.5795 Cl      1  UNL1       -0.0817
     14 C         -25.6659    1.4402   27.1078 C.3     1  UNL1        0.1305
     15 C         -25.6159    2.7286   27.5247 C.3     1  UNL1        0.4018
     16 F         -25.7070    3.1836   28.5298 F       1  UNL1       -0.1697
     17 F         -26.4937    3.4834   26.5990 F       1  UNL1       -0.1697
     18 F         -24.3862    3.2314   26.8583 F       1  UNL1       -0.1697
     19 C         -30.8374    3.1274   27.7380 C.ar    1  UNL1        0.0149
     20 C         -30.5682    4.0449   28.3404 C.ar    1  UNL1        0.0012
     21 C         -30.3998    3.7100   29.7808 C.ar    1  UNL1        0.0039
     22 C         -30.6269    2.3646   30.0781 C.ar    1  UNL1        0.0727
     23 C         -30.8762    1.4739   29.0347 C.ar    1  UNL1        0.0188
     24 C         -30.4590    1.9076   31.5178 C.3     1  UNL1        0.4186
     25 F         -31.1873    0.9768   31.9073 F       1  UNL1       -0.1659
     26 F         -29.1314    1.5001   31.6807 F       1  UNL1       -0.1659
     27 F         -30.6134    2.9416   32.3416 F       1  UNL1       -0.1659
@<TRIPOS>BOND
     1     5     7    1
     2     7     8   am
     3     7     9    2
     4     8    10    1
     5     1    11    1
     6     8    12    1
     7     2    13    1
     8     3    14    1
     9    14    15    1
    10    15    16    1
    11    15    17    1
    12    15    18    1
    13    22    24    1
    14    24    25    1
    15    24    26    1
    16    24    27    1
    17     1     2   ar
    18     2     3   ar
    19     3     4   ar
    20     4     5   ar
    21     5     6   ar
    22     6     1   ar
    23    12    19   ar
    24    19    20   ar
    25    20    21   ar
    26    21    22   ar
    27    22    23   ar
    28    23    12   ar
