@<TRIPOS>MOLECULE
No_750-gen_results/8p0m/2024-11-26-14-13-15/
 16 18 0 0 0
SMALL
GASTEIGER

@<TRIPOS>ATOM
      1 C         -28.0162   -0.8135   28.8779 C.ar    1  UNL1        0.0114
      2 C         -27.0636   -0.1189   28.6079 C.ar    1  UNL1        0.0577
      3 C         -26.9287    1.1713   29.0083 C.ar    1  UNL1        0.0111
      4 C         -27.9560    1.7411   29.7840 C.ar    1  UNL1       -0.0029
      5 C         -29.0569   -0.3271   29.7466 C.ar    1  UNL1        0.0009
      6 C         -28.9828    0.9722   30.1516 C.ar    1  UNL1       -0.0002
      7 CL        -25.7352   -0.7297   27.6631 Cl      1  UNL1       -0.0822
      8 C         -30.0810    1.5109   31.0109 C.ar    1  UNL1        0.0001
      9 C         -29.7604    2.4457   31.8403 C.ar    1  UNL1        0.0042
     10 C         -28.6097    3.3383   31.4436 C.ar    1  UNL1        0.0511
     11 C         -28.2815    4.5635   32.1981 C.2     1  UNL1        0.2645
     12 C         -27.6417    2.9304   30.5127 C.ar    1  UNL1       -0.0159
     13 O         -28.7422    4.9182   33.1991 O.2     1  UNL1       -0.2684
     14 N         -27.2141    5.3515   31.6529 N.am    1  UNL1       -0.2013
     15 C         -26.4456    4.9738   30.6208 C.3     1  UNL1        0.1201
     16 C         -26.5880    3.7405   30.0251 C.3     1  UNL1        0.0499
@<TRIPOS>BOND
     1     2     7    1
     2    10    11    1
     3    11    13    2
     4    11    14   am
     5    12    16    1
     6    15    16    1
     7    15    14    1
     8     6     8   ar
     9     8     9   ar
    10     9    10   ar
    11    10    12   ar
    12    12     4   ar
    13     1     2   ar
    14     2     3   ar
    15     3     4   ar
    16     4     6   ar
    17     6     5   ar
    18     5     1   ar
