@<TRIPOS>MOLECULE
No_752-gen_results/8p0m/2024-11-26-14-13-15/
 35 37 0 0 0
SMALL
GASTEIGER

@<TRIPOS>ATOM
      1 C         -28.0162   -0.8135   28.8779 C.ar    1  UNL1        0.0605
      2 C         -27.0636   -0.1189   28.6079 C.ar    1  UNL1        0.0449
      3 C         -26.9716    0.7139   27.5060 C.ar    1  UNL1        0.1416
      4 C         -28.1053    0.7744   26.6421 C.ar    1  UNL1        0.0363
      5 C         -29.2041    0.1179   27.0477 C.ar    1  UNL1        0.0833
      6 C         -29.2127   -0.6088   28.1281 C.ar    1  UNL1        0.0220
      7 C         -30.3709    0.2326   26.1381 C.2     1  UNL1        0.3879
      8 O         -31.2520   -0.4036   26.3042 O.co2   1  UNL1       -0.2406
      9 O         -30.4407    1.2587   25.2951 O.co2   1  UNL1       -0.2406
     10 F         -25.8105    1.3552   27.1733 F       1  UNL1       -0.2041
     11 N         -28.0325   -1.6074   30.0675 N.am    1  UNL1       -0.2377
     12 C         -28.7839   -1.6232   31.0391 C.2     1  UNL1        0.0342
     13 C         -27.3002   -2.8947   29.8618 C.2     1  UNL1        0.2562
     14 C         -25.8920   -2.7396   29.7403 C.ar    1  UNL1        0.0539
     15 C         -25.0885   -3.7242   29.1511 C.ar    1  UNL1        0.0045
     16 C         -23.7160   -3.4062   28.8799 C.ar    1  UNL1       -0.0001
     17 C         -23.2462   -2.0942   29.0060 C.ar    1  UNL1       -0.0031
     18 C         -24.0547   -1.1140   29.6204 C.ar    1  UNL1       -0.0073
     19 C         -25.3578   -1.4384   29.9538 C.ar    1  UNL1        0.0014
     20 C         -28.7944   -0.4276   31.8489 C.2     1  UNL1       -0.0152
     21 C         -29.5940   -0.2767   32.9190 C.3     1  UNL1        0.0298
     22 C         -30.2489   -1.9424   30.8338 C.3     1  UNL1        0.0754
     23 C         -31.0849   -2.0468   32.0671 C.3     1  UNL1        0.1541
     24 C         -31.0632   -0.6992   32.7919 C.3     1  UNL1        0.0391
     25 O         -27.7548   -3.9591   30.0076 O.2     1  UNL1       -0.2692
     26 F         -32.4319   -2.2120   31.7050 F       1  UNL1       -0.2382
     27 C         -30.6427   -3.1282   32.9548 C.3     1  UNL1        0.1098
     28 N         -30.2547   -4.1834   32.5684 N.3     1  UNL1       -0.2158
     29 C         -29.6824   -5.1461   33.2972 C.3     1  UNL1        0.3748
     30 C         -30.6404   -4.8089   31.2919 C.3     1  UNL1        0.0945
     31 F         -29.0416   -4.6424   34.3388 F       1  UNL1       -0.1814
     32 O         -30.5158   -6.1042   33.7994 O.3     1  UNL1       -0.1651
     33 C         -23.4008    0.1796   29.8374 C.3     1  UNL1        0.1021
     34 CL        -22.8657    1.0131   29.4476 Cl      1  UNL1       -0.1102
     35 C         -23.3030    0.1660   31.4402 C.3     1  UNL1        0.0223
@<TRIPOS>BOND
     1     5     7    1
     2     7     8   ar
     3     7     9   ar
     4     3    10    1
     5     1    11    1
     6    11    12    1
     7    11    13   am
     8    13    14    1
     9    12    20    2
    10    20    21    1
    11    12    22    1
    12    22    23    1
    13    21    24    1
    14    23    24    1
    15    13    25    2
    16    23    26    1
    17    23    27    1
    18    27    28    1
    19    28    29    1
    20    28    30    1
    21    29    31    1
    22    29    32    1
    23    18    33    1
    24    33    34    1
    25    33    35    1
    26     1     2   ar
    27     2     3   ar
    28     3     4   ar
    29     4     5   ar
    30     5     6   ar
    31     6     1   ar
    32    14    15   ar
    33    15    16   ar
    34    16    17   ar
    35    17    18   ar
    36    18    19   ar
    37    19    14   ar
