@<TRIPOS>MOLECULE
No_755-gen_results/8p0m/2024-11-26-14-13-15/
 35 38 0 0 0
SMALL
GASTEIGER

@<TRIPOS>ATOM
      1 C         -28.0162   -0.8135   28.8779 C.2     1  UNL1        0.2519
      2 C         -27.0636   -0.1190   28.6079 C.ar    1  UNL1        0.0538
      3 C         -26.9287    1.1713   29.0083 C.ar    1  UNL1        0.0092
      4 C         -25.7702    2.0341   28.6884 C.ar    1  UNL1        0.0600
      5 C         -24.7141    1.4431   27.9188 C.ar    1  UNL1        0.0800
      6 C         -24.8590    0.0783   27.5836 C.ar    1  UNL1        0.0067
      7 C         -25.9647   -0.6606   27.9164 C.ar    1  UNL1        0.0047
      8 N         -27.9820   -1.6112   30.1028 N.am    1  UNL1       -0.2327
      9 C         -23.5351    2.1704   27.5550 C.2     1  UNL1        0.3415
     10 O         -23.4187    3.0100   26.9973 O.2     1  UNL1       -0.2449
     11 O         -22.3480    1.4860   27.9792 O.3     1  UNL1       -0.4413
     12 O         -29.2108   -0.5893   28.5143 O.2     1  UNL1       -0.2698
     13 C         -29.0414   -2.4963   30.5784 C.3     1  UNL1        0.3487
     14 C         -26.6877   -1.8940   30.7796 C.3     1  UNL1        0.1191
     15 C         -28.8643   -3.8433   30.2544 C.2     1  UNL1        0.3834
     16 O         -29.7648   -4.6894   30.4218 O.3     1  UNL1       -0.4173
     17 O         -27.6885   -4.3391   29.8941 O.2     1  UNL1       -0.2436
     18 C         -25.6486    3.4175   29.0645 C.2     1  UNL1        0.2492
     19 O         -25.4726    3.6590   30.3078 O.2     1  UNL1       -0.2699
     20 N         -26.2112    4.3803   28.3270 N.am    1  UNL1       -0.2761
     21 C         -26.7239    4.3113   27.0201 C.3     1  UNL1        0.0937
     22 C         -26.1503    5.8115   28.7899 C.3     1  UNL1        0.0937
     23 C         -26.5126    6.7025   28.0601 C.3     1  UNL1        0.0216
     24 C         -27.1482    6.5835   26.8353 C.3     1  UNL1        0.0035
     25 C         -27.2912    5.3131   26.3841 C.3     1  UNL1        0.0216
     26 C         -21.2141    1.6314   27.2780 C.3     1  UNL1        0.2560
     27 C         -30.9692   -4.3654   30.1550 C.ar    1  UNL1        0.1821
     28 C         -31.6323   -5.3477   29.5014 C.ar    1  UNL1        0.0379
     29 C         -32.4460   -5.0427   28.4982 C.ar    1  UNL1        0.0001
     30 C         -32.9118   -3.6732   28.3206 C.ar    1  UNL1        0.0005
     31 C         -32.2061   -2.7094   29.0082 C.ar    1  UNL1        0.0399
     32 C         -31.2645   -3.0531   29.8432 C.ar    1  UNL1        0.1754
     33 O         -30.4593   -2.0294   30.4013 O.3     1  UNL1       -0.4480
     34 C         -33.2538   -6.0497   27.7265 C.3     1  UNL1        0.1357
     35 N         -33.2037   -7.1664   27.7526 N.3     1  UNL1       -0.1262
@<TRIPOS>BOND
     1     1     2    1
     2     1     8   am
     3     5     9    1
     4     9    10    2
     5     9    11    1
     6     1    12    2
     7     8    13    1
     8     8    14    1
     9    13    15    1
    10    15    16    1
    11    15    17    2
    12     4    18    1
    13    18    19    2
    14    18    20   am
    15    20    21    1
    16    20    22    1
    17    23    24    1
    18    11    26    1
    19    16    27    1
    20    13    33    1
    21    32    33    1
    22    29    34    1
    23    34    35    1
    24    21    25    1
    25    25    24    1
    26    23    22    1
    27     2     3   ar
    28     3     4   ar
    29     4     5   ar
    30     5     6   ar
    31     6     7   ar
    32     7     2   ar
    33    27    28   ar
    34    28    29   ar
    35    29    30   ar
    36    30    31   ar
    37    31    32   ar
    38    32    27   ar
