@<TRIPOS>MOLECULE
No_757-gen_results/8p0m/2024-11-26-14-13-15/
 9 9 0 0 0
SMALL
GASTEIGER

@<TRIPOS>ATOM
      1 C         -28.0162   -0.8135   28.8779 C.3     1  UNL1        0.0468
      2 C         -27.0636   -0.1190   28.6079 C.ar    1  UNL1       -0.0207
      3 C         -27.0010    0.6913   27.4910 C.ar    1  UNL1       -0.0042
      4 C         -25.7770    1.0214   26.9135 C.ar    1  UNL1       -0.0003
      5 C         -24.5088    0.7364   27.5686 C.ar    1  UNL1       -0.0000
      6 C         -24.5930   -0.0361   28.7390 C.ar    1  UNL1       -0.0003
      7 C         -25.8114   -0.4771   29.1584 C.ar    1  UNL1       -0.0042
      8 C         -28.6413   -0.4024   30.1937 C.3     1  UNL1        0.1140
      9 N         -29.5986   -1.1418   30.7315 N.3     1  UNL1       -0.1310
@<TRIPOS>BOND
     1     1     2    1
     2     1     8    1
     3     8     9    1
     4     2     3   ar
     5     3     4   ar
     6     4     5   ar
     7     5     6   ar
     8     6     7   ar
     9     7     2   ar
