@<TRIPOS>MOLECULE
No_758-gen_results/8p0m/2024-11-26-14-13-15/
 15 15 0 0 0
SMALL
GASTEIGER

@<TRIPOS>ATOM
      1 C         -28.0162   -0.8135   28.8779 C.ar    1  UNL1        0.0002
      2 C         -27.0636   -0.1189   28.6079 C.ar    1  UNL1        0.0000
      3 C         -26.9716    0.7139   27.5060 C.ar    1  UNL1        0.0002
      4 C         -28.1053    0.7744   26.6421 C.ar    1  UNL1        0.0066
      5 C         -29.2041    0.1179   27.0477 C.ar    1  UNL1        0.0798
      6 C         -29.2127   -0.6088   28.1281 C.ar    1  UNL1        0.0066
      7 C         -30.3709    0.2326   26.1381 C.2     1  UNL1        0.3878
      8 O         -30.3086    0.1051   24.9412 O.co2   1  UNL1       -0.2406
      9 O         -31.5062    0.6703   26.6087 O.co2   1  UNL1       -0.2406
     10 C         -25.6643    1.4033   27.1243 C.2     1  UNL1        0.0000
     11 C         -24.5312    1.0373   27.7279 C.2     1  UNL1        0.0000
     12 C         -23.3051    1.8003   27.4012 C.2     1  UNL1        0.0000
     13 C         -22.0914    1.5753   28.0889 C.2     1  UNL1        0.0000
     14 C         -22.0143    0.5392   29.0174 C.2     1  UNL1        0.0000
     15 C         -23.1337   -0.2686   29.3315 C.2     1  UNL1        0.0000
@<TRIPOS>BOND
     1     5     7    1
     2     7     8   ar
     3     7     9   ar
     4     3    10    1
     5    10    11    2
     6    11    12    1
     7    12    13    2
     8    13    14    1
     9    14    15    2
    10     1     2   ar
    11     2     3   ar
    12     3     4   ar
    13     4     5   ar
    14     5     6   ar
    15     6     1   ar
