@<TRIPOS>MOLECULE
No_76-gen_results/8p0m/2024-11-26-14-13-15/
 11 12 0 0 0
SMALL
GASTEIGER

@<TRIPOS>ATOM
      1 O         -28.1229   -1.3353   28.4874 O.2     1  UNL1       -0.2718
      2 C         -27.4806   -0.4044   28.7094 C.2     1  UNL1        0.2578
      3 C         -26.3804   -0.0867   27.9394 C.3     1  UNL1        0.1602
      4 N         -27.8993    0.6459   29.6320 N.am    1  UNL1       -0.2028
      5 N         -25.4476    0.7231   28.5094 N.3     1  UNL1       -0.2646
      6 C         -24.1961    0.9768   28.0598 C.3     1  UNL1        0.0725
      7 C         -23.2296    1.5101   28.9299 C.3     1  UNL1        0.0174
      8 C         -27.0473    1.5904   30.1038 C.3     1  UNL1        0.1310
      9 C         -25.4833    1.3350   29.9020 C.3     1  UNL1        0.0796
     10 C         -23.4113    1.9607   30.1184 C.3     1  UNL1        0.0029
     11 C         -24.6506    1.9488   30.5817 C.3     1  UNL1        0.0178
@<TRIPOS>BOND
     1     1     2    2
     2     2     3    1
     3     2     4   am
     4     3     5    1
     5     5     6    1
     6     6     7    1
     7     4     8    1
     8     5     9    1
     9     8     9    1
    10     9    11    1
    11    10    11    1
    12     7    10    1
