@<TRIPOS>MOLECULE
No_760-gen_results/8p0m/2024-11-26-14-13-15/
 19 19 0 0 0
SMALL
GASTEIGER

@<TRIPOS>ATOM
      1 C         -28.0162   -0.8135   28.8779 C.3     1  UNL1        0.0595
      2 C         -27.0636   -0.1189   28.6079 C.ar    1  UNL1       -0.0199
      3 C         -26.9716    0.7139   27.5060 C.ar    1  UNL1       -0.0043
      4 C         -25.8205    1.4909   27.1160 C.ar    1  UNL1        0.0035
      5 C         -24.6562    1.4242   27.9180 C.ar    1  UNL1        0.0714
      6 C         -24.6847    0.5901   29.0659 C.ar    1  UNL1        0.0035
      7 C         -25.8099   -0.1265   29.3338 C.ar    1  UNL1       -0.0043
      8 CA        -29.2444   -0.0768   29.2011 C.3     1  UNL1        0.1992
      9 C         -30.3707   -0.8034   29.6891 C.2     1  UNL1        0.3844
     10 C         -23.4608    2.1939   27.6006 C.3     1  UNL1        0.4186
     11 F         -22.5628    2.0657   28.3707 F       1  UNL1       -0.1659
     12 F         -23.7086    3.4986   27.4585 F       1  UNL1       -0.1659
     13 F         -22.9854    1.7895   26.3532 F       1  UNL1       -0.1659
     14 O         -31.4052   -0.8052   29.1332 O.co2   1  UNL1       -0.2437
     15 OXT       -30.2276   -1.5270   30.7987 O.co2   1  UNL1       -0.2437
     16 N         -28.9492    1.0152   30.1019 N.pl3   1  UNL1       -0.2266
     17 C         -29.0546    2.3183   29.7125 C.2     1  UNL1        0.0761
     18 C         -29.7014    2.7378   28.6480 C.2     1  UNL1       -0.0084
     19 C         -29.6278    4.1046   28.2968 C.3     1  UNL1        0.0321
@<TRIPOS>BOND
     1     1     8    1
     2     8     9    1
     3     5    10    1
     4    10    11    1
     5    10    12    1
     6    10    13    1
     7     9    14   ar
     8     9    15   ar
     9     8    16    1
    10    16    17    1
    11    17    18    2
    12    18    19    1
    13     1     2    1
    14     2     3   ar
    15     3     4   ar
    16     4     5   ar
    17     5     6   ar
    18     6     7   ar
    19     7     2   ar
