@<TRIPOS>MOLECULE
No_761-gen_results/8p0m/2024-11-26-14-13-15/
 30 34 0 0 0
SMALL
GASTEIGER

@<TRIPOS>ATOM
      1 C         -28.0162   -0.8135   28.8779 C.ar    1  UNL1        0.0369
      2 C         -27.0636   -0.1189   28.6079 C.ar    1  UNL1        0.0028
      3 C         -25.7647   -0.3897   29.0360 C.ar    1  UNL1       -0.0041
      4 C         -25.5296   -1.5302   29.9014 C.ar    1  UNL1       -0.0192
      5 C         -24.3236   -1.9076   30.4324 C.3     1  UNL1        0.0265
      6 C         -27.9274   -1.9227   29.7902 C.ar    1  UNL1        0.1387
      7 C         -26.6914   -2.2806   30.2948 C.ar    1  UNL1        0.0327
      8 C         -23.2806   -2.0391   29.4813 C.3     1  UNL1        0.0050
      9 O         -29.0049   -2.6569   30.1988 O.3     1  UNL1       -0.4707
     10 C         -28.9072   -3.9392   30.6003 C.3     1  UNL1        0.2320
     11 C         -30.1999   -4.6648   30.2607 C.ar    1  UNL1        0.0208
     12 C         -30.8888   -4.3174   29.1813 C.ar    1  UNL1       -0.0050
     13 C         -32.2999   -4.5457   29.3736 C.ar    1  UNL1       -0.0232
     14 C         -33.1889   -3.6221   28.8893 C.3     1  UNL1        0.0374
     15 C         -33.1331   -2.5069   29.5780 C.ar    1  UNL1       -0.0190
     16 C         -33.4892   -1.3240   29.2398 C.ar    1  UNL1       -0.0040
     17 C         -33.1322   -0.3776   29.2828 C.ar    1  UNL1       -0.0003
     18 C         -32.0907    0.0083   30.3473 C.ar    1  UNL1       -0.0000
     19 C         -31.6197   -1.1936   30.9376 C.ar    1  UNL1       -0.0003
     20 C         -32.0144   -2.4152   30.4741 C.ar    1  UNL1       -0.0040
     21 C         -30.5251   -5.0942   31.3927 C.ar    1  UNL1       -0.0010
     22 C         -31.7407   -5.9231   31.4309 C.ar    1  UNL1       -0.0048
     23 C         -32.6799   -5.6539   30.2241 C.ar    1  UNL1       -0.0259
     24 C         -34.5671   -4.2094   28.9494 C.3     1  UNL1        0.0078
     25 C         -32.8624   -3.5173   27.3476 C.3     1  UNL1        0.0081
     26 C         -35.4032   -4.3827   27.9370 C.3     1  UNL1        0.0006
     27 C         -33.7188   -3.8157   26.3163 C.3     1  UNL1        0.0007
     28 C         -35.0034   -4.2016   26.6419 C.3     1  UNL1        0.0000
     29 C         -34.9824   -4.6918   30.2798 C.3     1  UNL1        0.0053
     30 C         -34.0705   -5.2531   30.9186 C.3     1  UNL1        0.0261
@<TRIPOS>BOND
     1     4     5    1
     2     5     8    1
     3     6     9    1
     4     9    10    1
     5    10    11    1
     6    13    14    1
     7    14    15    1
     8    14    24    1
     9    14    25    1
    10    26    28    1
    11    27    28    1
    12    24    29    1
    13    23    30    1
    14    29    30    1
    15    24    26    1
    16    27    25    1
    17    15    16   ar
    18    16    17   ar
    19    17    18   ar
    20    18    19   ar
    21    19    20   ar
    22    20    15   ar
    23    11    12   ar
    24    12    13   ar
    25    13    23   ar
    26    23    22   ar
    27    22    21   ar
    28    21    11   ar
    29     1     2   ar
    30     2     3   ar
    31     3     4   ar
    32     4     7   ar
    33     7     6   ar
    34     6     1   ar
