@<TRIPOS>MOLECULE
No_763-gen_results/8p0m/2024-11-26-14-13-15/
 32 34 0 0 0
SMALL
GASTEIGER

@<TRIPOS>ATOM
      1 C         -28.0162   -0.8135   28.8779 C.ar    1  UNL1        0.1557
      2 C         -27.0636   -0.1189   28.6079 C.ar    1  UNL1        0.0384
      3 C         -25.7647   -0.3897   29.0360 C.ar    1  UNL1        0.0031
      4 C         -25.5296   -1.5302   29.9014 C.ar    1  UNL1        0.0011
      5 C         -26.6888   -2.2893   30.1810 C.ar    1  UNL1        0.0145
      6 C         -27.8727   -1.9508   29.7373 C.ar    1  UNL1        0.0921
      7 C         -24.7078    0.5670   28.7015 C.ar    1  UNL1        0.0000
      8 C         -23.4620    0.2939   29.1741 C.ar    1  UNL1       -0.0000
      9 C         -22.3635    1.1330   28.8239 C.ar    1  UNL1       -0.0001
     10 C         -22.5249    2.1143   27.8027 C.ar    1  UNL1        0.0039
     11 C         -24.7770    1.4879   27.6943 C.ar    1  UNL1        0.0039
     12 C         -23.7337    2.2549   27.2602 C.ar    1  UNL1        0.0714
     13 C         -23.9341    3.2527   26.1902 C.3     1  UNL1        0.4186
     14 CL        -29.2295   -2.9141   30.1894 Cl      1  UNL1       -0.0791
     15 F         -25.1297    3.3107   25.7780 F       1  UNL1       -0.1659
     16 F         -23.8085    4.6017   26.6729 F       1  UNL1       -0.1659
     17 F         -23.0712    3.0942   25.1729 F       1  UNL1       -0.1659
     18 O         -29.3076   -0.5742   28.4783 O.3     1  UNL1       -0.4527
     19 C         -29.7171    0.7819   28.5014 C.ar    1  UNL1        0.1492
     20 C         -29.9506    1.4003   29.5583 C.ar    1  UNL1        0.0383
     21 C         -30.3305    2.7695   29.5854 C.ar    1  UNL1        0.0133
     22 C         -30.6189    3.3918   28.3757 C.ar    1  UNL1        0.0578
     23 C         -30.0837    1.4335   27.2330 C.ar    1  UNL1        0.1067
     24 C         -30.4528    2.7170   27.2040 C.ar    1  UNL1        0.0183
     25 C         -29.8420    0.7365   25.9443 C.3     1  UNL1        0.4214
     26 F         -30.5807   -0.0971   25.6157 F       1  UNL1       -0.1657
     27 F         -28.4816    0.2105   25.9933 F       1  UNL1       -0.1657
     28 F         -29.5857    1.5803   24.9586 F       1  UNL1       -0.1657
     29 CL        -31.1053    5.0519   28.3880 Cl      1  UNL1       -0.0822
     30 C         -30.5886    3.4619   30.9207 C.2     1  UNL1       -0.0036
     31 C         -30.1475    4.2624   31.4619 C.2     1  UNL1       -0.0258
     32 C         -30.4577    4.7541   32.7708 C.3     1  UNL1        0.0307
@<TRIPOS>BOND
     1     3     7    1
     2    12    13    1
     3     6    14    1
     4    13    15    1
     5    13    16    1
     6    13    17    1
     7     1    18    1
     8    18    19    1
     9    23    25    1
    10    25    26    1
    11    25    27    1
    12    25    28    1
    13    22    29    1
    14    21    30    1
    15    30    31    2
    16    31    32    1
    17     7     8   ar
    18     8     9   ar
    19     9    10   ar
    20    10    12   ar
    21    12    11   ar
    22    11     7   ar
    23     1     2   ar
    24     2     3   ar
    25     3     4   ar
    26     4     5   ar
    27     5     6   ar
    28     6     1   ar
    29    19    20   ar
    30    20    21   ar
    31    21    22   ar
    32    22    24   ar
    33    24    23   ar
    34    23    19   ar
