@<TRIPOS>MOLECULE
No_764-gen_results/8p0m/2024-11-26-14-13-15/
 10 10 0 0 0
SMALL
GASTEIGER

@<TRIPOS>ATOM
      1 C         -28.0162   -0.8135   28.8779 C.ar    1  UNL1        0.0442
      2 C         -27.0636   -0.1189   28.6079 C.ar    1  UNL1        0.1516
      3 C         -26.8756    1.1325   28.9134 C.ar    1  UNL1        0.0873
      4 C         -27.9014    1.8066   29.6436 C.ar    1  UNL1        0.0442
      5 C         -29.0458   -0.2316   29.7181 C.ar    1  UNL1        0.0873
      6 C         -28.9402    1.0517   30.0597 C.ar    1  UNL1        0.1516
      7 F         -26.0208   -0.6774   27.8774 F       1  UNL1       -0.2033
      8 F         -29.9120    1.5959   30.7993 F       1  UNL1       -0.2033
      9 CL        -25.4919    2.0780   28.3767 Cl      1  UNL1       -0.0798
     10 CL        -30.3455   -1.3070   30.2449 Cl      1  UNL1       -0.0798
@<TRIPOS>BOND
     1     2     7    1
     2     6     8    1
     3     3     9    1
     4     5    10    1
     5     1     2   ar
     6     2     3   ar
     7     3     4   ar
     8     4     6   ar
     9     6     5   ar
    10     5     1   ar
