@<TRIPOS>MOLECULE
No_766-gen_results/8p0m/2024-11-26-14-13-15/
 35 39 0 0 0
SMALL
GASTEIGER

@<TRIPOS>ATOM
      1 C         -28.0162   -0.8135   28.8779 C.2     1  UNL1        0.2550
      2 C         -27.0636   -0.1190   28.6079 C.ar    1  UNL1        0.0540
      3 C         -25.7923   -0.4302   29.0761 C.ar    1  UNL1        0.0046
      4 C         -24.5456    0.3494   28.8225 C.ar    1  UNL1        0.0040
      5 C         -24.6586    1.4196   27.8878 C.ar    1  UNL1        0.0476
      6 C         -25.9471    1.6811   27.3792 C.ar    1  UNL1        0.0040
      7 C         -27.0439    0.9739   27.6871 C.ar    1  UNL1        0.0046
      8 N         -29.1882   -0.1472   29.0918 N.am    1  UNL1       -0.2222
      9 C         -29.6010    0.1627   30.3267 C.3     1  UNL1        0.1102
     10 C         -30.0469    0.0268   27.9837 C.2     1  UNL1        0.2547
     11 C         -23.4667    2.1669   27.6155 C.2     1  UNL1        0.2416
     12 N         -22.5016    1.8497   27.2208 N.2     1  UNL1       -0.1156
     13 F         -23.7170    3.4892   27.6014 F       1  UNL1       -0.1815
     14 C         -31.3991   -0.3067   28.1956 C.ar    1  UNL1        0.0504
     15 C         -32.2157    0.1589   27.3562 C.ar    1  UNL1        0.0042
     16 C         -33.6133   -0.1279   27.5303 C.ar    1  UNL1        0.0001
     17 C         -34.0350   -0.8611   28.6516 C.ar    1  UNL1       -0.0003
     18 C         -33.0925   -1.3054   29.5204 C.ar    1  UNL1       -0.0038
     19 C         -31.7628   -1.0424   29.3704 C.ar    1  UNL1       -0.0124
     20 C         -30.9818   -0.2859   30.5947 C.3     1  UNL1        0.0650
     21 O         -29.5322    0.3153   26.9171 O.2     1  UNL1       -0.2695
     22 C         -31.4465   -0.5900   31.9351 C.ar    1  UNL1       -0.0167
     23 C         -31.1195   -1.6212   32.6458 C.ar    1  UNL1       -0.0039
     24 C         -32.3079    0.4989   32.3556 C.ar    1  UNL1       -0.0023
     25 C         -32.8310    0.3738   33.6865 C.ar    1  UNL1       -0.0003
     26 C         -31.6224   -1.7168   33.9663 C.ar    1  UNL1       -0.0003
     27 C         -32.4619   -0.7001   34.4706 C.ar    1  UNL1       -0.0000
     28 O         -27.9194   -1.9469   29.4103 O.2     1  UNL1       -0.2695
     29 C         -32.7014    1.6318   31.5585 C.ar    1  UNL1        0.0165
     30 C         -32.5425    2.7857   31.8431 C.ar    1  UNL1        0.0013
     31 C         -32.6700    3.8475   31.2023 C.ar    1  UNL1        0.0001
     32 C         -33.2319    3.6919   29.8666 C.ar    1  UNL1        0.0014
     33 C         -33.4560    2.4273   29.4074 C.ar    1  UNL1        0.0181
     34 C         -33.1522    1.3671   30.2631 C.ar    1  UNL1        0.0890
     35 N         -34.3756    1.0821   30.3728 N.pl3   1  UNL1       -0.1281
@<TRIPOS>BOND
     1     1     2    1
     2     1     8   am
     3     8     9    1
     4     8    10   am
     5     5    11    1
     6    11    12    2
     7    11    13    1
     8    10    14    1
     9     9    20    1
    10    19    20    1
    11    10    21    2
    12    20    22    1
    13     1    28    2
    14    24    29    1
    15    34    35    1
    16    22    23   ar
    17    23    26   ar
    18    26    27   ar
    19    27    25   ar
    20    25    24   ar
    21    24    22   ar
    22     2     3   ar
    23     3     4   ar
    24     4     5   ar
    25     5     6   ar
    26     6     7   ar
    27     7     2   ar
    28    14    15   ar
    29    15    16   ar
    30    16    17   ar
    31    17    18   ar
    32    18    19   ar
    33    19    14   ar
    34    29    30   ar
    35    30    31   ar
    36    31    32   ar
    37    32    33   ar
    38    33    34   ar
    39    34    29   ar
