@<TRIPOS>MOLECULE
No_767-gen_results/8p0m/2024-11-26-14-13-15/
 11 11 0 0 0
SMALL
GASTEIGER

@<TRIPOS>ATOM
      1 CL        -28.1493   -0.8198   28.9079 Cl      1  UNL1       -0.0822
      2 C         -27.8339    0.4961   29.0598 C.ar    1  UNL1        0.0577
      3 C         -27.6022    1.0128   30.2974 C.ar    1  UNL1        0.0113
      4 C         -27.1699    2.3964   30.5338 C.ar    1  UNL1        0.0047
      5 C         -26.9133    3.1827   29.3680 C.ar    1  UNL1        0.0715
      6 C         -27.0551    2.6221   28.1384 C.ar    1  UNL1        0.0047
      7 C         -27.4622    1.3345   27.9669 C.ar    1  UNL1        0.0113
      8 C         -26.4513    4.5680   29.5808 C.3     1  UNL1        0.4186
      9 F         -25.7264    4.6681   30.6192 F       1  UNL1       -0.1659
     10 F         -25.5812    4.9475   28.5455 F       1  UNL1       -0.1659
     11 F         -27.4203    5.4032   29.6459 F       1  UNL1       -0.1659
@<TRIPOS>BOND
     1     1     2    1
     2     5     8    1
     3     8     9    1
     4     8    10    1
     5     8    11    1
     6     2     3   ar
     7     3     4   ar
     8     4     5   ar
     9     5     6   ar
    10     6     7   ar
    11     7     2   ar
