@<TRIPOS>MOLECULE
No_768-gen_results/8p0m/2024-11-26-14-13-15/
 15 16 0 0 0
SMALL
GASTEIGER

@<TRIPOS>ATOM
      1 O         -28.1229   -1.3353   28.4874 O.2     1  UNL1       -0.2733
      2 C         -27.0637   -0.8242   28.8687 C.2     1  UNL1        0.2412
      3 C         -25.9464   -1.0396   28.8492 C.3     1  UNL1        0.0827
      4 C         -25.3522   -2.2524   28.5471 C.3     1  UNL1        0.0400
      5 N         -27.2573    0.6208   29.4840 N.am    1  UNL1       -0.2054
      6 C         -26.2615    1.3937   29.8365 C.3     1  UNL1        0.1152
      7 C         -24.9553    0.9041   29.8149 C.3     1  UNL1        0.0239
      8 C         -24.6763   -0.2883   29.3924 C.3     1  UNL1        0.0113
      9 C         -25.7251   -3.3933   28.9956 C.ar    1  UNL1        0.0323
     10 C         -25.1223   -4.6852   28.7781 C.ar    1  UNL1        0.1689
     11 C         -26.8148   -3.4926   30.0317 C.ar    1  UNL1        0.0992
     12 N         -27.2658   -4.7551   30.3590 N.ar    1  UNL1       -0.2227
     13 N         -25.5753   -5.7723   29.4215 N.ar    1  UNL1       -0.2060
     14 C         -26.5792   -5.6845   30.2443 C.ar    1  UNL1        0.2001
     15 N         -23.9386   -4.8319   28.2185 N.pl3   1  UNL1       -0.1074
@<TRIPOS>BOND
     1     1     2    2
     2     2     3    1
     3     3     4    1
     4     2     5   am
     5     6     7    1
     6     3     8    1
     7     4     9    1
     8    10    15    1
     9     8     7    1
    10     6     5    1
    11     9    10   ar
    12    10    13   ar
    13    13    14   ar
    14    14    12   ar
    15    12    11   ar
    16    11     9   ar
