@<TRIPOS>MOLECULE
No_769-gen_results/8p0m/2024-11-26-14-13-15/
 15 16 0 0 0
SMALL
GASTEIGER

@<TRIPOS>ATOM
      1 C         -28.0162   -0.8135   28.8779 C.ar    1  UNL1       -0.0043
      2 C         -28.4690   -0.7850   29.8287 C.ar    1  UNL1       -0.0003
      3 C         -28.1816    0.4277   28.1134 C.ar    1  UNL1       -0.0218
      4 C         -28.9841    1.4155   28.5154 C.ar    1  UNL1       -0.0043
      5 C         -29.3802    0.1384   30.4612 C.ar    1  UNL1       -0.0000
      6 C         -29.5415    1.2736   29.7242 C.ar    1  UNL1       -0.0003
      7 C         -27.4586    0.4934   26.7701 C.3     1  UNL1        0.0311
      8 C         -26.0264    0.3840   26.7617 C.3     1  UNL1        0.0333
      9 C         -25.3148    0.0488   27.8701 C.ar    1  UNL1        0.0056
     10 C         -23.8815    0.0557   27.8329 C.ar    1  UNL1       -0.0020
     11 C         -23.1356   -0.3718   28.9998 C.ar    1  UNL1       -0.0002
     12 C         -23.7631   -1.2025   29.9247 C.ar    1  UNL1        0.0023
     13 C         -25.1381   -1.2783   29.9218 C.ar    1  UNL1        0.0293
     14 C         -25.8775   -0.7621   28.9408 C.ar    1  UNL1        0.1361
     15 F         -25.9314   -1.8776   28.4513 F       1  UNL1       -0.2045
@<TRIPOS>BOND
     1     3     7    1
     2     7     8    1
     3    14    15    1
     4     8     9    1
     5     9    10   ar
     6    10    11   ar
     7    11    12   ar
     8    12    13   ar
     9    13    14   ar
    10    14     9   ar
    11     1     2   ar
    12     2     5   ar
    13     5     6   ar
    14     6     4   ar
    15     4     3   ar
    16     3     1   ar
