@<TRIPOS>MOLECULE
No_770-gen_results/8p0m/2024-11-26-14-13-15/
 10 10 0 0 0
SMALL
GASTEIGER

@<TRIPOS>ATOM
      1 C         -28.0162   -0.8135   28.8779 C.ar    1  UNL1       -0.0023
      2 C         -28.4690   -0.7850   29.8287 C.ar    1  UNL1       -0.0003
      3 C         -27.1356    0.2359   28.5352 C.ar    1  UNL1        0.0020
      4 C         -26.3351    0.2900   27.2835 C.3     1  UNL1        0.1515
      5 C         -28.3692    0.1957   30.9236 C.ar    1  UNL1       -0.0000
      6 C         -27.5158    1.2655   30.6540 C.ar    1  UNL1       -0.0003
      7 C         -26.8411    1.2942   29.4761 C.ar    1  UNL1       -0.0023
      8 N         -25.8079    1.4528   26.9400 N.2     1  UNL1       -0.2687
      9 C         -24.4627    1.4551   26.5478 C.2     1  UNL1        0.0675
     10 C         -23.9071    2.8656   26.3081 C.3     1  UNL1        0.0529
@<TRIPOS>BOND
     1     3     4    1
     2     4     8    1
     3     8     9    2
     4     9    10    1
     5     1     2   ar
     6     2     5   ar
     7     5     6   ar
     8     6     7   ar
     9     7     3   ar
    10     3     1   ar
