@<TRIPOS>MOLECULE
No_771-gen_results/8p0m/2024-11-26-14-13-15/
 35 38 0 0 0
SMALL
GASTEIGER

@<TRIPOS>ATOM
      1 O         -28.1229   -1.3353   28.4874 O.2     1  UNL1       -0.2425
      2 C         -27.0637   -0.8242   28.8687 C.2     1  UNL1        0.3555
      3 N         -25.9773   -1.1378   28.8137 N.am    1  UNL1        0.0261
      4 C         -24.7669   -0.3464   29.1634 C.2     1  UNL1        0.3390
      5 C         -27.2179    0.4262   29.8414 C.3     1  UNL1        0.1325
      6 C         -24.9707    0.7239   29.9800 C.3     1  UNL1        0.1203
      7 C         -26.2112    1.1889   30.2071 C.3     1  UNL1        0.0288
      8 N         -23.5148   -0.8261   28.9381 N.am    1  UNL1        0.0257
      9 C         -22.4546   -0.1859   29.1448 C.2     1  UNL1        0.3525
     10 C         -21.2282   -0.6856   28.7467 C.3     1  UNL1        0.1288
     11 O         -22.4218    0.8173   29.9600 O.2     1  UNL1       -0.2429
     12 C         -28.7186    0.7548   29.9951 C.2     1  UNL1        0.0400
     13 C         -29.3414    1.2540   29.3158 C.2     1  UNL1       -0.0169
     14 C         -28.8649    1.8440   28.0054 C.3     1  UNL1        0.0656
     15 C         -27.9482    2.6963   28.0124 C.ar    1  UNL1       -0.0180
     16 C         -27.9788    3.7710   28.8388 C.ar    1  UNL1       -0.0039
     17 C         -27.2931    4.7252   28.7902 C.ar    1  UNL1       -0.0003
     18 C         -26.1300    4.8120   27.8327 C.ar    1  UNL1       -0.0003
     19 C         -26.0199    3.7393   26.9529 C.ar    1  UNL1       -0.0042
     20 C         -26.9216    2.7177   27.0030 C.ar    1  UNL1       -0.0211
     21 C         -29.4327    1.2823   26.7921 C.ar    1  UNL1       -0.0180
     22 C         -30.7134    0.8969   26.7431 C.ar    1  UNL1       -0.0001
     23 C         -31.1920    0.3301   25.5432 C.ar    1  UNL1        0.0711
     24 C         -30.3237    0.1972   24.4328 C.ar    1  UNL1        0.0035
     25 C         -28.9879    0.5933   24.5226 C.ar    1  UNL1       -0.0043
     26 C         -28.5259    1.1672   25.7034 C.ar    1  UNL1       -0.0211
     27 C         -27.2385    1.8959   25.7289 C.3     1  UNL1        0.0520
     28 C         -29.0899    0.3620   31.4508 C.2     1  UNL1        0.2611
     29 N         -30.2198    0.2787   31.7756 N.am    1  UNL1       -0.2000
     30 O         -28.1610    0.1399   32.3200 O.2     1  UNL1       -0.2687
     31 C         -30.7452   -0.1190   33.0942 C.3     1  UNL1        0.1388
     32 C         -32.5443   -0.2052   25.4489 C.3     1  UNL1        0.4186
     33 F         -32.8581   -0.5266   24.3931 F       1  UNL1       -0.1659
     34 F         -33.3754    0.7477   25.9289 F       1  UNL1       -0.1659
     35 F         -32.6281   -1.3074   26.2762 F       1  UNL1       -0.1659
@<TRIPOS>BOND
     1     1     2    2
     2     2     3   am
     3     3     4    1
     4     2     5    1
     5     4     6    1
     6     5     7    1
     7     6     7    1
     8     4     8    2
     9     8     9    1
    10     9    10    1
    11     9    11    2
    12     5    12    1
    13    12    13    2
    14    13    14    1
    15    14    15    1
    16    14    21    1
    17    20    27    1
    18    26    27    1
    19    12    28    1
    20    28    29   am
    21    28    30    2
    22    29    31    1
    23    23    32    1
    24    32    33    1
    25    32    34    1
    26    32    35    1
    27    15    16   ar
    28    16    17   ar
    29    17    18   ar
    30    18    19   ar
    31    19    20   ar
    32    20    15   ar
    33    21    22   ar
    34    22    23   ar
    35    23    24   ar
    36    24    25   ar
    37    25    26   ar
    38    26    21   ar
