@<TRIPOS>MOLECULE
No_772-gen_results/8p0m/2024-11-26-14-13-15/
 25 26 0 0 0
SMALL
GASTEIGER

@<TRIPOS>ATOM
      1 C         -28.0162   -0.8135   28.8779 C.ar    1  UNL1        0.0262
      2 C         -27.0636   -0.1189   28.6079 C.ar    1  UNL1       -0.0091
      3 C         -25.7647   -0.3897   29.0360 C.ar    1  UNL1        0.0311
      4 C         -25.5296   -1.5302   29.9014 C.ar    1  UNL1        0.0087
      5 C         -26.6888   -2.2893   30.1810 C.ar    1  UNL1        0.0301
      6 C         -27.8727   -1.9508   29.7373 C.ar    1  UNL1        0.1399
      7 BR        -24.2480    0.6530   28.6314 Br      1  UNL1       -0.0493
      8 F         -28.9273   -2.7292   30.0627 F       1  UNL1       -0.2042
      9 C         -27.1687    1.1333   27.7050 C.3     1  UNL1        0.0574
     10 C         -27.3682    0.8957   26.3683 C.ar    1  UNL1       -0.0175
     11 C         -27.4802   -0.2552   25.8292 C.ar    1  UNL1       -0.0039
     12 C         -27.7134   -0.4416   24.4166 C.ar    1  UNL1       -0.0003
     13 C         -27.9942    0.7611   23.7103 C.ar    1  UNL1       -0.0000
     14 C         -27.5804    2.0183   25.3989 C.ar    1  UNL1       -0.0039
     15 C         -27.8860    1.9661   24.2024 C.ar    1  UNL1       -0.0003
     16 C         -27.2383    2.4136   28.3937 C.3     1  UNL1        0.0867
     17 BR        -26.4656    3.1589   29.2169 Br      1  UNL1       -0.0791
     18 C         -28.6869    2.9801   28.1478 C.3     1  UNL1        0.1242
     19 N         -28.7732    3.9902   27.4972 N.pl3   1  UNL1       -0.2354
     20 C         -29.8299    4.3473   26.7180 C.2     1  UNL1        0.0801
     21 C         -30.7694    3.6032   26.4466 C.2     1  UNL1        0.0174
     22 C         -31.4085    3.4648   25.1851 C.2     1  UNL1        0.0014
     23 C         -32.2565    2.4759   24.8670 C.2     1  UNL1        0.0000
     24 C         -32.5954    1.5823   25.8533 C.2     1  UNL1        0.0000
     25 C         -32.0109    1.5928   27.1102 C.2     1  UNL1        0.0000
@<TRIPOS>BOND
     1     3     7    1
     2     6     8    1
     3     2     9    1
     4     9    10    1
     5     9    16    1
     6    16    17    1
     7    16    18    1
     8    18    19    1
     9    19    20    1
    10    20    21    2
    11    21    22    1
    12    22    23    2
    13    23    24    1
    14    24    25    2
    15     1     2   ar
    16     2     3   ar
    17     3     4   ar
    18     4     5   ar
    19     5     6   ar
    20     6     1   ar
    21    10    11   ar
    22    11    12   ar
    23    12    13   ar
    24    13    15   ar
    25    15    14   ar
    26    14    10   ar
