@<TRIPOS>MOLECULE
No_773-gen_results/8p0m/2024-11-26-14-13-15/
 18 19 0 0 0
SMALL
GASTEIGER

@<TRIPOS>ATOM
      1 C         -28.0162   -0.8135   28.8779 C.ar    1  UNL1        0.0038
      2 C         -28.4690   -0.7850   29.8287 C.ar    1  UNL1        0.0795
      3 C         -27.1356    0.2359   28.5352 C.ar    1  UNL1       -0.0031
      4 C         -26.8745    1.2825   29.3982 C.ar    1  UNL1       -0.0028
      5 C         -28.3613    0.1987   30.9244 C.ar    1  UNL1        0.0066
      6 C         -27.5277    1.2234   30.6356 C.ar    1  UNL1       -0.0001
      7 C         -26.3987    0.2949   27.2279 C.3     1  UNL1        0.1242
      8 CL        -26.8982    0.0442   25.8959 Cl      1  UNL1       -0.1053
      9 C         -24.9028    0.4953   27.3918 C.ar    1  UNL1       -0.0032
     10 C         -24.3479    1.6225   26.7280 C.ar    1  UNL1        0.0005
     11 C         -22.9555    1.8820   26.8475 C.ar    1  UNL1        0.0418
     12 C         -22.2599    1.1917   27.9118 C.ar    1  UNL1        0.1957
     13 C         -22.8697    0.2576   28.6652 C.ar    1  UNL1        0.0418
     14 C         -24.2038   -0.1089   28.4900 C.ar    1  UNL1        0.0005
     15 O         -20.9792    1.5900   28.0777 O.3     1  UNL1       -0.2866
     16 C         -29.4263   -1.9814   30.3495 C.2     1  UNL1        0.3877
     17 O         -29.9490   -1.8812   31.4524 O.co2   1  UNL1       -0.2406
     18 O         -29.1226   -3.1309   29.9257 O.co2   1  UNL1       -0.2406
@<TRIPOS>BOND
     1     3     7    1
     2     7     8    1
     3     7     9    1
     4    12    15    1
     5     2    16    1
     6    16    17   ar
     7    16    18   ar
     8     9    10   ar
     9    10    11   ar
    10    11    12   ar
    11    12    13   ar
    12    13    14   ar
    13    14     9   ar
    14     1     2   ar
    15     2     5   ar
    16     5     6   ar
    17     6     4   ar
    18     4     3   ar
    19     3     1   ar
