@<TRIPOS>MOLECULE
No_774-gen_results/8p0m/2024-11-26-14-13-15/
 26 28 0 0 0
SMALL
GASTEIGER

@<TRIPOS>ATOM
      1 C         -28.0162   -0.8135   28.8779 C.ar    1  UNL1        0.0160
      2 C         -28.4690   -0.7850   29.8287 C.ar    1  UNL1        0.0562
      3 C         -26.5455   -0.8762   28.8500 C.ar    1  UNL1        0.0578
      4 C         -25.8041   -1.0324   30.0571 C.ar    1  UNL1        0.0114
      5 C         -30.0055   -0.7457   29.8978 C.2     1  UNL1        0.2690
      6 C         -26.5747   -1.0565   31.2005 C.ar    1  UNL1        0.0010
      7 C         -27.9251   -0.9738   31.1683 C.ar    1  UNL1        0.0046
      8 O         -30.7095   -1.5277   30.1699 O.2     1  UNL1       -0.2680
      9 N         -30.4614    0.6115   29.8089 N.am    1  UNL1       -0.1754
     10 C         -29.6898    1.7422   29.5850 C.ar    1  UNL1        0.0738
     11 C         -30.4253    2.8102   29.3269 C.ar    1  UNL1        0.0166
     12 C         -29.7651    4.1056   29.1457 C.ar    1  UNL1        0.0015
     13 C         -28.3298    4.1479   29.1732 C.ar    1  UNL1        0.0048
     14 C         -27.6252    2.9499   29.4104 C.ar    1  UNL1        0.0578
     15 C         -28.3060    1.7568   29.6427 C.ar    1  UNL1        0.0214
     16 CL        -25.5441   -0.8026   27.4277 Cl      1  UNL1       -0.0822
     17 C         -26.1403    3.0970   29.4615 C.2     1  UNL1        0.2647
     18 N         -25.4473    2.8972   28.6245 N.ar    1  UNL1       -0.2719
     19 C         -24.1378    2.5091   28.7422 C.ar    1  UNL1        0.0841
     20 O         -25.7059    3.6433   30.6305 O.2     1  UNL1       -0.2666
     21 C         -23.4164    2.3768   27.4615 C.ar    1  UNL1        0.0627
     22 C         -25.8579    3.0694   27.2176 C.ar    1  UNL1        0.0829
     23 C         -22.2172    1.7874   27.2944 C.3     1  UNL1        0.3425
     24 C         -24.2129    2.6758   26.2967 C.ar    1  UNL1        0.0217
     25 F         -21.5862    1.9656   26.2625 F       1  UNL1       -0.1932
     26 F         -21.7065    1.0627   28.2478 F       1  UNL1       -0.1932
@<TRIPOS>BOND
     1     2     5    1
     2     5     8    2
     3     5     9   am
     4     9    10    1
     5     3    16    1
     6    14    17    1
     7    17    18   am
     8    18    19   ar
     9    17    20    2
    10    19    21   ar
    11    18    22   ar
    12    21    23    1
    13    21    24   ar
    14    22    24   ar
    15    23    25    1
    16    23    26    1
    17    10    11   ar
    18    11    12   ar
    19    12    13   ar
    20    13    14   ar
    21    14    15   ar
    22    15    10   ar
    23     1     2   ar
    24     2     7   ar
    25     7     6   ar
    26     6     4   ar
    27     4     3   ar
    28     3     1   ar
