@<TRIPOS>MOLECULE
No_775-gen_results/8p0m/2024-11-26-14-13-15/
 24 26 0 0 0
SMALL
GASTEIGER

@<TRIPOS>ATOM
      1 C         -28.0162   -0.8135   28.8779 C.ar    1  UNL1        0.0066
      2 C         -27.0636   -0.1190   28.6079 C.ar    1  UNL1        0.0002
      3 C         -25.7923   -0.4302   29.0761 C.ar    1  UNL1        0.0000
      4 C         -25.5756   -1.5654   29.9363 C.ar    1  UNL1        0.0002
      5 C         -26.7354   -2.3004   30.2173 C.ar    1  UNL1        0.0066
      6 C         -27.9184   -1.9537   29.7629 C.ar    1  UNL1        0.0798
      7 C         -29.0732   -2.7835   30.1783 C.2     1  UNL1        0.3878
      8 O         -29.3220   -2.7952   31.3885 O.co2   1  UNL1       -0.2406
      9 O         -29.3381   -3.8869   29.5126 O.co2   1  UNL1       -0.2406
     10 C         -27.0897    1.1082   27.7484 C.ar    1  UNL1        0.0001
     11 C         -26.7388    2.1021   27.7212 C.ar    1  UNL1        0.0000
     12 C         -26.8034    3.1648   26.7119 C.ar    1  UNL1        0.0000
     13 C         -27.5435    2.8565   25.5752 C.ar    1  UNL1        0.0016
     14 C         -28.0832    1.6461   25.4830 C.ar    1  UNL1        0.0194
     15 C         -27.9304    0.6678   26.4471 C.ar    1  UNL1        0.0016
     16 C         -28.8378    1.2746   24.2710 C.2     1  UNL1        0.1028
     17 C         -29.9549    1.9715   24.0415 C.ar    1  UNL1        0.0195
     18 C         -31.0727    1.5451   23.3075 C.ar    1  UNL1        0.0024
     19 C         -32.1182    2.4458   22.9837 C.ar    1  UNL1        0.0114
     20 C         -32.1495    3.7624   23.5031 C.ar    1  UNL1        0.0577
     21 C         -31.1158    4.1659   24.3273 C.ar    1  UNL1        0.0114
     22 C         -30.0508    3.4125   24.5867 C.ar    1  UNL1        0.0024
     23 N         -28.5199    0.1799   23.6235 N.2     1  UNL1       -0.1480
     24 CL        -33.5271    4.7007   23.1663 Cl      1  UNL1       -0.0822
@<TRIPOS>BOND
     1     6     7    1
     2     7     8   ar
     3     7     9   ar
     4     2    10    1
     5    14    16    1
     6    16    17    1
     7    16    23    2
     8    20    24    1
     9    17    18   ar
    10    18    19   ar
    11    19    20   ar
    12    20    21   ar
    13    21    22   ar
    14    22    17   ar
    15     1     2   ar
    16     2     3   ar
    17     3     4   ar
    18     4     5   ar
    19     5     6   ar
    20     6     1   ar
    21    10    11   ar
    22    11    12   ar
    23    12    13   ar
    24    13    14   ar
    25    14    15   ar
    26    15    10   ar
