@<TRIPOS>MOLECULE
No_777-gen_results/8p0m/2024-11-26-14-13-15/
 16 18 0 0 0
SMALL
GASTEIGER

@<TRIPOS>ATOM
      1 C         -28.0162   -0.8135   28.8779 C.ar    1  UNL1        0.0813
      2 C         -27.0636   -0.1189   28.6079 C.ar    1  UNL1        0.0177
      3 C         -26.9716    0.7139   27.5060 C.ar    1  UNL1        0.0015
      4 C         -25.8205    1.4910   27.1160 C.ar    1  UNL1        0.0000
      5 C         -24.8579    1.3421   27.6008 C.ar    1  UNL1        0.0000
      6 C         -24.6224    0.5295   28.8144 C.ar    1  UNL1        0.0000
      7 C         -25.7344   -0.1811   29.1908 C.ar    1  UNL1        0.0015
      8 N         -27.8903   -1.5560   30.0405 N.ar    1  UNL1       -0.2438
      9 C         -23.5284    2.1448   27.3012 C.ar    1  UNL1        0.0000
     10 C         -22.5514    2.3059   28.2492 C.ar    1  UNL1        0.0000
     11 C         -22.4532    1.2427   29.2127 C.ar    1  UNL1        0.0000
     12 C         -23.4632    0.5101   29.6082 C.ar    1  UNL1        0.0000
     13 C         -28.9924   -2.2624   30.5562 C.ar    1  UNL1        0.0988
     14 C         -30.1660   -1.8772   30.1995 C.ar    1  UNL1        0.0207
     15 C         -30.3357   -0.8978   29.2305 C.ar    1  UNL1        0.0031
     16 C         -29.2941   -0.2854   28.6750 C.ar    1  UNL1        0.0191
@<TRIPOS>BOND
     1     2     1    1
     2     2     3   ar
     3     3     4   ar
     4     4     5   ar
     5     6     7   ar
     6     7     2   ar
     7     1     8   ar
     8     8    13   ar
     9    13    14   ar
    10    14    15   ar
    11    15    16   ar
    12    16     1   ar
    13     5     6   ar
    14     6    12   ar
    15    12    11   ar
    16    11    10   ar
    17    10     9   ar
    18     9     5   ar
