@<TRIPOS>MOLECULE
No_779-gen_results/8p0m/2024-11-26-14-13-15/
 34 37 0 0 0
SMALL
GASTEIGER

@<TRIPOS>ATOM
      1 C         -28.0162   -0.8135   28.8779 C.ar    1  UNL1        0.1043
      2 C         -28.4690   -0.7850   29.8287 C.ar    1  UNL1        0.0734
      3 N         -26.6340   -1.0216   28.8020 N.ar    1  UNL1       -0.2323
      4 C         -25.9202   -1.0424   29.7773 C.ar    1  UNL1        0.1384
      5 CL        -24.1616   -1.3104   29.7981 Cl      1  UNL1       -0.0613
      6 C         -27.8397   -0.9214   31.1776 C.ar    1  UNL1        0.0085
      7 C         -26.4377   -1.1030   31.1352 C.ar    1  UNL1        0.0310
      8 C         -30.0381   -0.6447   30.2197 C.2     1  UNL1        0.2580
      9 N         -30.6702   -1.1419   30.8703 N.am    1  UNL1       -0.2336
     10 O         -30.6037    0.1443   29.2533 O.2     1  UNL1       -0.2692
     11 C         -30.2855   -2.0869   31.9103 C.ar    1  UNL1        0.0647
     12 C         -32.1722   -0.8993   30.9531 C.ar    1  UNL1        0.0584
     13 C         -32.7407   -0.1553   31.6717 C.ar    1  UNL1        0.0152
     14 C         -34.1477    0.0931   31.6839 C.ar    1  UNL1        0.0013
     15 C         -34.8840   -0.6520   30.7568 C.ar    1  UNL1        0.0001
     16 C         -34.2701   -1.5235   29.9143 C.ar    1  UNL1        0.0009
     17 C         -32.8802   -1.7040   29.9704 C.ar    1  UNL1        0.0152
     18 C         -34.9912   -2.3102   28.9261 C.2     1  UNL1       -0.0042
     19 C         -34.7431   -3.5349   28.6471 C.2     1  UNL1       -0.0214
     20 C         -33.7450   -4.1757   29.3998 C.3     1  UNL1        0.0523
     21 C         -33.3289   -5.6010   29.0662 C.ar    1  UNL1       -0.0178
     22 C         -32.4986   -6.1786   29.9698 C.ar    1  UNL1       -0.0039
     23 C         -31.9667   -7.3989   29.6969 C.ar    1  UNL1       -0.0003
     24 C         -32.1629   -7.9876   28.3834 C.ar    1  UNL1       -0.0000
     25 C         -32.9034   -7.2701   27.4817 C.ar    1  UNL1       -0.0003
     26 C         -33.4197   -6.0333   27.7718 C.ar    1  UNL1       -0.0039
     27 C         -30.1377   -1.5986   33.2054 C.ar    1  UNL1        0.0155
     28 C         -29.8379   -2.4527   34.2600 C.ar    1  UNL1        0.0013
     29 C         -29.5893   -3.8011   33.9554 C.ar    1  UNL1        0.0003
     30 C         -30.0664   -3.3958   31.6389 C.ar    1  UNL1        0.0937
     31 C         -29.7108   -4.2567   32.6634 C.ar    1  UNL1        0.0078
     32 C         -30.1728   -3.8971   30.2641 C.2     1  UNL1        0.3890
     33 O         -29.3353   -4.8306   29.9791 O.co2   1  UNL1       -0.2405
     34 O         -31.0370   -3.5042   29.4536 O.co2   1  UNL1       -0.2405
@<TRIPOS>BOND
     1     4     5    1
     2     2     8    1
     3     8     9   am
     4     8    10    2
     5     9    11    1
     6     9    12    1
     7    16    18    1
     8    18    19    2
     9    19    20    1
    10    30    32    1
    11    32    33   ar
    12    32    34   ar
    13    20    21    1
    14    11    27   ar
    15    27    28   ar
    16    28    29   ar
    17    29    31   ar
    18    31    30   ar
    19    30    11   ar
    20     1     2   ar
    21     2     6   ar
    22     6     7   ar
    23     7     4   ar
    24     4     3   ar
    25     3     1   ar
    26    21    22   ar
    27    22    23   ar
    28    23    24   ar
    29    24    25   ar
    30    25    26   ar
    31    26    21   ar
    32    12    13   ar
    33    13    14   ar
    34    14    15   ar
    35    15    16   ar
    36    16    17   ar
    37    17    12   ar
