@<TRIPOS>MOLECULE
No_780-gen_results/8p0m/2024-11-26-14-13-15/
 11 11 0 0 0
SMALL
GASTEIGER

@<TRIPOS>ATOM
      1 BR        -28.1146   -0.6256   29.0813 Br      1  UNL1       -0.0488
      2 C         -27.4917    0.8142   29.3550 C.2     1  UNL1        0.0365
      3 C         -26.7100    1.4117   28.9943 C.2     1  UNL1       -0.0149
      4 C         -25.7523    1.7880   28.6749 C.3     1  UNL1        0.0448
      5 C         -24.5833    1.3776   27.8915 C.ar    1  UNL1       -0.0184
      6 C         -23.4964    2.1059   27.4890 C.ar    1  UNL1       -0.0040
      7 C         -22.3484    1.4442   27.1016 C.ar    1  UNL1       -0.0003
      8 C         -21.8426    0.6640   27.9527 C.ar    1  UNL1       -0.0000
      9 C         -22.6926   -0.2051   28.7765 C.ar    1  UNL1       -0.0003
     10 C         -24.0190    0.3345   28.8796 C.ar    1  UNL1       -0.0040
     11 C         -25.7956    3.4148   28.5496 C.3     1  UNL1        0.0094
@<TRIPOS>BOND
     1     1     2    1
     2     2     3    2
     3     3     4    1
     4     4     5    1
     5     4    11    1
     6     5     6   ar
     7     6     7   ar
     8     7     8   ar
     9     8     9   ar
    10     9    10   ar
    11    10     5   ar
