@<TRIPOS>MOLECULE
No_782-gen_results/8p0m/2024-11-26-14-13-15/
 29 31 0 0 0
SMALL
GASTEIGER

@<TRIPOS>ATOM
      1 O         -28.1229   -1.3353   28.4874 O.2     1  UNL1       -0.2957
      2 C         -27.0637   -0.8242   28.8687 C.2     1  UNL1        0.1557
      3 C         -25.9464   -1.0396   28.8492 C.3     1  UNL1        0.0906
      4 C         -24.7602   -0.1562   29.1644 C.ar    1  UNL1       -0.0153
      5 C         -25.1397    1.0733   29.6683 C.ar    1  UNL1       -0.0213
      6 C         -26.4527    1.3942   29.7638 C.3     1  UNL1        0.0516
      7 C         -27.4046    0.6283   29.4541 C.3     1  UNL1        0.0735
      8 C         -23.3693   -0.5129   29.0960 C.ar    1  UNL1        0.0379
      9 C         -22.4001    0.4365   28.8406 C.ar    1  UNL1        0.1954
     10 C         -22.8279    1.8016   28.9860 C.ar    1  UNL1        0.0417
     11 C         -24.0593    2.1054   29.6159 C.ar    1  UNL1       -0.0010
     12 O         -21.1592    0.1963   28.6462 O.3     1  UNL1       -0.2866
     13 C         -26.7757    2.8296   30.3122 C.ar    1  UNL1       -0.0176
     14 C         -27.7359    3.4827   29.8054 C.ar    1  UNL1        0.0025
     15 C         -27.9109    4.7290   30.1907 C.ar    1  UNL1        0.0766
     16 C         -27.1686    5.3789   31.2059 C.ar    1  UNL1        0.0130
     17 C         -26.0914    4.6899   31.7943 C.ar    1  UNL1        0.0797
     18 C         -25.8342    3.3321   31.3063 C.ar    1  UNL1        0.0026
     19 C         -25.2275    5.2267   32.8411 C.2     1  UNL1        0.3877
     20 O         -24.0742    5.2282   32.6439 O.co2   1  UNL1       -0.2406
     21 O         -25.7846    5.6811   33.9102 O.co2   1  UNL1       -0.2406
     22 C         -29.0678    5.5608   29.6586 C.2     1  UNL1        0.3540
     23 O         -29.8026    5.2183   28.8712 O.2     1  UNL1       -0.2437
     24 O         -29.1666    6.8344   30.1643 O.3     1  UNL1       -0.3672
     25 C         -30.0128    7.6613   29.7132 C.1     1  UNL1        0.1351
     26 C         -30.4894    8.5672   29.6352 C.1     1  UNL1        0.0310
     27 C         -30.8894    9.7416   29.7273 C.1     1  UNL1        0.0237
     28 C         -31.3263   10.9621   29.7398 C.1     1  UNL1        0.1193
     29 F         -30.8246   11.8658   29.5922 F       1  UNL1       -0.1422
@<TRIPOS>BOND
     1     1     2    2
     2     2     3    1
     3     5     6    1
     4     2     7    1
     5     6     7    1
     6     9    12    1
     7     6    13    1
     8    17    19    1
     9    19    20   ar
    10    19    21   ar
    11    15    22    1
    12    22    23    2
    13    22    24    1
    14    24    25    1
    15    25    26    3
    16    26    27    1
    17    27    28    3
    18    28    29    1
    19     3     4    1
    20    13    14   ar
    21    14    15   ar
    22    15    16   ar
    23    16    17   ar
    24    17    18   ar
    25    18    13   ar
    26     4     5   ar
    27     5    11   ar
    28    11    10   ar
    29    10     9   ar
    30     9     8   ar
    31     8     4   ar
