@<TRIPOS>MOLECULE
No_783-gen_results/8p0m/2024-11-26-14-13-15/
 11 11 0 0 0
SMALL
GASTEIGER

@<TRIPOS>ATOM
      1 C         -28.0162   -0.8135   28.8779 C.ar    1  UNL1       -0.0000
      2 C         -27.0636   -0.1189   28.6079 C.ar    1  UNL1       -0.0003
      3 C         -26.9287    1.1713   29.0083 C.ar    1  UNL1       -0.0040
      4 C         -25.7702    2.0341   28.6884 C.2     1  UNL1       -0.0218
      5 C         -24.7141    1.4431   27.9188 C.2     1  UNL1       -0.0043
      6 C         -23.5566    2.1673   27.5933 C.2     1  UNL1       -0.0003
      7 C         -29.0912   -0.2748   29.7317 C.ar    1  UNL1       -0.0000
      8 C         -29.0503    0.9872   30.1426 C.ar    1  UNL1       -0.0000
      9 C         -27.9501    1.7660   29.8118 C.ar    1  UNL1       -0.0003
     10 C         -24.9591    2.6142   29.7975 C.3     1  UNL1        0.0310
     11 C         -22.5564    1.5483   26.9838 C.2     1  UNL1       -0.0000
@<TRIPOS>BOND
     1     3     4    1
     2     4     5    2
     3     5     6    1
     4     4    10    1
     5     6    11    2
     6     1     2   ar
     7     2     3   ar
     8     3     9   ar
     9     9     8   ar
    10     8     7   ar
    11     7     1   ar
