@<TRIPOS>MOLECULE
No_784-gen_results/8p0m/2024-11-26-14-13-15/
 25 26 0 0 0
SMALL
GASTEIGER

@<TRIPOS>ATOM
      1 C         -28.0162   -0.8135   28.8779 C.2     1  UNL1        0.2491
      2 C         -27.0636   -0.1189   28.6079 C.ar    1  UNL1        0.0536
      3 C         -26.9287    1.1713   29.0083 C.ar    1  UNL1        0.0045
      4 C         -25.7702    2.0341   28.6884 C.ar    1  UNL1        0.0040
      5 C         -24.7141    1.4431   27.9188 C.ar    1  UNL1        0.0714
      6 C         -24.8590    0.0783   27.5836 C.ar    1  UNL1        0.0040
      7 C         -25.9647   -0.6606   27.9164 C.ar    1  UNL1        0.0045
      8 N         -27.9821   -1.6367   30.0748 N.am    1  UNL1       -0.2734
      9 O         -29.2163   -0.4132   28.6627 O.2     1  UNL1       -0.2699
     10 C         -29.0156   -2.4825   30.5856 C.3     1  UNL1        0.1094
     11 C         -23.5339    2.1607   27.5674 C.3     1  UNL1        0.4186
     12 F         -23.3276    2.7167   26.7258 F       1  UNL1       -0.1659
     13 F         -23.0256    2.8066   28.7271 F       1  UNL1       -0.1659
     14 C         -26.6591   -2.0477   30.6317 C.3     1  UNL1        0.1152
     15 C         -29.3644   -2.1460   31.8800 C.3     1  UNL1        0.1453
     16 C         -29.0830   -0.9114   32.2773 C.ar    1  UNL1       -0.0101
     17 C         -29.5301    0.1231   31.8975 C.ar    1  UNL1       -0.0037
     18 C         -29.2688    1.4491   32.4716 C.ar    1  UNL1       -0.0003
     19 C         -28.4191    1.4949   33.5712 C.ar    1  UNL1       -0.0000
     20 C         -28.2255   -0.8345   33.6131 C.ar    1  UNL1       -0.0037
     21 C         -27.9196    0.3509   34.1599 C.ar    1  UNL1       -0.0003
     22 F         -22.4111    1.1265   27.6383 F       1  UNL1       -0.1659
     23 C         -30.0193   -3.1752   32.6528 C.2     1  UNL1        0.3700
     24 O         -29.9858   -4.2715   32.5049 O.co2   1  UNL1       -0.2452
     25 O         -30.6281   -2.7380   33.7960 O.co2   1  UNL1       -0.2452
@<TRIPOS>BOND
     1     1     2    1
     2     1     8   am
     3     1     9    2
     4     8    10    1
     5     5    11    1
     6    11    12    1
     7    11    13    1
     8     8    14    1
     9    10    15    1
    10    15    16    1
    11    11    22    1
    12    15    23    1
    13    23    24   ar
    14    23    25   ar
    15     2     3   ar
    16     3     4   ar
    17     4     5   ar
    18     5     6   ar
    19     6     7   ar
    20     7     2   ar
    21    16    17   ar
    22    17    18   ar
    23    18    19   ar
    24    19    21   ar
    25    21    20   ar
    26    20    16   ar
