@<TRIPOS>MOLECULE
No_785-gen_results/8p0m/2024-11-26-14-13-15/
 18 20 0 0 0
SMALL
GASTEIGER

@<TRIPOS>ATOM
      1 C         -28.0162   -0.8135   28.8779 C.ar    1  UNL1        0.0015
      2 C         -28.4690   -0.7850   29.8287 C.ar    1  UNL1        0.0000
      3 C         -28.1960    0.3478   28.0550 C.ar    1  UNL1        0.0176
      4 C         -29.0191    1.3501   28.3782 C.ar    1  UNL1        0.0015
      5 C         -29.4107    0.1803   30.3782 C.ar    1  UNL1        0.0000
      6 C         -29.6059    1.2495   29.6193 C.ar    1  UNL1        0.0000
      7 C         -27.4597    0.3802   26.7091 C.ar    1  UNL1        0.0813
      8 N         -27.8834    0.5390   25.7073 N.ar    1  UNL1       -0.2438
      9 C         -25.9412    0.2046   26.7840 C.ar    1  UNL1        0.0177
     10 C         -25.3563    0.4285   25.5507 C.ar    1  UNL1        0.0031
     11 C         -27.3548    0.6113   24.4554 C.ar    1  UNL1        0.0988
     12 C         -25.9729    0.5252   24.3894 C.ar    1  UNL1        0.0207
     13 C         -25.1767   -0.0005   27.9999 C.ar    1  UNL1        0.0014
     14 C         -24.8987   -1.1650   28.4476 C.ar    1  UNL1        0.0000
     15 C         -24.0523   -1.4053   29.5447 C.ar    1  UNL1        0.0000
     16 C         -24.6543    1.1336   28.6904 C.ar    1  UNL1        0.0000
     17 C         -23.8905    1.0321   29.8268 C.ar    1  UNL1        0.0000
     18 C         -23.5637   -0.2685   30.2791 C.ar    1  UNL1        0.0000
@<TRIPOS>BOND
     1     3     7    1
     2     9    13    1
     3    13    14   ar
     4    14    15   ar
     5    15    18   ar
     6    18    17   ar
     7    17    16   ar
     8    16    13   ar
     9     7     8   ar
    10     8    11   ar
    11    11    12   ar
    12    12    10   ar
    13    10     9   ar
    14     9     7   ar
    15     1     2   ar
    16     2     5   ar
    17     5     6   ar
    18     6     4   ar
    19     4     3   ar
    20     3     1   ar
