@<TRIPOS>MOLECULE
No_787-gen_results/8p0m/2024-11-26-14-13-15/
 16 17 0 0 0
SMALL
GASTEIGER

@<TRIPOS>ATOM
      1 C         -28.0162   -0.8135   28.8779 C.3     1  UNL1        0.0761
      2 C         -28.4690   -0.7850   29.8287 C.3     1  UNL1        0.1107
      3 C         -26.5455   -0.8762   28.8500 C.2     1  UNL1        0.1548
      4 C         -25.8041   -1.0324   30.0571 C.3     1  UNL1        0.0798
      5 C         -26.5373   -1.0386   31.2171 C.3     1  UNL1        0.0123
      6 C         -27.8843   -0.9532   31.1862 C.3     1  UNL1        0.0125
      7 C         -24.3655   -1.1134   30.0483 C.ar    1  UNL1       -0.0155
      8 C         -23.7447   -1.3690   30.8125 C.ar    1  UNL1       -0.0039
      9 C         -22.2072   -1.2504   30.8577 C.ar    1  UNL1       -0.0003
     10 C         -21.6856   -0.8191   29.6527 C.ar    1  UNL1       -0.0000
     11 C         -23.8081   -0.7877   28.6694 C.ar    1  UNL1       -0.0039
     12 C         -22.4454   -0.5726   28.5982 C.ar    1  UNL1       -0.0003
     13 C         -30.0596   -0.6669   29.9155 C.2     1  UNL1        0.3647
     14 O         -30.5099   -0.1876   28.9828 O.co2   1  UNL1       -0.2457
     15 O         -30.7359   -1.0471   30.9390 O.co2   1  UNL1       -0.2457
     16 O         -25.8911   -0.8094   27.6937 O.2     1  UNL1       -0.2957
@<TRIPOS>BOND
     1     1     3    1
     2     3     4    1
     3     4     5    1
     4     2     6    1
     5     4     7    1
     6     2    13    1
     7    13    14   ar
     8    13    15   ar
     9     3    16    2
    10     1     2    1
    11     6     5    1
    12     7     8   ar
    13     8     9   ar
    14     9    10   ar
    15    10    12   ar
    16    12    11   ar
    17    11     7   ar
