@<TRIPOS>MOLECULE
No_788-gen_results/8p0m/2024-11-26-14-13-15/
 25 26 0 0 0
SMALL
GASTEIGER

@<TRIPOS>ATOM
      1 C         -28.0162   -0.8135   28.8779 C.ar    1  UNL1        0.0012
      2 C         -28.4690   -0.7850   29.8287 C.ar    1  UNL1        0.0001
      3 C         -27.0871    0.2903   28.6377 C.ar    1  UNL1        0.0134
      4 C         -26.2516    0.4114   27.4223 C.2     1  UNL1        0.0013
      5 C         -28.3913    0.1041   30.9805 C.ar    1  UNL1        0.0013
      6 C         -27.5332    1.1666   30.7866 C.ar    1  UNL1        0.0145
      7 C         -26.8281    1.2557   29.6454 C.ar    1  UNL1        0.0487
      8 C         -25.1384    0.6748   27.2308 C.2     1  UNL1        0.0015
      9 C         -24.3157    0.8668   28.4419 C.ar    1  UNL1        0.0195
     10 C         -23.3531    0.3541   28.6369 C.ar    1  UNL1        0.0220
     11 C         -22.3334    0.6859   29.7210 C.ar    1  UNL1        0.0990
     12 N         -22.9868    1.5060   30.5871 N.ar    1  UNL1       -0.2409
     13 C         -24.2153    1.9133   30.3759 C.ar    1  UNL1        0.1165
     14 C         -24.9148    1.7535   29.4033 C.ar    1  UNL1        0.1043
     15 N         -25.7742    2.7690   28.8586 N.pl3   1  UNL1       -0.1466
     16 N         -26.5905    2.4627   29.1982 N.3     1  UNL1       -0.1096
     17 N         -25.9967    0.2981   30.2799 N.pl3   1  UNL1       -0.2970
     18 C         -27.4637    3.4729   29.7382 C.3     1  UNL1        0.1342
     19 C         -25.5609   -0.5921   31.0003 C.3     1  UNL1        0.0741
     20 C         -25.1727   -0.1858   29.7158 C.3     1  UNL1        0.1475
     21 C         -25.1417   -1.3905   28.9413 C.3     1  UNL1        0.0412
     22 N         -23.9821   -0.6500   30.3485 N.3     1  UNL1       -0.1985
     23 C         -23.3306   -1.5083   30.9310 C.3     1  UNL1        0.1093
     24 C         -26.2555   -1.6944   31.5527 C.3     1  UNL1        0.0215
     25 C         -25.2249    0.3855   32.3101 C.3     1  UNL1        0.0215
@<TRIPOS>BOND
     1     3     4    1
     2     4     8    2
     3     8     9    1
     4    14    15    1
     5    15    16    1
     6     7    17    1
     7    16    18    1
     8    17    19    1
     9    17    20    1
    10    20    21    1
    11    20    22    1
    12    22    23    1
    13    19    24    1
    14    19    25    1
    15     9    10   ar
    16    10    11   ar
    17    11    12   ar
    18    12    13   ar
    19    13    14   ar
    20    14     9   ar
    21     1     2   ar
    22     2     5   ar
    23     5     6   ar
    24     6     7   ar
    25     7     3   ar
    26     3     1   ar
