@<TRIPOS>MOLECULE
No_789-gen_results/8p0m/2024-11-26-14-13-15/
 33 36 0 0 0
SMALL
GASTEIGER

@<TRIPOS>ATOM
      1 C         -28.0162   -0.8135   28.8779 C.ar    1  UNL1        0.0906
      2 C         -27.0636   -0.1190   28.6079 C.ar    1  UNL1        0.1496
      3 C         -26.9716    0.7139   27.5060 C.ar    1  UNL1        0.0363
      4 C         -28.1053    0.7744   26.6421 C.ar    1  UNL1        0.0264
      5 C         -28.0677    1.4872   25.5121 C.ar    1  UNL1       -0.0199
      6 C         -29.2691   -0.5335   28.2245 C.ar    1  UNL1        0.0372
      7 C         -29.2230    0.1355   27.0328 C.ar    1  UNL1        0.1401
      8 F         -30.3265    0.1946   26.3497 F       1  UNL1       -0.2042
      9 C         -28.0316   -1.6666   30.1669 C.2     1  UNL1        0.2558
     10 O         -27.0859   -2.4607   30.3530 O.2     1  UNL1       -0.2695
     11 N         -29.0146   -1.6623   30.9998 N.am    1  UNL1       -0.2536
     12 C         -29.2849   -2.3094   31.8144 C.2     1  UNL1        0.0635
     13 C         -30.6075   -2.4520   32.2473 C.2     1  UNL1       -0.0001
     14 C         -31.3292   -1.4759   31.8002 C.3     1  UNL1        0.1385
     15 C         -30.3192   -0.8236   30.8145 C.3     1  UNL1        0.1114
     16 C         -32.6264   -1.0453   31.8556 C.3     1  UNL1        0.4028
     17 F         -33.3209   -1.5301   31.2710 F       1  UNL1       -0.1696
     18 F         -32.6445    0.3656   31.5815 F       1  UNL1       -0.1696
     19 F         -32.9040   -1.0093   33.1700 F       1  UNL1       -0.1696
     20 C         -26.9029    1.9251   24.8785 C.ar    1  UNL1       -0.0085
     21 C         -29.2475    1.7220   24.6419 C.3     1  UNL1        0.0311
     22 C         -25.6673    1.8868   25.5819 C.ar    1  UNL1       -0.0227
     23 C         -24.4224    2.3660   25.2987 C.3     1  UNL1        0.0223
     24 C         -25.7300    1.2054   27.0185 C.ar    1  UNL1       -0.0012
     25 C         -23.7459    3.3929   26.1563 C.3     1  UNL1        0.0047
     26 C         -23.4052    1.1256   25.4304 C.3     1  UNL1        0.0047
     27 O         -25.8607   -0.2291   29.3075 O.3     1  UNL1       -0.4533
     28 C         -25.5096    0.6872   30.2999 C.ar    1  UNL1        0.1453
     29 C         -25.1118    0.2271   31.4856 C.ar    1  UNL1        0.0375
     30 C         -25.4663    0.9536   32.6826 C.ar    1  UNL1        0.0031
     31 C         -25.7057    2.3568   32.5770 C.ar    1  UNL1        0.0002
     32 C         -25.7060    2.8069   31.5459 C.ar    1  UNL1        0.0031
     33 C         -25.8136    2.0698   30.2310 C.ar    1  UNL1        0.0375
@<TRIPOS>BOND
     1     7     8    1
     2     1     9    1
     3     9    10    2
     4     9    11   am
     5    11    12    1
     6    12    13    2
     7    13    14    1
     8    11    15    1
     9    14    15    1
    10    14    16    1
    11    16    17    1
    12    16    18    1
    13    16    19    1
    14     5    21    1
    15    22    23    1
    16    23    25    1
    17    23    26    1
    18     2    27    1
    19    27    28    1
    20    28    29   ar
    21    29    30   ar
    22    30    31   ar
    23    31    32   ar
    24    32    33   ar
    25    33    28   ar
    26     4     5   ar
    27     5    20   ar
    28    20    22   ar
    29    22    24   ar
    30    24     3   ar
    31     1     2   ar
    32     2     3   ar
    33     3     4   ar
    34     4     7   ar
    35     7     6   ar
    36     6     1   ar
