@<TRIPOS>MOLECULE
No_79-gen_results/8p0m/2024-11-26-14-13-15/
 16 18 0 0 0
SMALL
GASTEIGER

@<TRIPOS>ATOM
      1 C         -28.0162   -0.8135   28.8779 C.3     1  UNL1        0.0304
      2 C         -28.4690   -0.7850   29.8287 C.ar    1  UNL1       -0.0258
      3 C         -26.5042   -0.7777   28.8766 C.3     1  UNL1        0.0270
      4 C         -25.7622   -0.0022   27.9705 C.ar    1  UNL1       -0.0222
      5 C         -26.0931    0.6131   27.0948 C.ar    1  UNL1       -0.0043
      6 C         -25.2924    1.2851   26.1396 C.ar    1  UNL1       -0.0003
      7 C         -23.9069    1.3541   26.4095 C.ar    1  UNL1       -0.0000
      8 C         -23.3994    0.7728   27.5633 C.ar    1  UNL1       -0.0003
      9 C         -24.2633    0.1055   28.3863 C.ar    1  UNL1       -0.0043
     10 C         -29.9502   -0.5494   29.9539 C.ar    1  UNL1       -0.0046
     11 C         -30.6784   -0.8324   31.0373 C.ar    1  UNL1       -0.0003
     12 C         -29.9878   -1.2092   32.2520 C.ar    1  UNL1       -0.0003
     13 C         -28.6647   -1.4597   32.2690 C.ar    1  UNL1       -0.0046
     14 C         -27.9263   -1.3165   31.1013 C.ar    1  UNL1       -0.0261
     15 C         -26.5395   -1.4915   31.0570 C.3     1  UNL1        0.0264
     16 C         -25.8329   -1.2345   30.0838 C.3     1  UNL1        0.0094
@<TRIPOS>BOND
     1     1     2    1
     2     1     3    1
     3     3     4    1
     4    14    15    1
     5     3    16    1
     6    15    16    1
     7     2    10   ar
     8    10    11   ar
     9    11    12   ar
    10    12    13   ar
    11    13    14   ar
    12    14     2   ar
    13     4     5   ar
    14     5     6   ar
    15     6     7   ar
    16     7     8   ar
    17     8     9   ar
    18     9     4   ar
