@<TRIPOS>MOLECULE
No_790-gen_results/8p0m/2024-11-26-14-13-15/
 22 23 0 0 0
SMALL
GASTEIGER

@<TRIPOS>ATOM
      1 C         -28.0162   -0.8135   28.8779 C.ar    1  UNL1       -0.0026
      2 C         -28.4690   -0.7850   29.8287 C.ar    1  UNL1       -0.0006
      3 C         -26.5042   -0.7777   28.8766 C.ar    1  UNL1       -0.0003
      4 C         -25.8103   -0.8531   30.1028 C.ar    1  UNL1       -0.0000
      5 C         -27.9906   -0.8916   31.2257 C.ar    1  UNL1       -0.0026
      6 C         -26.6042   -0.8676   31.2652 C.ar    1  UNL1       -0.0003
      7 C         -30.0739   -0.8360   29.8615 C.3     1  UNL1        0.1402
      8 N         -30.7170    0.0956   30.4784 N.pl3   1  UNL1       -0.2131
      9 C         -30.5285    1.1120   30.6398 C.2     1  UNL1        0.1813
     10 N         -29.6836    1.8894   29.9572 N.2     1  UNL1       -0.2254
     11 C         -29.5541    3.0897   29.8681 C.2     1  UNL1        0.0959
     12 C         -28.5608    3.6864   28.9909 C.2     1  UNL1       -0.0055
     13 C         -27.7446    2.8069   28.2547 C.3     1  UNL1        0.0277
     14 C         -26.7214    3.3888   27.5310 C.3     1  UNL1        0.0051
     15 C         -25.7083    2.5135   26.9358 C.3     1  UNL1        0.0050
     16 C         -24.4513    2.5244   27.5056 C.3     1  UNL1        0.0264
     17 C         -23.7932    1.3669   27.9591 C.ar    1  UNL1       -0.0222
     18 C         -22.4033    1.4592   28.3128 C.ar    1  UNL1       -0.0043
     19 C         -21.8325    0.2752   28.8246 C.ar    1  UNL1       -0.0003
     20 C         -22.5835   -0.9170   28.9733 C.ar    1  UNL1       -0.0000
     21 C         -23.7662   -1.0193   28.4020 C.ar    1  UNL1       -0.0003
     22 C         -24.4270    0.1859   27.9677 C.ar    1  UNL1       -0.0043
@<TRIPOS>BOND
     1     2     7    1
     2     7     8    1
     3     8     9    1
     4     9    10    2
     5    10    11    1
     6    11    12    2
     7    12    13    1
     8    13    14    1
     9    14    15    1
    10    15    16    1
    11    16    17    1
    12    17    18   ar
    13    18    19   ar
    14    19    20   ar
    15    20    21   ar
    16    21    22   ar
    17    22    17   ar
    18     1     2   ar
    19     2     5   ar
    20     5     6   ar
    21     6     4   ar
    22     4     3   ar
    23     3     1   ar
