@<TRIPOS>MOLECULE
No_792-gen_results/8p0m/2024-11-26-14-13-15/
 15 16 0 0 0
SMALL
GASTEIGER

@<TRIPOS>ATOM
      1 C         -28.0162   -0.8135   28.8779 C.ar    1  UNL1        0.0066
      2 C         -28.4690   -0.7850   29.8287 C.ar    1  UNL1        0.0798
      3 C         -26.5042   -0.7777   28.8766 C.ar    1  UNL1        0.0002
      4 C         -25.8103   -0.8531   30.1028 C.ar    1  UNL1        0.0000
      5 C         -27.9906   -0.8916   31.2257 C.ar    1  UNL1        0.0066
      6 C         -24.3976   -0.8364   30.1775 C.ar    1  UNL1        0.0000
      7 C         -26.5754   -0.8899   31.2661 C.ar    1  UNL1        0.0002
      8 C         -23.7708   -0.9176   31.0960 C.ar    1  UNL1        0.0000
      9 C         -22.3018   -0.8444   31.2151 C.ar    1  UNL1        0.0000
     10 C         -21.6829   -0.5879   30.0577 C.ar    1  UNL1        0.0000
     11 C         -23.6382   -0.6309   28.9339 C.ar    1  UNL1        0.0000
     12 C         -22.3460   -0.4648   28.8964 C.ar    1  UNL1        0.0000
     13 C         -30.0872   -0.7699   29.8523 C.2     1  UNL1        0.3878
     14 O         -30.7677   -1.5824   30.3042 O.co2   1  UNL1       -0.2406
     15 O         -30.5963    0.2178   29.1945 O.co2   1  UNL1       -0.2406
@<TRIPOS>BOND
     1     4     6    1
     2     2    13    1
     3    13    14   ar
     4    13    15   ar
     5     6     8   ar
     6     8     9   ar
     7     9    10   ar
     8    10    12   ar
     9    12    11   ar
    10    11     6   ar
    11     1     2   ar
    12     2     5   ar
    13     5     7   ar
    14     7     4   ar
    15     4     3   ar
    16     3     1   ar
