@<TRIPOS>MOLECULE
No_795-gen_results/8p0m/2024-11-26-14-13-15/
 15 16 0 0 0
SMALL
GASTEIGER

@<TRIPOS>ATOM
      1 C         -28.0162   -0.8135   28.8779 C.ar    1  UNL1        0.0046
      2 C         -28.4690   -0.7850   29.8287 C.ar    1  UNL1        0.0554
      3 C         -26.5042   -0.7777   28.8766 C.ar    1  UNL1        0.0001
      4 C         -25.8103   -0.8531   30.1028 C.ar    1  UNL1        0.0000
      5 C         -27.9906   -0.8916   31.2257 C.ar    1  UNL1        0.0046
      6 C         -26.6042   -0.8676   31.2652 C.ar    1  UNL1        0.0001
      7 C         -30.0739   -0.8360   29.8615 C.2     1  UNL1        0.2690
      8 O         -30.5608   -0.4417   28.9417 O.2     1  UNL1       -0.2680
      9 N         -30.7428   -1.0431   31.0560 N.am    1  UNL1       -0.1754
     10 C         -32.1782   -1.0348   31.0369 C.ar    1  UNL1        0.0737
     11 C         -32.8952   -0.4962   30.4759 C.ar    1  UNL1        0.0166
     12 C         -34.3173   -0.5634   30.5420 C.ar    1  UNL1        0.0013
     13 C         -32.6199   -1.9161   32.1528 C.ar    1  UNL1        0.0166
     14 C         -33.9877   -2.0216   32.3228 C.ar    1  UNL1        0.0013
     15 C         -34.8178   -1.3171   31.5426 C.ar    1  UNL1        0.0001
@<TRIPOS>BOND
     1     2     7    1
     2     7     8    2
     3     7     9   am
     4     9    10    1
     5     1     2   ar
     6     2     5   ar
     7     5     6   ar
     8     6     4   ar
     9     4     3   ar
    10     3     1   ar
    11    10    11   ar
    12    11    12   ar
    13    12    15   ar
    14    15    14   ar
    15    14    13   ar
    16    13    10   ar
