@<TRIPOS>MOLECULE
No_796-gen_results/8p0m/2024-11-26-14-13-15/
 13 13 0 0 0
SMALL
GASTEIGER

@<TRIPOS>ATOM
      1 C         -28.0162   -0.8135   28.8779 C.3     1  UNL1        0.1515
      2 C         -27.0636   -0.1189   28.6079 C.ar    1  UNL1        0.0020
      3 C         -26.9716    0.7139   27.5060 C.ar    1  UNL1       -0.0021
      4 C         -25.8205    1.4909   27.1160 C.ar    1  UNL1        0.0063
      5 C         -24.6562    1.4242   27.9180 C.ar    1  UNL1        0.0798
      6 C         -24.6847    0.5901   29.0659 C.ar    1  UNL1        0.0063
      7 C         -25.8099   -0.1265   29.3338 C.ar    1  UNL1       -0.0021
      8 N         -28.7097   -0.5805   30.0246 N.2     1  UNL1       -0.2687
      9 C         -23.4637    2.1746   27.6094 C.2     1  UNL1        0.3878
     10 O         -22.6019    2.2793   28.4858 O.co2   1  UNL1       -0.2406
     11 O         -23.2734    2.5547   26.3663 O.co2   1  UNL1       -0.2406
     12 C         -28.5101    0.4011   30.7208 C.2     1  UNL1        0.0675
     13 C         -29.3432    0.5095   32.0426 C.3     1  UNL1        0.0529
@<TRIPOS>BOND
     1     1     8    1
     2     5     9    1
     3     9    10   ar
     4     9    11   ar
     5     8    12    2
     6    12    13    1
     7     1     2    1
     8     2     3   ar
     9     3     4   ar
    10     4     5   ar
    11     5     6   ar
    12     6     7   ar
    13     7     2   ar
