@<TRIPOS>MOLECULE
No_797-gen_results/8p0m/2024-11-26-14-13-15/
 15 17 0 0 0
SMALL
GASTEIGER

@<TRIPOS>ATOM
      1 C         -28.0162   -0.8135   28.8779 C.ar    1  UNL1        0.0174
      2 C         -28.4690   -0.7850   29.8287 C.ar    1  UNL1        0.0809
      3 C         -26.5455   -0.8762   28.8500 C.ar    1  UNL1        0.0014
      4 C         -25.8041   -1.0324   30.0571 C.ar    1  UNL1        0.0014
      5 C         -27.9437   -0.9869   31.2075 C.ar    1  UNL1        0.0852
      6 C         -26.5825   -1.0386   31.2231 C.ar    1  UNL1        0.0178
      7 N         -29.9648   -0.7353   29.8902 N.pl3   1  UNL1       -0.2315
      8 C         -30.6477    0.3169   30.2682 C.3     1  UNL1        0.1399
      9 C         -30.0738    1.3599   30.4675 C.ar    1  UNL1        0.0146
     10 C         -30.2224    2.4870   30.5412 C.ar    1  UNL1       -0.0013
     11 C         -29.3890    3.6757   30.9081 C.ar    1  UNL1       -0.0002
     12 C         -28.0185    3.3527   31.1032 C.ar    1  UNL1        0.0013
     13 C         -27.6456    2.0339   31.0054 C.ar    1  UNL1        0.0162
     14 C         -28.5178    1.1030   30.7472 C.ar    1  UNL1        0.0682
     15 N         -28.1002    0.0086   31.1306 N.pl3   1  UNL1       -0.2114
@<TRIPOS>BOND
     1     2     7    1
     2     7     8    1
     3     8     9    1
     4     5    15    1
     5    14    15    1
     6     9    10   ar
     7    10    11   ar
     8    11    12   ar
     9    12    13   ar
    10    13    14   ar
    11    14     9   ar
    12     1     2   ar
    13     2     5   ar
    14     5     6   ar
    15     6     4   ar
    16     4     3   ar
    17     3     1   ar
