@<TRIPOS>MOLECULE
No_798-gen_results/8p0m/2024-11-26-14-13-15/
 24 26 0 0 0
SMALL
GASTEIGER

@<TRIPOS>ATOM
      1 C         -28.0162   -0.8135   28.8779 C.ar    1  UNL1        0.0369
      2 C         -27.0636   -0.1189   28.6079 C.ar    1  UNL1        0.0031
      3 C         -25.7647   -0.3897   29.0360 C.ar    1  UNL1        0.0003
      4 C         -25.5296   -1.5302   29.9014 C.ar    1  UNL1        0.0031
      5 C         -26.6888   -2.2893   30.1810 C.ar    1  UNL1        0.0369
      6 C         -27.8727   -1.9508   29.7373 C.ar    1  UNL1        0.1393
      7 O         -28.9304   -2.7298   30.1154 O.3     1  UNL1       -0.4656
      8 C         -24.5394    0.4211   28.7421 C.ar    1  UNL1        0.0030
      9 C         -24.5259    1.2743   27.7265 C.ar    1  UNL1        0.0369
     10 C         -23.3174    1.9856   27.4033 C.ar    1  UNL1        0.1387
     11 C         -22.1311    1.7374   28.0503 C.ar    1  UNL1        0.0369
     12 C         -23.2983    0.1369   29.3770 C.ar    1  UNL1        0.0002
     13 C         -22.1005    0.8185   29.0410 C.ar    1  UNL1        0.0031
     14 C         -28.7772   -3.9930   30.6463 C.3     1  UNL1        0.2896
     15 C         -29.8119   -4.8583   30.2319 C.2     1  UNL1        0.2702
     16 O         -30.2978   -4.8464   29.1612 O.2     1  UNL1       -0.2708
     17 N         -30.1744   -5.8990   31.1403 N.am    1  UNL1       -0.2765
     18 C         -29.6875   -5.9682   32.5170 C.3     1  UNL1        0.0935
     19 C         -31.1473   -6.8779   30.7177 C.3     1  UNL1        0.0935
     20 O         -23.3950    2.8949   26.3829 O.3     1  UNL1       -0.4714
     21 C         -24.1091    3.8967   26.4145 C.3     1  UNL1        0.2525
     22 C         -31.1739   -8.0234   31.3963 C.3     1  UNL1        0.0216
     23 C         -29.8320   -7.1470   33.2024 C.3     1  UNL1        0.0216
     24 C         -30.6248   -8.1561   32.6778 C.3     1  UNL1        0.0035
@<TRIPOS>BOND
     1     6     7    1
     2     3     8    1
     3     7    14    1
     4    14    15    1
     5    15    16    2
     6    15    17   am
     7    17    18    1
     8    17    19    1
     9    10    20    1
    10    20    21    1
    11    22    24    1
    12    23    24    1
    13    18    23    1
    14    22    19    1
    15     1     2   ar
    16     2     3   ar
    17     3     4   ar
    18     4     5   ar
    19     5     6   ar
    20     6     1   ar
    21     8     9   ar
    22     9    10   ar
    23    10    11   ar
    24    11    13   ar
    25    13    12   ar
    26    12     8   ar
