@<TRIPOS>MOLECULE
No_8-gen_results/8p0m/2024-11-26-14-13-15/
 14 14 0 0 0
SMALL
GASTEIGER

@<TRIPOS>ATOM
      1 C         -28.0162   -0.8135   28.8779 C.3     1  UNL1        0.1386
      2 C         -27.0636   -0.1190   28.6079 C.ar    1  UNL1       -0.0007
      3 C         -25.7923   -0.4302   29.0761 C.ar    1  UNL1       -0.0026
      4 C         -24.5456    0.3494   28.8225 C.ar    1  UNL1       -0.0003
      5 C         -24.6586    1.4196   27.8878 C.ar    1  UNL1       -0.0000
      6 C         -25.9471    1.6811   27.3792 C.ar    1  UNL1       -0.0003
      7 C         -27.0439    0.9739   27.6871 C.ar    1  UNL1       -0.0026
      8 N         -28.6567   -0.5529   30.0960 N.pl3   1  UNL1       -0.2315
      9 C         -28.5841    0.2509   30.7384 C.2     1  UNL1        0.0805
     10 C         -28.3942    1.4730   30.4910 C.2     1  UNL1        0.0174
     11 C         -28.3809    2.5520   31.5170 C.2     1  UNL1        0.0014
     12 C         -28.0530    3.9043   31.2094 C.2     1  UNL1        0.0000
     13 C         -27.7576    4.2048   29.8366 C.2     1  UNL1        0.0000
     14 C         -27.7800    3.2238   28.9217 C.2     1  UNL1        0.0000
@<TRIPOS>BOND
     1     1     2    1
     2     1     8    1
     3     8     9    1
     4     9    10    2
     5    10    11    1
     6    11    12    2
     7    12    13    1
     8    13    14    2
     9     2     3   ar
    10     3     4   ar
    11     4     5   ar
    12     5     6   ar
    13     6     7   ar
    14     7     2   ar
