@<TRIPOS>MOLECULE
No_80-gen_results/8p0m/2024-11-26-14-13-15/
 7 6 0 0 0
SMALL
GASTEIGER

@<TRIPOS>ATOM
      1 CL        -28.1493   -0.8198   28.9079 Cl      1  UNL1       -0.0761
      2 C         -26.9116   -0.0797   28.9452 C.3     1  UNL1        0.2434
      3 F         -26.8992    0.8738   29.5759 F       1  UNL1       -0.2190
      4 C         -25.7709   -0.4865   28.1740 C.3     1  UNL1        0.0780
      5 C         -25.2660    0.4319   27.2477 C.2     1  UNL1       -0.0265
      6 C         -24.9215    1.6654   27.4936 C.2     1  UNL1       -0.0302
      7 C         -24.7860    2.0485   28.8435 C.3     1  UNL1        0.0303
@<TRIPOS>BOND
     1     1     2    1
     2     2     3    1
     3     2     4    1
     4     4     5    1
     5     5     6    2
     6     6     7    1
