@<TRIPOS>MOLECULE
No_800-gen_results/8p0m/2024-11-26-14-13-15/
 13 14 0 0 0
SMALL
GASTEIGER

@<TRIPOS>ATOM
      1 C         -28.0162   -0.8135   28.8779 C.ar    1  UNL1        0.0297
      2 C         -27.0636   -0.1189   28.6079 C.ar    1  UNL1        0.0032
      3 C         -26.8756    1.1325   28.9134 C.ar    1  UNL1        0.0129
      4 C         -27.9014    1.8066   29.6436 C.ar    1  UNL1        0.0032
      5 C         -29.0458   -0.2316   29.7181 C.ar    1  UNL1        0.1401
      6 C         -28.9402    1.0517   30.0597 C.ar    1  UNL1        0.0297
      7 C         -25.8732   -0.7125   27.8045 C.ar    1  UNL1        0.0024
      8 C         -25.2858    0.0505   26.8000 C.ar    1  UNL1        0.0305
      9 C         -25.2235    1.4625   27.0117 C.ar    1  UNL1        0.1506
     10 C         -26.1409    2.0494   27.9719 C.ar    1  UNL1        0.0850
     11 F         -24.3819    2.1459   26.3178 F       1  UNL1       -0.2033
     12 CL        -26.1056    3.7478   28.0966 Cl      1  UNL1       -0.0799
     13 F         -29.9442   -1.0736   30.2666 F       1  UNL1       -0.2042
@<TRIPOS>BOND
     1     9    11    1
     2    10    12    1
     3     5    13    1
     4     1     2   ar
     5     3     4   ar
     6     4     6   ar
     7     6     5   ar
     8     5     1   ar
     9     2     3   ar
    10     3    10   ar
    11    10     9   ar
    12     9     8   ar
    13     8     7   ar
    14     7     2   ar
