@<TRIPOS>MOLECULE
No_803-gen_results/8p0m/2024-11-26-14-13-15/
 35 38 0 0 0
SMALL
GASTEIGER

@<TRIPOS>ATOM
      1 C         -28.0162   -0.8135   28.8779 C.ar    1  UNL1        0.0026
      2 C         -28.4690   -0.7850   29.8287 C.ar    1  UNL1        0.0795
      3 C         -26.5042   -0.7777   28.8766 C.ar    1  UNL1       -0.0176
      4 C         -25.6540   -0.6597   27.7191 C.3     1  UNL1        0.0526
      5 C         -27.9180   -0.9374   31.1824 C.ar    1  UNL1        0.0066
      6 C         -26.5424   -0.9399   31.2606 C.ar    1  UNL1       -0.0001
      7 C         -25.7907   -0.9042   30.1750 C.ar    1  UNL1       -0.0039
      8 C         -25.2127    0.6864   27.4026 C.ar    1  UNL1       -0.0178
      9 C         -25.3250    1.0854   26.0786 C.ar    1  UNL1       -0.0040
     10 C         -24.7637    2.3482   25.6894 C.ar    1  UNL1       -0.0003
     11 C         -24.1042    3.1259   26.6899 C.ar    1  UNL1       -0.0000
     12 C         -24.4790    1.5192   28.2612 C.ar    1  UNL1       -0.0039
     13 C         -23.9399    2.6796   27.8933 C.ar    1  UNL1       -0.0003
     14 C         -30.0552   -0.7542   29.8481 C.2     1  UNL1        0.3877
     15 O         -30.7479   -1.5542   30.3007 O.co2   1  UNL1       -0.2406
     16 O         -30.5639    0.2651   29.2174 O.co2   1  UNL1       -0.2406
     17 C         -25.9442    0.3678   25.0536 C.2     1  UNL1       -0.0049
     18 C         -26.8696   -0.4613   25.0104 C.2     1  UNL1       -0.0258
     19 C         -27.5346   -0.9762   23.8915 C.3     1  UNL1        0.0307
     20 C         -28.6052   -0.1207   23.5190 C.3     1  UNL1        0.0310
     21 C         -29.5045    0.3203   24.5701 C.ar    1  UNL1       -0.0218
     22 C         -30.4902    0.3481   24.8353 C.ar    1  UNL1       -0.0043
     23 C         -31.1915    0.9161   25.9578 C.ar    1  UNL1       -0.0003
     24 C         -30.4413    1.8515   26.6893 C.ar    1  UNL1       -0.0000
     25 C         -29.0893    2.0856   26.3790 C.ar    1  UNL1       -0.0003
     26 C         -28.5403    1.4158   25.3182 C.ar    1  UNL1       -0.0043
     27 C         -28.3313    3.0396   27.1966 C.ar    1  UNL1       -0.0000
     28 C         -28.8236    4.3276   27.4093 C.ar    1  UNL1        0.0002
     29 C         -27.1592    2.6681   27.8826 C.ar    1  UNL1        0.0002
     30 C         -26.9825    3.4043   29.2010 C.ar    1  UNL1        0.0066
     31 C         -27.1409    4.7271   29.2091 C.ar    1  UNL1        0.0798
     32 C         -27.7009    5.2326   28.3165 C.ar    1  UNL1        0.0066
     33 C         -26.5533    5.5174   30.3041 C.2     1  UNL1        0.3878
     34 O         -27.1270    6.2601   30.9108 O.co2   1  UNL1       -0.2406
     35 O         -25.1928    5.2751   30.4899 O.co2   1  UNL1       -0.2406
@<TRIPOS>BOND
     1     3     4    1
     2     4     8    1
     3     2    14    1
     4    14    15   ar
     5    14    16   ar
     6     9    17    1
     7    17    18    2
     8    18    19    1
     9    19    20    1
    10    20    21    1
    11    25    27    1
    12    31    33    1
    13    33    34   ar
    14    33    35   ar
    15    21    22   ar
    16    22    23   ar
    17    23    24   ar
    18    24    25   ar
    19    25    26   ar
    20    26    21   ar
    21     1     2   ar
    22     2     5   ar
    23     5     6   ar
    24     6     7   ar
    25     7     3   ar
    26     3     1   ar
    27    27    28   ar
    28    28    32   ar
    29    32    31   ar
    30    31    30   ar
    31    30    29   ar
    32    29    27   ar
    33     8     9   ar
    34     9    10   ar
    35    10    11   ar
    36    11    13   ar
    37    13    12   ar
    38    12     8   ar
