@<TRIPOS>MOLECULE
No_804-gen_results/8p0m/2024-11-26-14-13-15/
 19 20 0 0 0
SMALL
GASTEIGER

@<TRIPOS>ATOM
      1 C         -28.0162   -0.8135   28.8779 C.ar    1  UNL1        0.0066
      2 C         -27.0636   -0.1189   28.6079 C.ar    1  UNL1       -0.0000
      3 C         -25.7647   -0.3897   29.0360 C.ar    1  UNL1       -0.0010
      4 C         -24.5516    0.4058   28.7646 C.ar    1  UNL1        0.0169
      5 C         -23.2300    0.1178   29.2575 C.ar    1  UNL1       -0.0012
      6 C         -23.0942   -1.1309   29.8730 C.ar    1  UNL1       -0.0002
      7 C         -27.7980   -1.9341   29.8560 C.ar    1  UNL1        0.0798
      8 C         -26.5420   -2.3269   30.2580 C.ar    1  UNL1        0.0066
      9 C         -25.4514   -1.5516   29.9079 C.ar    1  UNL1       -0.0000
     10 C         -24.1562   -1.9097   30.2809 C.ar    1  UNL1       -0.0000
     11 C         -24.6450    1.6582   27.9464 C.3     1  UNL1        0.2340
     12 P         -23.8043    1.7965   26.4632 P.3     1  UNL1        0.1538
     13 O         -24.3559    2.5556   25.7765 O.2     1  UNL1       -0.4571
     14 O         -22.3628    2.1636   26.8486 O.3     1  UNL1       -0.3551
     15 O         -23.8054    0.3666   25.8751 O.3     1  UNL1       -0.3551
     16 C         -29.0372   -2.7135   30.2568 C.2     1  UNL1        0.3878
     17 O         -30.0758   -2.1509   30.3813 O.co2   1  UNL1       -0.2406
     18 O         -28.8564   -3.9454   30.5716 O.co2   1  UNL1       -0.2406
     19 F         -25.3727    2.5600   28.3932 F       1  UNL1       -0.2245
@<TRIPOS>BOND
     1     4    11    1
     2    11    12    1
     3    12    13    2
     4    12    14    1
     5    12    15    1
     6     7    16    1
     7    16    17   ar
     8    16    18   ar
     9    11    19    1
    10     1     2   ar
    11     2     3   ar
    12     9     8   ar
    13     8     7   ar
    14     7     1   ar
    15     3     4   ar
    16     4     5   ar
    17     5     6   ar
    18     6    10   ar
    19    10     9   ar
    20     9     3   ar
