@<TRIPOS>MOLECULE
No_805-gen_results/8p0m/2024-11-26-14-13-15/
 35 36 0 0 0
SMALL
GASTEIGER

@<TRIPOS>ATOM
      1 C         -28.0162   -0.8135   28.8779 C.ar    1  UNL1        0.0098
      2 C         -28.4690   -0.7850   29.8287 C.ar    1  UNL1        0.0799
      3 C         -26.5042   -0.7777   28.8766 C.ar    1  UNL1        0.0393
      4 C         -25.6540   -0.6597   27.7191 C.2     1  UNL1        0.2000
      5 C         -27.9180   -0.9374   31.1824 C.ar    1  UNL1        0.0066
      6 C         -26.5423   -0.9399   31.2606 C.ar    1  UNL1        0.0003
      7 C         -25.7832   -0.8935   30.1201 C.ar    1  UNL1        0.0032
      8 C         -25.9259    0.2819   26.7445 C.2     1  UNL1        0.0939
      9 C         -24.9904    0.6776   25.8676 C.2     1  UNL1        0.0078
     10 C         -24.1885    1.6080   25.8479 C.2     1  UNL1        0.0002
     11 C         -23.3296    2.0084   26.8161 C.2     1  UNL1       -0.0002
     12 C         -23.7351    1.9424   28.1864 C.2     1  UNL1       -0.0004
     13 C         -22.7317    1.8681   29.2307 C.2     1  UNL1        0.0282
     14 C         -22.2149    0.7077   29.3054 C.3     1  UNL1        0.2734
     15 C         -27.1848    0.9320   26.6524 C.2     1  UNL1        0.2681
     16 N         -28.0004    0.5869   25.6343 N.am    1  UNL1       -0.1988
     17 C         -28.8448    1.4551   25.1120 C.3     1  UNL1        0.1178
     18 O         -27.6062    1.7205   27.5782 O.2     1  UNL1       -0.2682
     19 N         -21.3284    0.2253   28.5742 N.3     1  UNL1       -0.0898
     20 F         -22.7025   -0.1943   30.2008 F       1  UNL1       -0.2112
     21 C         -30.1564    1.2740   25.6429 C.ar    1  UNL1       -0.0026
     22 C         -30.7017    0.4547   26.0522 C.ar    1  UNL1       -0.0025
     23 C         -32.0496    0.3118   26.6402 C.ar    1  UNL1        0.0043
     24 C         -32.8140    1.4720   26.5162 C.ar    1  UNL1        0.0550
     25 C         -32.2942    2.5819   25.9235 C.ar    1  UNL1        0.0043
     26 C         -30.9804    2.6243   25.4786 C.ar    1  UNL1       -0.0025
     27 C         -28.4398    2.2985   24.0879 C.3     1  UNL1        0.0283
     28 O         -24.6686   -1.4481   27.6396 O.2     1  UNL1       -0.2864
     29 C         -30.0962   -0.7848   29.9384 C.2     1  UNL1        0.3878
     30 O         -30.6191    0.2710   29.7895 O.co2   1  UNL1       -0.2406
     31 O         -30.7021   -1.9588   29.8094 O.co2   1  UNL1       -0.2406
     32 C         -34.2163    1.4560   27.0437 C.2     1  UNL1        0.2648
     33 O         -35.1451    1.1658   26.4760 O.2     1  UNL1       -0.2684
     34 N         -34.2842    1.8367   28.4420 N.am    1  UNL1       -0.1998
     35 C         -35.5467    1.8165   29.1400 C.3     1  UNL1        0.1388
@<TRIPOS>BOND
     1     3     4    1
     2     4     8    1
     3     8     9    2
     4     9    10    1
     5    10    11    2
     6    11    12    1
     7    12    13    2
     8    13    14    1
     9     8    15    1
    10    15    16   am
    11    16    17    1
    12    15    18    2
    13    14    19    1
    14    14    20    1
    15    17    21    1
    16    17    27    1
    17     4    28    2
    18     2    29    1
    19    29    30   ar
    20    29    31   ar
    21    24    32    1
    22    32    33    2
    23    32    34   am
    24    34    35    1
    25     1     2   ar
    26     2     5   ar
    27     5     6   ar
    28     6     7   ar
    29     7     3   ar
    30     3     1   ar
    31    21    22   ar
    32    22    23   ar
    33    23    24   ar
    34    24    25   ar
    35    25    26   ar
    36    26    21   ar
