@<TRIPOS>MOLECULE
No_806-gen_results/8p0m/2024-11-26-14-13-15/
 13 14 0 0 0
SMALL
GASTEIGER

@<TRIPOS>ATOM
      1 C         -28.0162   -0.8135   28.8779 C.ar    1  UNL1       -0.0000
      2 C         -27.0636   -0.1190   28.6079 C.ar    1  UNL1       -0.0000
      3 C         -25.7923   -0.4302   29.0761 C.ar    1  UNL1       -0.0002
      4 C         -25.5756   -1.5654   29.9363 C.ar    1  UNL1       -0.0000
      5 C         -26.5354   -2.2259   30.1442 C.ar    1  UNL1       -0.0000
      6 C         -27.8232   -1.9824   29.7414 C.ar    1  UNL1       -0.0000
      7 C         -27.1414    1.1193   27.7777 C.ar    1  UNL1       -0.0002
      8 C         -26.1715    1.5512   27.0532 C.ar    1  UNL1       -0.0017
      9 C         -24.7490    1.2324   27.5410 C.ar    1  UNL1        0.0103
     10 C         -24.5751    0.1713   28.4105 C.ar    1  UNL1       -0.0017
     11 C         -23.5912    1.8978   26.9472 C.3     1  UNL1        0.1927
     12 N         -22.4282    1.7452   27.5172 N.3     1  UNL1       -0.1101
     13 CL        -23.6781    2.8147   25.5139 Cl      1  UNL1       -0.0890
@<TRIPOS>BOND
     1     9    11    1
     2    11    12    1
     3    11    13    1
     4     1     2   ar
     5     3     4   ar
     6     4     5   ar
     7     5     6   ar
     8     6     1   ar
     9     2     3   ar
    10     3    10   ar
    11    10     9   ar
    12     9     8   ar
    13     8     7   ar
    14     7     2   ar
