@<TRIPOS>MOLECULE
No_807-gen_results/8p0m/2024-11-26-14-13-15/
 20 20 0 0 0
SMALL
GASTEIGER

@<TRIPOS>ATOM
      1 F         -28.0727   -1.2542   28.5316 F       1  UNL1       -0.2015
      2 C         -27.3591   -0.3792   28.7224 C.ar    1  UNL1        0.1757
      3 C         -26.3323   -0.6441   29.4520 C.ar    1  UNL1        0.0963
      4 C         -25.2562    0.3203   29.7818 C.ar    1  UNL1        0.0779
      5 C         -25.4242    1.6275   29.2026 C.ar    1  UNL1        0.1046
      6 C         -26.5263    1.8254   28.4032 C.ar    1  UNL1        0.1801
      7 C         -27.4513    0.8601   28.1355 C.ar    1  UNL1        0.2021
      8 F         -28.4529    1.1274   27.3543 F       1  UNL1       -0.1985
      9 CL        -23.9422    0.0254   30.8085 Cl      1  UNL1       -0.0810
     10 C         -26.0211   -1.9466   30.1528 C.2     1  UNL1        0.2679
     11 N         -25.0102   -2.6225   29.8281 N.am    1  UNL1       -0.2016
     12 O         -26.8738   -2.3379   31.0177 O.2     1  UNL1       -0.2683
     13 C         -23.9855   -2.3081   28.9207 C.3     1  UNL1        0.1155
     14 CL        -24.2605    2.8672   29.5650 Cl      1  UNL1       -0.0781
     15 O         -26.6799    3.1012   27.8428 O.3     1  UNL1       -0.4604
     16 C         -26.0996    3.3755   26.7284 C.3     1  UNL1        0.3187
     17 C         -24.7683    3.7830   26.6969 C.2     1  UNL1        0.4084
     18 O         -24.3042    4.3117   27.7215 O.co2   1  UNL1       -0.2415
     19 O         -24.0184    3.5659   25.6523 O.co2   1  UNL1       -0.2415
     20 C         -23.2488   -1.2581   28.9397 C.3     1  UNL1        0.0253
@<TRIPOS>BOND
     1     1     2    1
     2     7     8    1
     3     4     9    1
     4     3    10    1
     5    10    11   am
     6    10    12    2
     7    11    13    1
     8     5    14    1
     9     6    15    1
    10    15    16    1
    11    16    17    1
    12    17    18   ar
    13    17    19   ar
    14    13    20    1
    15     2     3   ar
    16     3     4   ar
    17     4     5   ar
    18     5     6   ar
    19     6     7   ar
    20     7     2   ar
