@<TRIPOS>MOLECULE
No_808-gen_results/8p0m/2024-11-26-14-13-15/
 28 30 0 0 0
SMALL
GASTEIGER

@<TRIPOS>ATOM
      1 C         -28.0162   -0.8135   28.8779 C.ar    1  UNL1        0.0064
      2 C         -28.4690   -0.7850   29.8287 C.ar    1  UNL1        0.0757
      3 C         -27.0871    0.2903   28.6377 C.ar    1  UNL1        0.0004
      4 C         -26.8317    1.2487   29.5869 C.ar    1  UNL1        0.0032
      5 C         -28.3914    0.0801   31.0065 C.ar    1  UNL1        0.0064
      6 C         -27.4940    1.1521   30.7841 C.ar    1  UNL1        0.0003
      7 C         -26.2596    0.6039   27.4149 C.ar    1  UNL1        0.0033
      8 C         -25.1967    1.0461   27.3445 C.ar    1  UNL1        0.0420
      9 C         -24.8438    2.0437   28.4640 C.ar    1  UNL1        0.1957
     10 C         -25.5969    2.0134   29.6123 C.ar    1  UNL1        0.0420
     11 O         -23.7254    2.7990   28.2392 O.3     1  UNL1       -0.2866
     12 C         -29.6089   -1.9347   30.1532 C.2     1  UNL1        0.3425
     13 O         -29.1902   -3.1061   30.5337 O.2     1  UNL1       -0.2448
     14 O         -30.7580   -1.7075   30.4721 O.3     1  UNL1       -0.4237
     15 C         -31.7291   -2.6072   30.2598 C.3     1  UNL1        0.3269
     16 C         -32.2739   -2.6070   28.9890 C.3     1  UNL1        0.4501
     17 F         -31.8200   -1.7418   28.2648 F       1  UNL1       -0.1652
     18 F         -32.5696   -3.7067   28.3844 F       1  UNL1       -0.1652
     19 N         -32.8150   -2.2670   31.2394 N.3     1  UNL1       -0.2274
     20 C         -33.3824   -1.0711   31.4123 C.3     1  UNL1        0.0933
     21 C         -33.2431   -3.3241   32.0976 C.3     1  UNL1        0.1022
     22 F         -33.5543   -2.0446   28.9671 F       1  UNL1       -0.1652
     23 C         -32.2635   -4.0768   32.6500 C.ar    1  UNL1       -0.0060
     24 C         -32.3079   -4.9728   33.3208 C.ar    1  UNL1       -0.0029
     25 C         -31.1590   -5.8097   33.9152 C.ar    1  UNL1       -0.0003
     26 C         -30.0369   -5.6255   33.3690 C.ar    1  UNL1       -0.0000
     27 C         -29.7913   -4.6262   32.3811 C.ar    1  UNL1       -0.0003
     28 C         -30.8912   -3.8537   31.9966 C.ar    1  UNL1       -0.0029
@<TRIPOS>BOND
     1     9    11    1
     2     2    12    1
     3    12    13    2
     4    12    14    1
     5    14    15    1
     6    15    16    1
     7    16    17    1
     8    16    18    1
     9    15    19    1
    10    19    20    1
    11    19    21    1
    12    16    22    1
    13    21    23    1
    14     4    10   ar
    15    10     9   ar
    16     9     8   ar
    17     8     7   ar
    18     7     3   ar
    19    23    24   ar
    20    24    25   ar
    21    25    26   ar
    22    26    27   ar
    23    27    28   ar
    24    28    23   ar
    25     1     2   ar
    26     2     5   ar
    27     5     6   ar
    28     6     4   ar
    29     4     3   ar
    30     3     1   ar
