@<TRIPOS>MOLECULE
No_809-gen_results/8p0m/2024-11-26-14-13-15/
 31 32 0 0 0
SMALL
GASTEIGER

@<TRIPOS>ATOM
      1 C         -28.0162   -0.8135   28.8779 C.2     1  UNL1        0.0781
      2 C         -27.0636   -0.1189   28.6079 C.2     1  UNL1       -0.0293
      3 C         -26.9716    0.7139   27.5060 C.3     1  UNL1        0.0972
      4 C         -25.8206    1.4910   27.1160 C.3     1  UNL1        0.0245
      5 C         -24.6562    1.4242   27.9180 C.3     1  UNL1        0.1045
      6 C         -24.6847    0.5901   29.0659 C.3     1  UNL1        0.0156
      7 C         -25.8099   -0.1265   29.3338 C.3     1  UNL1        0.0233
      8 C         -28.7093   -0.4588   30.1754 C.2     1  UNL1        0.3873
      9 O         -29.4273   -1.3885   30.7420 O.co2   1  UNL1       -0.2406
     10 C         -23.4634    2.2046   27.5975 C.2     1  UNL1        0.3643
     11 O         -22.5740    2.2499   28.4844 O.co2   1  UNL1       -0.2457
     12 O         -23.2610    2.5804   26.3739 O.co2   1  UNL1       -0.2457
     13 O         -28.5677    0.5873   30.7573 O.co2   1  UNL1       -0.2406
     14 C         -28.0792    0.8063   26.5542 C.2     1  UNL1        0.2450
     15 O         -28.9392    1.5181   26.6708 O.2     1  UNL1       -0.2730
     16 N         -28.0457   -0.0584   25.4934 N.am    1  UNL1       -0.2003
     17 C         -29.0348   -0.1583   24.4715 C.3     1  UNL1        0.1416
     18 C         -30.2668   -0.4591   24.9995 C.ar    1  UNL1        0.0025
     19 C         -30.4465   -1.5169   25.6554 C.ar    1  UNL1        0.0343
     20 C         -31.7917   -1.9366   26.1788 C.ar    1  UNL1        0.1383
     21 C         -32.8647   -1.1907   25.6623 C.ar    1  UNL1        0.0369
     22 C         -32.7297   -0.0991   24.8782 C.ar    1  UNL1        0.0028
     23 C         -31.4451    0.2710   24.4616 C.ar    1  UNL1       -0.0024
     24 O         -31.9243   -2.9799   26.9724 O.3     1  UNL1       -0.4748
     25 C         -32.1072   -2.7725   28.3056 C.3     1  UNL1        0.2183
     26 C         -33.1271   -3.6099   28.9006 C.3     1  UNL1        0.1652
     27 P         -33.4886   -4.8621   28.4081 P.3     1  UNL1        0.3736
     28 O         -34.4953   -5.3494   28.5486 O.3     1  UNL1       -0.1397
     29 O         -32.3457   -5.7881   29.0861 O.3     1  UNL1       -0.2899
     30 O         -33.0181   -4.9818   26.9150 O.2     1  UNL1       -0.2554
     31 C         -31.3980   -6.3730   28.4717 C.3     1  UNL1        0.1839
@<TRIPOS>BOND
     1     1     2    2
     2     2     3    1
     3     3     4    1
     4     4     5    1
     5     5     6    1
     6     2     7    1
     7     6     7    1
     8     1     8    1
     9     8     9   ar
    10     5    10    1
    11    10    11   ar
    12    10    12   ar
    13     8    13   ar
    14     3    14    1
    15    14    15    2
    16    14    16   am
    17    16    17    1
    18    17    18    1
    19    20    24    1
    20    24    25    1
    21    25    26    1
    22    26    27    1
    23    27    28    1
    24    27    29    1
    25    27    30    2
    26    29    31    1
    27    18    19   ar
    28    19    20   ar
    29    20    21   ar
    30    21    22   ar
    31    22    23   ar
    32    23    18   ar
