@<TRIPOS>MOLECULE
No_81-gen_results/8p0m/2024-11-26-14-13-15/
 11 11 0 0 0
SMALL
GASTEIGER

@<TRIPOS>ATOM
      1 F         -28.0727   -1.2542   28.5316 F       1  UNL1       -0.2042
      2 C         -27.0607   -0.6291   28.8721 C.ar    1  UNL1        0.1401
      3 C         -26.1528   -1.1557   29.4537 C.ar    1  UNL1        0.0296
      4 C         -24.8778   -0.5788   29.8639 C.ar    1  UNL1        0.0062
      5 C         -24.7426    0.8273   29.4808 C.ar    1  UNL1        0.0716
      6 C         -25.7883    1.3927   28.7628 C.ar    1  UNL1        0.0062
      7 C         -26.9145    0.7309   28.4427 C.ar    1  UNL1        0.0296
      8 C         -23.5403    1.5267   29.8447 C.3     1  UNL1        0.4186
      9 F         -23.2741    2.3764   29.1201 F       1  UNL1       -0.1659
     10 F         -23.6404    2.0268   31.1323 F       1  UNL1       -0.1659
     11 F         -22.4473    0.6602   29.9613 F       1  UNL1       -0.1659
@<TRIPOS>BOND
     1     1     2    1
     2     5     8    1
     3     8     9    1
     4     8    10    1
     5     8    11    1
     6     2     3   ar
     7     3     4   ar
     8     4     5   ar
     9     5     6   ar
    10     6     7   ar
    11     7     2   ar
