@<TRIPOS>MOLECULE
No_810-gen_results/8p0m/2024-11-26-14-13-15/
 16 17 0 0 0
SMALL
GASTEIGER

@<TRIPOS>ATOM
      1 C         -28.0162   -0.8135   28.8779 C.ar    1  UNL1        0.0375
      2 C         -27.0636   -0.1190   28.6079 C.ar    1  UNL1        0.0031
      3 C         -25.7923   -0.4302   29.0761 C.ar    1  UNL1        0.0002
      4 C         -25.5756   -1.5654   29.9363 C.ar    1  UNL1        0.0031
      5 C         -26.7354   -2.3004   30.2173 C.ar    1  UNL1        0.0375
      6 C         -27.9184   -1.9537   29.7629 C.ar    1  UNL1        0.1454
      7 O         -29.0001   -2.7012   30.1151 O.3     1  UNL1       -0.4508
      8 C         -24.5290    0.3490   28.7998 C.ar    1  UNL1        0.0000
      9 C         -24.4808    1.2113   27.7998 C.ar    1  UNL1        0.0000
     10 C         -23.4518    1.8595   27.4552 C.ar    1  UNL1        0.0000
     11 C         -22.1631    1.6473   28.0100 C.ar    1  UNL1        0.0000
     12 C         -23.3137    0.0274   29.4409 C.ar    1  UNL1        0.0000
     13 C         -22.1009    0.7427   29.0466 C.ar    1  UNL1        0.0000
     14 C         -30.1250   -2.1320   30.5834 C.2     1  UNL1        0.1750
     15 C         -30.2213   -1.1449   31.0448 C.2     1  UNL1        0.0148
     16 C         -31.5054   -0.5339   31.5238 C.3     1  UNL1        0.0341
@<TRIPOS>BOND
     1     6     7    1
     2     3     8    1
     3     7    14    1
     4    14    15    2
     5    15    16    1
     6     1     2   ar
     7     2     3   ar
     8     3     4   ar
     9     4     5   ar
    10     5     6   ar
    11     6     1   ar
    12     8     9   ar
    13     9    10   ar
    14    10    11   ar
    15    11    13   ar
    16    13    12   ar
    17    12     8   ar
