@<TRIPOS>MOLECULE
No_811-gen_results/8p0m/2024-11-26-14-13-15/
 10 9 0 0 0
SMALL
GASTEIGER

@<TRIPOS>ATOM
      1 CL        -28.1493   -0.8198   28.9079 Cl      1  UNL1       -0.0470
      2 C         -28.5324   -0.0471   29.7727 C.3     1  UNL1        0.3295
      3 F         -27.6515    0.7172   30.3086 F       1  UNL1       -0.1868
      4 C         -29.2530   -0.6893   30.9723 C.3     1  UNL1        0.0706
      5 F         -29.4537    0.8274   29.2449 F       1  UNL1       -0.1868
      6 C         -30.4566   -1.1340   30.9901 C.3     1  UNL1        0.0068
      7 C         -29.0847    0.1509   32.2505 C.3     1  UNL1        0.0066
      8 C         -28.2943   -1.9413   31.3067 C.3     1  UNL1        0.0066
      9 C         -29.3327   -0.2132   33.3230 C.3     1  UNL1        0.0002
     10 C         -27.5113   -2.4818   30.4096 C.3     1  UNL1        0.0002
@<TRIPOS>BOND
     1     1     2    1
     2     2     3    1
     3     2     4    1
     4     2     5    1
     5     4     6    1
     6     4     7    1
     7     4     8    1
     8     7     9    1
     9     8    10    1
