@<TRIPOS>MOLECULE
No_812-gen_results/8p0m/2024-11-26-14-13-15/
 9 9 0 0 0
SMALL
GASTEIGER

@<TRIPOS>ATOM
      1 O         -28.1229   -1.3353   28.4874 O.2     1  UNL1       -0.2730
      2 C         -27.4806   -0.4044   28.7094 C.2     1  UNL1        0.2450
      3 C         -27.1904    0.2460   29.5268 C.3     1  UNL1        0.1002
      4 N         -26.6871   -0.0001   27.4423 N.am    1  UNL1       -0.2052
      5 C         -27.6511    0.1259   30.8798 C.2     1  UNL1       -0.0173
      6 C         -25.7508    1.0047   27.4342 C.3     1  UNL1        0.1152
      7 C         -25.5610    1.6907   28.6120 C.3     1  UNL1        0.0243
      8 C         -26.1559    1.3682   29.6808 C.3     1  UNL1        0.0154
      9 C         -28.3688   -0.8446   31.1197 C.2     1  UNL1       -0.0044
@<TRIPOS>BOND
     1     1     2    2
     2     2     3    1
     3     2     4   am
     4     3     5    1
     5     6     7    1
     6     3     8    1
     7     7     8    1
     8     5     9    2
     9     6     4    1
