@<TRIPOS>MOLECULE
No_813-gen_results/8p0m/2024-11-26-14-13-15/
 16 17 0 0 0
SMALL
GASTEIGER

@<TRIPOS>ATOM
      1 C         -28.0162   -0.8135   28.8779 C.ar    1  UNL1       -0.0042
      2 C         -28.4690   -0.7850   29.8287 C.ar    1  UNL1       -0.0003
      3 C         -28.1960    0.3478   28.0550 C.ar    1  UNL1       -0.0209
      4 C         -29.0191    1.3501   28.3782 C.ar    1  UNL1       -0.0042
      5 C         -29.6249    1.2683   29.6012 C.ar    1  UNL1       -0.0003
      6 C         -29.3821    0.1816   30.4004 C.ar    1  UNL1       -0.0000
      7 C         -27.4591    0.3787   26.7048 C.3     1  UNL1        0.0429
      8 C         -26.1349    0.3565   26.8182 C.3     1  UNL1        0.0321
      9 C         -25.3220    1.3160   27.3781 C.ar    1  UNL1       -0.0187
     10 C         -25.5803    2.4992   27.4135 C.ar    1  UNL1        0.0164
     11 C         -24.8509    3.4586   27.8735 C.ar    1  UNL1        0.0986
     12 N         -23.5764    3.0517   28.2124 N.ar    1  UNL1       -0.2423
     13 C         -23.9226    1.1209   27.8510 C.ar    1  UNL1        0.0164
     14 C         -23.0955    1.9344   28.2648 C.ar    1  UNL1        0.0986
     15 C         -28.1237    0.5948   25.5531 C.3     1  UNL1        0.0995
     16 CL        -29.3305    1.5071   25.2872 Cl      1  UNL1       -0.1133
@<TRIPOS>BOND
     1     3     7    1
     2     7     8    1
     3     8     9    1
     4     7    15    1
     5    15    16    1
     6     1     2   ar
     7     2     6   ar
     8     6     5   ar
     9     5     4   ar
    10     4     3   ar
    11     3     1   ar
    12     9    10   ar
    13    10    11   ar
    14    11    12   ar
    15    12    14   ar
    16    14    13   ar
    17    13     9   ar
