@<TRIPOS>MOLECULE
No_814-gen_results/8p0m/2024-11-26-14-13-15/
 16 16 0 0 0
SMALL
GASTEIGER

@<TRIPOS>ATOM
      1 C         -28.0162   -0.8135   28.8779 C.ar    1  UNL1        0.0045
      2 C         -28.4690   -0.7850   29.8287 C.ar    1  UNL1        0.0539
      3 C         -26.5042   -0.7777   28.8766 C.ar    1  UNL1        0.0001
      4 C         -25.8103   -0.8531   30.1028 C.ar    1  UNL1        0.0000
      5 C         -27.9906   -0.8916   31.2257 C.ar    1  UNL1        0.0045
      6 C         -26.6042   -0.8676   31.2652 C.ar    1  UNL1        0.0001
      7 C         -30.0773   -0.8857   30.0240 C.2     1  UNL1        0.2528
      8 O         -30.6406   -1.8993   30.1420 O.2     1  UNL1       -0.2696
      9 N         -30.7443    0.3043   29.7721 N.am    1  UNL1       -0.2522
     10 C         -32.1554    0.2895   29.7136 C.3     1  UNL1        0.1204
     11 C         -30.0476    1.5766   29.6037 C.2     1  UNL1        0.0678
     12 C         -30.1896    2.0500   28.4534 C.2     1  UNL1        0.0162
     13 C         -29.9121    1.8572   27.4974 C.2     1  UNL1        0.0013
     14 C         -30.0364    2.6087   26.2037 C.2     1  UNL1        0.0000
     15 C         -30.7080    3.8234   26.3672 C.2     1  UNL1        0.0000
     16 C         -31.1099    4.2296   27.5922 C.2     1  UNL1        0.0000
@<TRIPOS>BOND
     1     2     7    1
     2     7     8    2
     3     7     9   am
     4     9    10    1
     5     9    11    1
     6    11    12    2
     7    12    13    1
     8    13    14    2
     9    14    15    1
    10    15    16    2
    11     1     2   ar
    12     2     5   ar
    13     5     6   ar
    14     6     4   ar
    15     4     3   ar
    16     3     1   ar
