@<TRIPOS>MOLECULE
No_815-gen_results/8p0m/2024-11-26-14-13-15/
 21 24 0 0 0
SMALL
GASTEIGER

@<TRIPOS>ATOM
      1 C         -28.0162   -0.8135   28.8779 C.ar    1  UNL1        0.0012
      2 C         -27.0636   -0.1189   28.6079 C.ar    1  UNL1        0.0130
      3 C         -25.7923   -0.4302   29.0761 C.ar    1  UNL1       -0.0031
      4 C         -25.5756   -1.5654   29.9363 C.ar    1  UNL1       -0.0003
      5 C         -26.7354   -2.3004   30.2173 C.ar    1  UNL1       -0.0000
      6 C         -27.9184   -1.9537   29.7629 C.ar    1  UNL1        0.0000
      7 C         -27.1057    1.1023   27.7593 C.ar    1  UNL1        0.0475
      8 N         -27.8512    1.5044   27.1726 N.pl3   1  UNL1       -0.3075
      9 C         -25.7263    1.8954   27.5924 C.ar    1  UNL1        0.0103
     10 C         -24.6782    1.7464   28.2086 C.ar    1  UNL1       -0.0205
     11 C         -24.5723    0.3758   28.9827 C.ar    1  UNL1       -0.0254
     12 C         -29.0534    0.9955   27.1913 C.3     1  UNL1        0.0908
     13 C         -23.2510    0.0895   29.5734 C.3     1  UNL1        0.0307
     14 C         -22.1155    0.1888   28.6991 C.3     1  UNL1        0.0304
     15 C         -29.8351    1.1739   25.9620 C.3     1  UNL1        0.0215
     16 C         -27.8604    2.6436   26.2699 C.3     1  UNL1        0.0908
     17 C         -28.6735    2.7201   25.1360 C.3     1  UNL1        0.0215
     18 C         -29.8298    2.1680   25.1692 C.3     1  UNL1        0.0035
     19 C         -21.7884    1.3320   27.9367 C.2     1  UNL1       -0.0300
     20 C         -22.5875    2.1287   27.1120 C.2     1  UNL1       -0.0260
     21 C         -23.9290    2.3078   27.4147 C.3     1  UNL1        0.0517
@<TRIPOS>BOND
     1     7     8    1
     2     8    12    1
     3    11    13    1
     4    13    14    1
     5     8    16    1
     6    15    18    1
     7    17    18    1
     8    14    19    1
     9    19    20    2
    10    10    21    1
    11    20    21    1
    12    12    15    1
    13    17    16    1
    14     3    11   ar
    15    11    10   ar
    16    10     9   ar
    17     9     7   ar
    18     7     2   ar
    19     1     2   ar
    20     2     3   ar
    21     3     4   ar
    22     4     5   ar
    23     5     6   ar
    24     6     1   ar
