@<TRIPOS>MOLECULE
No_816-gen_results/8p0m/2024-11-26-14-13-15/
 9 9 0 0 0
SMALL
GASTEIGER

@<TRIPOS>ATOM
      1 C         -28.0162   -0.8135   28.8779 C.ar    1  UNL1       -0.0000
      2 C         -28.4690   -0.7850   29.8287 C.ar    1  UNL1       -0.0000
      3 C         -28.1816    0.4277   28.1134 C.ar    1  UNL1       -0.0003
      4 C         -27.4498    0.6435   26.8500 C.2     1  UNL1       -0.0046
      5 C         -26.1815    0.0357   26.7145 C.2     1  UNL1       -0.0258
      6 C         -25.3642    0.3093   25.6111 C.3     1  UNL1        0.0307
      7 C         -29.5346    0.0514   30.3474 C.ar    1  UNL1       -0.0000
      8 C         -29.7859    1.1463   29.6286 C.ar    1  UNL1       -0.0000
      9 C         -29.1003    1.3803   28.4769 C.ar    1  UNL1       -0.0000
@<TRIPOS>BOND
     1     3     4    1
     2     4     5    2
     3     5     6    1
     4     1     2   ar
     5     2     7   ar
     6     7     8   ar
     7     8     9   ar
     8     9     3   ar
     9     3     1   ar
