@<TRIPOS>MOLECULE
No_819-gen_results/8p0m/2024-11-26-14-13-15/
 15 16 0 0 0
SMALL
GASTEIGER

@<TRIPOS>ATOM
      1 C         -28.0162   -0.8135   28.8779 C.ar    1  UNL1       -0.0000
      2 C         -27.0636   -0.1190   28.6079 C.ar    1  UNL1       -0.0003
      3 C         -25.7647   -0.3897   29.0360 C.ar    1  UNL1       -0.0036
      4 C         -24.5516    0.4058   28.7646 C.ar    1  UNL1       -0.0178
      5 C         -23.2300    0.1178   29.2575 C.ar    1  UNL1       -0.0039
      6 C         -23.0942   -1.1309   29.8730 C.ar    1  UNL1       -0.0003
      7 C         -27.7981   -1.9341   29.8560 C.ar    1  UNL1       -0.0000
      8 C         -26.5420   -2.3269   30.2580 C.ar    1  UNL1       -0.0000
      9 C         -25.4514   -1.5516   29.9079 C.ar    1  UNL1       -0.0003
     10 C         -24.1562   -1.9097   30.2809 C.ar    1  UNL1       -0.0000
     11 C         -24.6450    1.6582   27.9464 C.3     1  UNL1        0.0524
     12 C         -24.8958    2.7559   28.5615 C.2     1  UNL1       -0.0198
     13 C         -25.3970    2.9144   29.8358 C.2     1  UNL1        0.0183
     14 C         -25.7350    4.1445   30.4226 C.2     1  UNL1        0.1218
     15 N         -25.6342    5.2257   29.6216 N.2     1  UNL1       -0.1464
@<TRIPOS>BOND
     1     4    11    1
     2    11    12    1
     3    12    13    2
     4    13    14    1
     5    14    15    2
     6     1     2   ar
     7     2     3   ar
     8     9     8   ar
     9     8     7   ar
    10     7     1   ar
    11     3     4   ar
    12     4     5   ar
    13     5     6   ar
    14     6    10   ar
    15    10     9   ar
    16     9     3   ar
