@<TRIPOS>MOLECULE
No_82-gen_results/8p0m/2024-11-26-14-13-15/
 14 14 0 0 0
SMALL
GASTEIGER

@<TRIPOS>ATOM
      1 C         -28.0162   -0.8135   28.8779 C.ar    1  UNL1       -0.0039
      2 C         -28.4690   -0.7850   29.8287 C.ar    1  UNL1       -0.0003
      3 C         -28.1960    0.3478   28.0550 C.ar    1  UNL1       -0.0181
      4 C         -29.0191    1.3501   28.3782 C.ar    1  UNL1       -0.0039
      5 C         -29.4107    0.1803   30.3782 C.ar    1  UNL1       -0.0000
      6 C         -29.6059    1.2495   29.6193 C.ar    1  UNL1       -0.0003
      7 C         -27.4597    0.3802   26.7091 C.3     1  UNL1        0.0486
      8 C         -26.0094    0.3317   26.7236 C.3     1  UNL1        0.0344
      9 C         -25.2570    1.3161   27.3387 C.2     1  UNL1       -0.0285
     10 C         -23.8757    1.1200   27.5504 C.2     1  UNL1       -0.0103
     11 C         -23.0019    2.2258   27.5778 C.3     1  UNL1        0.1350
     12 N         -21.6931    1.8835   27.8303 N.3     1  UNL1       -0.1262
     13 C         -28.0972    0.4756   25.4946 C.2     1  UNL1       -0.0217
     14 C         -27.7697    0.0175   24.4042 C.2     1  UNL1       -0.0046
@<TRIPOS>BOND
     1     3     7    1
     2     7     8    1
     3     8     9    1
     4     9    10    2
     5    10    11    1
     6    11    12    1
     7     7    13    1
     8    13    14    2
     9     1     2   ar
    10     2     5   ar
    11     5     6   ar
    12     6     4   ar
    13     4     3   ar
    14     3     1   ar
