@<TRIPOS>MOLECULE
No_820-gen_results/8p0m/2024-11-26-14-13-15/
 15 16 0 0 0
SMALL
GASTEIGER

@<TRIPOS>ATOM
      1 C         -28.0162   -0.8135   28.8779 C.ar    1  UNL1        0.0134
      2 C         -27.0636   -0.1190   28.6079 C.ar    1  UNL1        0.0543
      3 C         -26.9287    1.1713   29.0083 C.ar    1  UNL1       -0.0018
      4 C         -27.9560    1.7411   29.7840 C.ar    1  UNL1        0.0266
      5 C         -29.0569   -0.3271   29.7466 C.ar    1  UNL1        0.0305
      6 C         -28.9828    0.9722   30.1516 C.ar    1  UNL1        0.1399
      7 CL        -25.7989   -0.9116   27.7610 Cl      1  UNL1       -0.0826
      8 F         -29.9734    1.4460   30.9152 F       1  UNL1       -0.2042
      9 C         -25.7131    1.9963   28.5625 C.3     1  UNL1        0.0928
     10 C         -25.7228    3.3235   28.6474 C.ar    1  UNL1        0.1436
     11 N         -26.0726    3.9988   29.6666 N.ar    1  UNL1       -0.2288
     12 C         -26.0758    5.4156   29.6476 C.ar    1  UNL1        0.1019
     13 N         -25.3563    4.0590   27.5560 N.ar    1  UNL1       -0.2288
     14 C         -25.2714    5.4035   27.4470 C.ar    1  UNL1        0.1019
     15 C         -25.6232    6.1228   28.5646 C.ar    1  UNL1        0.0413
@<TRIPOS>BOND
     1     2     7    1
     2     6     8    1
     3     3     9    1
     4     9    10    1
     5     1     2   ar
     6     2     3   ar
     7     3     4   ar
     8     4     6   ar
     9     6     5   ar
    10     5     1   ar
    11    10    11   ar
    12    11    12   ar
    13    12    15   ar
    14    15    14   ar
    15    14    13   ar
    16    13    10   ar
