@<TRIPOS>MOLECULE
No_821-gen_results/8p0m/2024-11-26-14-13-15/
 19 20 0 0 0
SMALL
GASTEIGER

@<TRIPOS>ATOM
      1 C         -28.0162   -0.8135   28.8779 C.ar    1  UNL1        0.0441
      2 C         -27.0636   -0.1189   28.6079 C.ar    1  UNL1        0.0828
      3 C         -25.7923   -0.4302   29.0761 C.ar    1  UNL1        0.0068
      4 C         -25.5681   -1.2411   29.7572 C.ar    1  UNL1        0.0033
      5 C         -26.6114   -2.1840   30.2439 C.ar    1  UNL1        0.0375
      6 C         -27.8191   -1.9189   29.8034 C.ar    1  UNL1        0.1455
      7 O         -28.8468   -2.7292   30.2056 O.3     1  UNL1       -0.4533
      8 C         -30.0273   -2.2113   30.5918 C.ar    1  UNL1        0.1516
      9 C         -31.0480   -3.0360   30.2184 C.ar    1  UNL1        0.1142
     10 C         -32.1632   -2.4575   29.6879 C.ar    1  UNL1        0.0097
     11 C         -32.4104   -1.0536   29.9257 C.ar    1  UNL1        0.0004
     12 C         -31.3669   -0.2864   30.3902 C.ar    1  UNL1        0.0031
     13 C         -30.1274   -0.8674   30.6886 C.ar    1  UNL1        0.0377
     14 C         -27.2912    1.0475   27.6164 C.2     1  UNL1        0.3879
     15 O         -28.0522    1.8125   27.8198 O.co2   1  UNL1       -0.2406
     16 O         -26.4830    1.0214   26.5904 O.co2   1  UNL1       -0.2406
     17 C         -30.8814   -4.4832   30.0487 C.2     1  UNL1        0.3907
     18 O         -31.0095   -5.1112   29.0501 O.co2   1  UNL1       -0.2404
     19 O         -30.2742   -5.0961   31.0931 O.co2   1  UNL1       -0.2404
@<TRIPOS>BOND
     1     6     7    1
     2     7     8    1
     3     2    14    1
     4    14    15   ar
     5    14    16   ar
     6     9    17    1
     7    17    18   ar
     8    17    19   ar
     9     1     2   ar
    10     2     3   ar
    11     3     4   ar
    12     4     5   ar
    13     5     6   ar
    14     6     1   ar
    15     8     9   ar
    16     9    10   ar
    17    10    11   ar
    18    11    12   ar
    19    12    13   ar
    20    13     8   ar
