@<TRIPOS>MOLECULE
No_822-gen_results/8p0m/2024-11-26-14-13-15/
 13 13 0 0 0
SMALL
GASTEIGER

@<TRIPOS>ATOM
      1 C         -28.0162   -0.8135   28.8779 C.ar    1  UNL1        0.0104
      2 C         -28.4690   -0.7850   29.8287 C.ar    1  UNL1        0.0797
      3 C         -27.1356    0.2359   28.5352 C.ar    1  UNL1        0.0716
      4 C         -26.8745    1.2825   29.3982 C.ar    1  UNL1        0.0039
      5 C         -27.5070    1.2380   30.6295 C.ar    1  UNL1        0.0002
      6 C         -28.3293    0.1745   30.9350 C.ar    1  UNL1        0.0066
      7 C         -26.4077    0.3070   27.2259 C.3     1  UNL1        0.4186
      8 F         -27.0192    0.0345   26.2763 F       1  UNL1       -0.1659
      9 F         -25.2626   -0.5297   27.3240 F       1  UNL1       -0.1659
     10 F         -25.7624    1.5281   26.9439 F       1  UNL1       -0.1659
     11 C         -29.3864   -2.0224   30.3300 C.2     1  UNL1        0.3877
     12 O         -30.4412   -2.2028   30.0007 O.co2   1  UNL1       -0.2406
     13 O         -28.7827   -2.9517   31.1791 O.co2   1  UNL1       -0.2406
@<TRIPOS>BOND
     1     3     7    1
     2     7     8    1
     3     7     9    1
     4     7    10    1
     5     2    11    1
     6    11    12   ar
     7    11    13   ar
     8     1     2   ar
     9     2     6   ar
    10     6     5   ar
    11     5     4   ar
    12     4     3   ar
    13     3     1   ar
