@<TRIPOS>MOLECULE
No_823-gen_results/8p0m/2024-11-26-14-13-15/
 19 19 0 0 0
SMALL
GASTEIGER

@<TRIPOS>ATOM
      1 C         -28.0162   -0.8135   28.8779 C.ar    1  UNL1        0.0798
      2 C         -27.0636   -0.1189   28.6079 C.ar    1  UNL1        0.0066
      3 C         -27.0010    0.6913   27.4910 C.ar    1  UNL1       -0.0001
      4 C         -28.1373    0.7363   26.6350 C.ar    1  UNL1       -0.0039
      5 C         -28.1438    1.4322   25.4880 C.2     1  UNL1       -0.0218
      6 C         -29.2801   -0.5524   28.2479 C.ar    1  UNL1        0.0066
      7 C         -29.2552    0.0950   27.0446 C.ar    1  UNL1       -0.0001
      8 C         -27.2841    1.1886   24.5424 C.2     1  UNL1       -0.0036
      9 C         -29.1941    2.4266   25.2325 C.3     1  UNL1        0.0310
     10 C         -26.2565    0.2922   24.7238 C.2     1  UNL1        0.0085
     11 C         -28.0437   -1.6172   30.2093 C.2     1  UNL1        0.3878
     12 O         -27.1130   -2.4373   30.3664 O.co2   1  UNL1       -0.2406
     13 O         -28.7052   -1.2907   31.2014 O.co2   1  UNL1       -0.2406
     14 C         -24.8754    0.6408   25.0137 C.2     1  UNL1        0.0496
     15 C         -24.4369    1.4292   26.0955 C.1     1  UNL1       -0.0591
     16 C         -23.6821    2.1991   26.3591 C.1     1  UNL1       -0.0595
     17 C         -23.3430    2.7196   27.6766 C.2     1  UNL1        0.0450
     18 C         -24.1449    2.2573   28.7399 C.2     1  UNL1       -0.0169
     19 C         -24.9464    1.3675   28.5482 C.3     1  UNL1        0.0314
@<TRIPOS>BOND
     1     4     5    1
     2     5     8    2
     3     5     9    1
     4     8    10    1
     5     1    11    1
     6    11    12   ar
     7    11    13   ar
     8    10    14    2
     9    14    15    1
    10    15    16    3
    11    16    17    1
    12    17    18    2
    13    18    19    1
    14     1     2   ar
    15     2     3   ar
    16     3     4   ar
    17     4     7   ar
    18     7     6   ar
    19     6     1   ar
