@<TRIPOS>MOLECULE
No_824-gen_results/8p0m/2024-11-26-14-13-15/
 19 20 0 0 0
SMALL
GASTEIGER

@<TRIPOS>ATOM
      1 C         -28.0162   -0.8135   28.8779 C.ar    1  UNL1        0.0104
      2 C         -28.4690   -0.7850   29.8287 C.ar    1  UNL1        0.0797
      3 C         -27.1356    0.2359   28.5352 C.ar    1  UNL1        0.0716
      4 C         -26.8745    1.2825   29.3982 C.ar    1  UNL1        0.0039
      5 C         -27.5070    1.2380   30.6295 C.ar    1  UNL1        0.0002
      6 C         -28.3293    0.1745   30.9350 C.ar    1  UNL1        0.0066
      7 C         -26.4077    0.3070   27.2259 C.3     1  UNL1        0.4186
      8 F         -25.4085   -0.3655   27.2512 F       1  UNL1       -0.1659
      9 F         -26.0182    1.5819   26.8795 F       1  UNL1       -0.1659
     10 F         -27.2405   -0.0415   26.1784 F       1  UNL1       -0.1659
     11 C         -29.3814   -2.0267   30.3338 C.2     1  UNL1        0.3877
     12 O         -30.4030   -2.2503   29.9897 O.co2   1  UNL1       -0.2406
     13 O         -28.7733   -2.9075   31.2401 O.co2   1  UNL1       -0.2406
     14 C         -27.2447    2.3314   31.5987 C.ar    1  UNL1       -0.0000
     15 C         -27.1820    3.4742   31.5299 C.ar    1  UNL1       -0.0000
     16 C         -26.7826    4.4690   32.5163 C.ar    1  UNL1       -0.0000
     17 C         -26.5675    3.9877   33.8086 C.ar    1  UNL1        0.0000
     18 C         -26.9083    1.7486   33.0159 C.ar    1  UNL1       -0.0000
     19 C         -26.6496    2.6275   34.0508 C.ar    1  UNL1       -0.0000
@<TRIPOS>BOND
     1     3     7    1
     2     7     8    1
     3     7     9    1
     4     7    10    1
     5     2    11    1
     6    11    12   ar
     7    11    13   ar
     8     5    14    1
     9     1     2   ar
    10     2     6   ar
    11     6     5   ar
    12     5     4   ar
    13     4     3   ar
    14     3     1   ar
    15    14    15   ar
    16    15    16   ar
    17    16    17   ar
    18    17    19   ar
    19    19    18   ar
    20    18    14   ar
