@<TRIPOS>MOLECULE
No_825-gen_results/8p0m/2024-11-26-14-13-15/
 19 20 0 0 0
SMALL
GASTEIGER

@<TRIPOS>ATOM
      1 C         -28.0162   -0.8135   28.8779 C.3     1  UNL1        0.0993
      2 C         -27.0636   -0.1190   28.6079 C.ar    1  UNL1       -0.0007
      3 C         -27.0010    0.6913   27.4910 C.ar    1  UNL1        0.0653
      4 C         -25.8548    1.4825   27.0830 C.ar    1  UNL1        0.0119
      5 C         -24.6901    1.4526   27.8807 C.ar    1  UNL1        0.0799
      6 C         -23.4878    2.1451   27.6011 C.2     1  UNL1        0.3878
      7 C         -25.9158   -0.1417   29.5581 C.ar    1  UNL1       -0.0025
      8 C         -24.6894    0.6408   29.1304 C.ar    1  UNL1        0.0063
      9 O         -22.6449    2.2747   28.4851 O.co2   1  UNL1       -0.2406
     10 O         -23.3137    2.5176   26.3493 O.co2   1  UNL1       -0.2406
     11 N         -28.6767   -0.5416   30.0833 N.3     1  UNL1       -0.2690
     12 C         -29.6571   -1.3176   30.6379 C.3     1  UNL1        0.0724
     13 C         -30.1962   -0.9780   31.8978 C.3     1  UNL1        0.0174
     14 C         -28.4236    0.5646   30.9639 C.3     1  UNL1        0.0724
     15 C         -28.9462    0.8605   32.0952 C.3     1  UNL1        0.0174
     16 C         -29.8679    0.0893   32.6209 C.3     1  UNL1        0.0029
     17 C         -28.1046    0.7716   26.5814 C.2     1  UNL1        0.3332
     18 O         -28.0871    0.6778   25.4423 O.2     1  UNL1       -0.2541
     19 F         -29.3167    0.7760   27.1462 F       1  UNL1       -0.1586
@<TRIPOS>BOND
     1     1     2    1
     2     5     6    1
     3     6     9   ar
     4     6    10   ar
     5     1    11    1
     6    11    12    1
     7    11    14    1
     8    13    16    1
     9    15    16    1
    10     3    17    1
    11    17    18    2
    12    17    19    1
    13    12    13    1
    14    15    14    1
    15     2     3   ar
    16     3     4   ar
    17     4     5   ar
    18     5     8   ar
    19     8     7   ar
    20     7     2   ar
