@<TRIPOS>MOLECULE
No_827-gen_results/8p0m/2024-11-26-14-13-15/
 15 15 0 0 0
SMALL
GASTEIGER

@<TRIPOS>ATOM
      1 C         -28.0162   -0.8135   28.8779 C.2     1  UNL1        0.2690
      2 C         -27.0636   -0.1189   28.6079 C.ar    1  UNL1        0.0554
      3 C         -27.0010    0.6913   27.4910 C.ar    1  UNL1        0.0047
      4 C         -25.8548    1.4825   27.0830 C.ar    1  UNL1        0.0048
      5 C         -24.6901    1.4526   27.8807 C.ar    1  UNL1        0.0567
      6 C         -24.7379    0.6010   29.0416 C.ar    1  UNL1        0.0048
      7 C         -25.8234   -0.1688   29.3887 C.ar    1  UNL1        0.0047
      8 N         -29.2075   -0.1514   29.0660 N.am    1  UNL1       -0.1745
      9 C         -30.2318   -0.7607   29.6957 C.2     1  UNL1        0.0844
     10 C         -23.5223    2.2141   27.5499 C.2     1  UNL1        0.2842
     11 N         -23.4497    2.7698   26.3301 N.am    1  UNL1       -0.0837
     12 O         -22.3266    1.8721   28.0068 O.2     1  UNL1       -0.2667
     13 C         -29.9733   -1.9096   30.3644 C.2     1  UNL1       -0.0079
     14 C         -31.0258   -2.6523   30.9368 C.3     1  UNL1        0.0321
     15 O         -27.8387   -1.8826   29.6274 O.2     1  UNL1       -0.2680
@<TRIPOS>BOND
     1     1     2    1
     2     1     8   am
     3     8     9    1
     4     5    10    1
     5    10    11   am
     6    10    12    2
     7     9    13    2
     8    13    14    1
     9     1    15    2
    10     2     3   ar
    11     3     4   ar
    12     4     5   ar
    13     5     6   ar
    14     6     7   ar
    15     7     2   ar
