@<TRIPOS>MOLECULE
No_828-gen_results/8p0m/2024-11-26-14-13-15/
 19 19 0 0 0
SMALL
GASTEIGER

@<TRIPOS>ATOM
      1 C         -28.0162   -0.8135   28.8779 C.3     1  UNL1        0.1242
      2 C         -27.0636   -0.1189   28.6079 C.3     1  UNL1        0.0900
      3 C         -25.7923   -0.4302   29.0761 C.3     1  UNL1        0.1123
      4 C         -24.5456    0.3494   28.8225 C.3     1  UNL1        0.0206
      5 C         -24.6586    1.4196   27.8878 C.3     1  UNL1        0.1030
      6 C         -25.9471    1.6811   27.3792 C.3     1  UNL1        0.0730
      7 C         -27.0439    0.9739   27.6871 C.2     1  UNL1        0.1528
      8 N         -29.1797   -0.1202   29.1288 N.am    1  UNL1       -0.1912
      9 C         -30.2095   -0.7652   29.7428 C.2     1  UNL1        0.3259
     10 C         -23.4456    2.1545   27.6087 C.3     1  UNL1        0.3979
     11 F         -22.4652    1.9694   28.1876 F       1  UNL1       -0.1700
     12 F         -23.7055    3.4904   27.5572 F       1  UNL1       -0.1700
     13 F         -23.1516    1.8448   26.1971 F       1  UNL1       -0.1700
     14 CL        -31.7156   -0.5942   29.2690 Cl      1  UNL1       -0.0208
     15 O         -29.9430   -1.8623   30.4197 O.2     1  UNL1       -0.2551
     16 C         -25.5012   -1.5340   30.0012 C.2     1  UNL1        0.3648
     17 O         -24.6495   -2.3002   29.6666 O.co2   1  UNL1       -0.2457
     18 O         -26.3794   -1.7686   30.9203 O.co2   1  UNL1       -0.2457
     19 O         -28.1991    1.3953   27.1719 O.2     1  UNL1       -0.2960
@<TRIPOS>BOND
     1     1     2    1
     2     3     4    1
     3     5     6    1
     4     2     7    1
     5     6     7    1
     6     1     8    1
     7     8     9   am
     8     5    10    1
     9    10    11    1
    10    10    12    1
    11    10    13    1
    12     9    14    1
    13     9    15    2
    14     3    16    1
    15    16    17   ar
    16    16    18   ar
    17     7    19    2
    18     2     3    1
    19     4     5    1
