@<TRIPOS>MOLECULE
No_829-gen_results/8p0m/2024-11-26-14-13-15/
 16 17 0 0 0
SMALL
GASTEIGER

@<TRIPOS>ATOM
      1 CL        -28.1493   -0.8198   28.9079 Cl      1  UNL1       -0.0822
      2 C         -26.9116   -0.0797   28.9452 C.ar    1  UNL1        0.0577
      3 C         -26.0490   -0.0718   27.8591 C.ar    1  UNL1        0.0116
      4 C         -24.7194    0.4034   27.9174 C.ar    1  UNL1        0.0074
      5 C         -24.2099    0.9302   29.0839 C.ar    1  UNL1        0.0798
      6 C         -25.0231    0.9078   30.1875 C.ar    1  UNL1        0.0074
      7 C         -26.2532    0.3904   30.1401 C.ar    1  UNL1        0.0108
      8 C         -22.8500    1.4479   29.0593 C.2     1  UNL1        0.3878
      9 O         -21.9336    1.3302   28.5710 O.co2   1  UNL1       -0.2406
     10 O         -22.8089    2.4184   30.2004 O.co2   1  UNL1       -0.2406
     11 C         -27.0814    0.3303   31.4314 C.ar    1  UNL1        0.0008
     12 C         -27.5310    1.3651   31.8078 C.ar    1  UNL1        0.0000
     13 C         -28.2917    1.4047   33.0650 C.ar    1  UNL1        0.0000
     14 C         -28.5412    0.1444   33.6591 C.ar    1  UNL1        0.0000
     15 C         -28.0886   -0.9984   33.1666 C.ar    1  UNL1        0.0000
     16 C         -27.2973   -0.9942   31.9840 C.ar    1  UNL1        0.0000
@<TRIPOS>BOND
     1     1     2    1
     2     5     8    1
     3     8     9   ar
     4     8    10   ar
     5     7    11    1
     6    11    12   ar
     7    12    13   ar
     8    13    14   ar
     9    14    15   ar
    10    15    16   ar
    11    16    11   ar
    12     2     3   ar
    13     3     4   ar
    14     4     5   ar
    15     5     6   ar
    16     6     7   ar
    17     7     2   ar
