@<TRIPOS>MOLECULE
No_83-gen_results/8p0m/2024-11-26-14-13-15/
 14 14 0 0 0
SMALL
GASTEIGER

@<TRIPOS>ATOM
      1 C         -28.0162   -0.8135   28.8779 C.ar    1  UNL1        0.0714
      2 C         -28.4690   -0.7850   29.8287 C.3     1  UNL1        0.4186
      3 C         -28.1816    0.4277   28.1134 C.ar    1  UNL1        0.0077
      4 C         -27.4498    0.6435   26.8500 C.ar    1  UNL1        0.0714
      5 C         -26.1815    0.0357   26.7145 C.ar    1  UNL1        0.0038
      6 C         -25.7800   -0.9326   27.6938 C.ar    1  UNL1       -0.0001
      7 C         -26.5568   -1.2134   28.7413 C.ar    1  UNL1        0.0038
      8 F         -29.6747   -0.4261   29.9581 F       1  UNL1       -0.1659
      9 F         -28.6558   -2.2681   30.2995 F       1  UNL1       -0.1659
     10 F         -27.8368   -0.4218   30.9927 F       1  UNL1       -0.1659
     11 C         -27.7618    1.6200   25.8536 C.3     1  UNL1        0.4186
     12 F         -27.0924    2.5742   25.8798 F       1  UNL1       -0.1659
     13 F         -29.0711    2.0350   26.1491 F       1  UNL1       -0.1659
     14 F         -27.8637    0.9738   24.6572 F       1  UNL1       -0.1659
@<TRIPOS>BOND
     1     1     2    1
     2     2     8    1
     3     2     9    1
     4     2    10    1
     5     4    11    1
     6    11    12    1
     7    11    13    1
     8    11    14    1
     9     1     3   ar
    10     3     4   ar
    11     4     5   ar
    12     5     6   ar
    13     6     7   ar
    14     7     1   ar
