@<TRIPOS>MOLECULE
No_832-gen_results/8p0m/2024-11-26-14-13-15/
 14 15 0 0 0
SMALL
GASTEIGER

@<TRIPOS>ATOM
      1 C         -28.0162   -0.8135   28.8779 C.ar    1  UNL1       -0.0000
      2 C         -28.4690   -0.7850   29.8287 C.ar    1  UNL1       -0.0000
      3 C         -26.5042   -0.7777   28.8766 C.ar    1  UNL1       -0.0000
      4 C         -25.6540   -0.6597   27.7191 C.ar    1  UNL1       -0.0001
      5 C         -27.9180   -0.9374   31.1824 C.ar    1  UNL1       -0.0000
      6 C         -26.5423   -0.9399   31.2606 C.ar    1  UNL1       -0.0000
      7 C         -25.7832   -0.8935   30.1201 C.ar    1  UNL1       -0.0001
      8 C         -24.3179   -0.2373   27.8436 C.ar    1  UNL1        0.0039
      9 C         -23.6632   -0.4277   29.0855 C.ar    1  UNL1        0.0714
     10 C         -24.3624   -0.6461   30.1936 C.ar    1  UNL1        0.0039
     11 C         -22.1965   -0.1594   29.1257 C.3     1  UNL1        0.4186
     12 F         -21.5950   -1.1449   29.3734 F       1  UNL1       -0.1659
     13 F         -21.7903    0.3350   27.8627 F       1  UNL1       -0.1659
     14 F         -21.9232    0.7972   30.0413 F       1  UNL1       -0.1659
@<TRIPOS>BOND
     1     9    11    1
     2    11    12    1
     3    11    13    1
     4    11    14    1
     5     1     2   ar
     6     2     5   ar
     7     5     6   ar
     8     6     7   ar
     9     3     1   ar
    10     3     4   ar
    11     4     8   ar
    12     8     9   ar
    13     9    10   ar
    14    10     7   ar
    15     7     3   ar
