@<TRIPOS>MOLECULE
No_834-gen_results/8p0m/2024-11-26-14-13-15/
 34 36 0 0 0
SMALL
GASTEIGER

@<TRIPOS>ATOM
      1 C         -28.0162   -0.8135   28.8779 C.ar    1  UNL1       -0.0043
      2 C         -28.4690   -0.7850   29.8287 C.ar    1  UNL1       -0.0003
      3 C         -27.1356    0.2359   28.5352 C.ar    1  UNL1       -0.0222
      4 C         -26.8745    1.2825   29.3982 C.ar    1  UNL1       -0.0043
      5 C         -27.5070    1.2380   30.6295 C.ar    1  UNL1       -0.0003
      6 C         -28.3293    0.1745   30.9350 C.ar    1  UNL1       -0.0000
      7 C         -26.4077    0.3070   27.2259 C.3     1  UNL1        0.0267
      8 C         -26.8748    0.8389   26.2127 C.3     1  UNL1        0.0264
      9 C         -25.0813   -0.2883   27.1835 C.3     1  UNL1        0.0090
     10 C         -28.1776    1.4121   26.1391 C.ar    1  UNL1       -0.0225
     11 C         -29.1025    1.0983   25.7418 C.ar    1  UNL1       -0.0043
     12 C         -30.2190    1.5644   25.9110 C.ar    1  UNL1       -0.0006
     13 C         -30.3595    2.8455   26.5687 C.ar    1  UNL1       -0.0043
     14 C         -29.2595    3.4644   27.0372 C.ar    1  UNL1       -0.0228
     15 C         -28.0591    2.7862   26.8899 C.ar    1  UNL1       -0.0085
     16 C         -26.2067    0.7492   24.9329 C.3     1  UNL1        0.0050
     17 C         -24.1630    0.2037   28.2153 C.3     1  UNL1        0.0224
     18 C         -23.4803    1.3561   28.0192 C.2     1  UNL1       -0.0262
     19 C         -22.2178    1.3259   27.8758 C.2     1  UNL1       -0.0300
     20 C         -23.9079   -0.6005   29.3524 C.3     1  UNL1        0.0047
     21 C         -21.4509    2.5562   27.6102 C.3     1  UNL1        0.0304
     22 C         -24.1635    2.6455   27.8792 C.2     1  UNL1        0.0036
     23 C         -24.5654    3.4845   27.3786 C.2     1  UNL1        0.0518
     24 BR        -24.7096    3.8696   25.6412 Br      1  UNL1       -0.0474
     25 C         -25.2104    4.6683   28.2280 C.ar    1  UNL1        0.0875
     26 N         -25.4676    4.4602   29.4539 N.ar    1  UNL1       -0.2433
     27 C         -26.0201    5.4459   30.2332 C.ar    1  UNL1        0.0988
     28 C         -25.7066    5.9017   27.7036 C.ar    1  UNL1        0.0196
     29 C         -26.1531    6.9251   28.4062 C.ar    1  UNL1        0.0032
     30 C         -26.3522    6.6798   29.7945 C.ar    1  UNL1        0.0207
     31 C         -29.2878    4.8139   27.6854 C.3     1  UNL1        0.0223
     32 C         -28.9215    5.8194   26.9267 C.3     1  UNL1        0.0047
     33 C         -29.6932    4.9030   29.0643 C.3     1  UNL1        0.0044
     34 C         -29.5377    3.9809   30.0024 C.3     1  UNL1        0.0003
@<TRIPOS>BOND
     1     3     7    1
     2     7     8    1
     3     7     9    1
     4     8    10    1
     5     8    16    1
     6     9    17    1
     7    17    18    1
     8    18    19    2
     9    17    20    1
    10    19    21    1
    11    18    22    1
    12    22    23    2
    13    23    24    1
    14    23    25    1
    15    14    31    1
    16    31    32    1
    17    31    33    1
    18    33    34    1
    19     1     2   ar
    20     2     6   ar
    21     6     5   ar
    22     5     4   ar
    23     4     3   ar
    24     3     1   ar
    25    25    26   ar
    26    26    27   ar
    27    27    30   ar
    28    30    29   ar
    29    29    28   ar
    30    28    25   ar
    31    10    11   ar
    32    11    12   ar
    33    12    13   ar
    34    13    14   ar
    35    14    15   ar
    36    15    10   ar
