@<TRIPOS>MOLECULE
No_835-gen_results/8p0m/2024-11-26-14-13-15/
 10 10 0 0 0
SMALL
GASTEIGER

@<TRIPOS>ATOM
      1 C         -28.0162   -0.8135   28.8779 C.ar    1  UNL1        0.0000
      2 C         -27.0636   -0.1190   28.6079 C.ar    1  UNL1        0.0000
      3 C         -27.0010    0.6913   27.4910 C.ar    1  UNL1        0.0000
      4 C         -28.1373    0.7363   26.6350 C.ar    1  UNL1        0.0012
      5 C         -29.2360    0.0765   27.0690 C.ar    1  UNL1        0.0153
      6 C         -29.2177   -0.6429   28.1747 C.ar    1  UNL1        0.0012
      7 C         -30.4152    0.1590   26.1820 C.2     1  UNL1        0.0805
      8 N         -30.3473    0.0802   24.9534 N.2     1  UNL1       -0.1527
      9 C         -31.7233    0.1201   26.7904 C.3     1  UNL1        0.0477
     10 C         -32.8118    0.0774   25.9293 C.3     1  UNL1        0.0068
@<TRIPOS>BOND
     1     5     7    1
     2     7     8    2
     3     7     9    1
     4     9    10    1
     5     1     2   ar
     6     2     3   ar
     7     3     4   ar
     8     4     5   ar
     9     5     6   ar
    10     6     1   ar
