@<TRIPOS>MOLECULE
No_837-gen_results/8p0m/2024-11-26-14-13-15/
 12 12 0 0 0
SMALL
GASTEIGER

@<TRIPOS>ATOM
      1 C         -28.0162   -0.8135   28.8779 C.ar    1  UNL1        0.0031
      2 C         -27.0636   -0.1189   28.6079 C.ar    1  UNL1        0.0369
      3 C         -25.7647   -0.3897   29.0360 C.ar    1  UNL1        0.1386
      4 C         -25.5296   -1.5302   29.9014 C.ar    1  UNL1        0.0369
      5 C         -26.6888   -2.2893   30.1810 C.ar    1  UNL1        0.0031
      6 C         -27.8727   -1.9508   29.7373 C.ar    1  UNL1        0.0002
      7 O         -24.6590    0.3822   28.7692 O.3     1  UNL1       -0.4751
      8 C         -23.4062    0.0733   29.1011 C.3     1  UNL1        0.2101
      9 C         -22.3943    1.0175   28.7490 C.3     1  UNL1        0.0757
     10 C         -22.8702    2.2521   28.1940 C.2     1  UNL1        0.0096
     11 C         -24.1937    2.4505   27.7898 C.2     1  UNL1        0.1629
     12 F         -24.5324    3.5456   27.3096 F       1  UNL1       -0.2022
@<TRIPOS>BOND
     1     3     7    1
     2     7     8    1
     3     8     9    1
     4     9    10    1
     5    10    11    2
     6    11    12    1
     7     1     2   ar
     8     2     3   ar
     9     3     4   ar
    10     4     5   ar
    11     5     6   ar
    12     6     1   ar
