@<TRIPOS>MOLECULE
No_839-gen_results/8p0m/2024-11-26-14-13-15/
 35 36 0 0 0
SMALL
GASTEIGER

@<TRIPOS>ATOM
      1 C         -28.0162   -0.8135   28.8779 C.ar    1  UNL1        0.0843
      2 C         -27.0636   -0.1190   28.6079 C.ar    1  UNL1        0.0618
      3 C         -27.0010    0.6913   27.4910 C.ar    1  UNL1        0.0049
      4 C         -28.1373    0.7363   26.6350 C.ar    1  UNL1        0.0047
      5 C         -29.2360    0.0765   27.0690 C.ar    1  UNL1        0.0553
      6 C         -29.2177   -0.6429   28.1747 C.ar    1  UNL1        0.0113
      7 C         -30.4152    0.1590   26.1819 C.2     1  UNL1        0.2648
      8 O         -31.2774   -0.5117   26.4083 O.2     1  UNL1       -0.2684
      9 N         -30.5036    1.2086   25.2960 N.am    1  UNL1       -0.2013
     10 C         -25.7095   -0.2223   29.4176 C.2     1  UNL1        0.2719
     11 N         -24.6240   -0.6447   28.9038 N.am    1  UNL1       -0.1314
     12 C         -23.4756   -0.8626   29.4097 C.2     1  UNL1        0.3517
     13 C         -22.6705    0.2181   29.6594 C.2     1  UNL1        0.4423
     14 O         -23.0154   -2.0790   29.4974 O.2     1  UNL1       -0.2606
     15 O         -25.6327    0.3624   30.5341 O.2     1  UNL1       -0.2679
     16 C         -31.6730    1.3839   24.3999 C.3     1  UNL1        0.1198
     17 O         -22.9619    1.2430   30.1419 O.co2   1  UNL1       -0.2353
     18 O         -21.2997    0.1248   29.2729 O.co2   1  UNL1       -0.2353
     19 C         -28.0880   -1.7144   30.1338 C.2     1  UNL1        0.3879
     20 O         -27.3901   -2.6023   30.2599 O.co2   1  UNL1       -0.2406
     21 O         -29.0889   -1.5139   30.9360 O.co2   1  UNL1       -0.2406
     22 C         -31.6781    2.5735   23.7459 C.3     1  UNL1        0.0442
     23 C         -32.0257    3.6461   24.1963 C.ar    1  UNL1       -0.0163
     24 C         -31.8414    3.8768   25.5571 C.ar    1  UNL1       -0.0041
     25 C         -32.1994    5.1534   26.2014 C.ar    1  UNL1       -0.0003
     26 C         -33.1940    5.8590   25.5395 C.ar    1  UNL1        0.0001
     27 C         -33.4969    5.6341   24.2070 C.ar    1  UNL1        0.0043
     28 C         -32.9793    4.5294   23.5853 C.ar    1  UNL1        0.0515
     29 C         -33.3522    4.1923   22.2404 C.2     1  UNL1        0.2684
     30 C         -30.2489    2.9285   23.0145 C.3     1  UNL1        0.0065
     31 N         -33.7174    3.0888   21.7926 N.am    1  UNL1       -0.1798
     32 C         -33.5890    2.7032   20.5982 C.2     1  UNL1        0.0518
     33 O         -33.4268    5.2545   21.4216 O.2     1  UNL1       -0.2680
     34 C         -33.7076    1.2757   20.3278 C.2     1  UNL1        0.0132
     35 C         -33.2426    3.4808   19.4368 C.3     1  UNL1        0.0493
@<TRIPOS>BOND
     1     5     7    1
     2     7     8    2
     3     7     9   am
     4     2    10    1
     5    10    11   am
     6    11    12   am
     7    12    13    1
     8    12    14    2
     9    10    15    2
    10     9    16    1
    11    13    17   ar
    12    13    18   ar
    13     1    19    1
    14    19    20   ar
    15    19    21   ar
    16    16    22    1
    17    28    29    1
    18    22    30    1
    19    29    31   am
    20    31    32    1
    21    29    33    2
    22    32    34    2
    23    32    35    1
    24    22    23    1
    25     1     2   ar
    26     2     3   ar
    27     3     4   ar
    28     4     5   ar
    29     5     6   ar
    30     6     1   ar
    31    23    24   ar
    32    24    25   ar
    33    25    26   ar
    34    26    27   ar
    35    27    28   ar
    36    28    23   ar
