@<TRIPOS>MOLECULE
No_840-gen_results/8p0m/2024-11-26-14-13-15/
 20 22 0 0 0
SMALL
GASTEIGER

@<TRIPOS>ATOM
      1 C         -28.0162   -0.8135   28.8779 C.ar    1  UNL1       -0.0042
      2 C         -28.4690   -0.7850   29.8287 C.ar    1  UNL1       -0.0003
      3 C         -26.5455   -0.8762   28.8500 C.ar    1  UNL1       -0.0215
      4 C         -25.6825   -0.7773   27.6829 C.3     1  UNL1        0.0351
      5 C         -27.9181   -1.0034   31.1877 C.ar    1  UNL1       -0.0000
      6 C         -26.5308   -1.0794   31.2463 C.ar    1  UNL1       -0.0003
      7 C         -25.7798   -1.0462   30.0905 C.ar    1  UNL1       -0.0042
      8 C         -25.2322    0.5793   27.3292 C.3     1  UNL1        0.0489
      9 C         -23.9816    0.8698   27.7676 C.ar    1  UNL1       -0.0181
     10 C         -23.1871    0.2885   28.7222 C.ar    1  UNL1       -0.0039
     11 C         -21.8564    0.6487   29.0241 C.ar    1  UNL1       -0.0003
     12 C         -21.2119    1.5319   28.1724 C.ar    1  UNL1       -0.0000
     13 C         -23.3480    2.1232   27.1410 C.ar    1  UNL1       -0.0039
     14 C         -21.9600    2.3025   27.2970 C.ar    1  UNL1       -0.0003
     15 C         -25.9775    1.3453   26.4500 C.ar    1  UNL1       -0.0181
     16 C         -27.3261    1.6212   26.6549 C.ar    1  UNL1       -0.0039
     17 C         -28.0978    2.1388   25.6644 C.ar    1  UNL1       -0.0003
     18 C         -27.6310    2.0581   24.4128 C.ar    1  UNL1       -0.0000
     19 C         -26.3169    1.5994   24.1439 C.ar    1  UNL1       -0.0003
     20 C         -25.4663    1.2220   25.1154 C.ar    1  UNL1       -0.0039
@<TRIPOS>BOND
     1     3     4    1
     2     4     8    1
     3     8     9    1
     4     8    15    1
     5    15    16   ar
     6    16    17   ar
     7    17    18   ar
     8    18    19   ar
     9    19    20   ar
    10    20    15   ar
    11     1     2   ar
    12     2     5   ar
    13     5     6   ar
    14     6     7   ar
    15     7     3   ar
    16     3     1   ar
    17     9    10   ar
    18    10    11   ar
    19    11    12   ar
    20    12    14   ar
    21    14    13   ar
    22    13     9   ar
