@<TRIPOS>MOLECULE
No_841-gen_results/8p0m/2024-11-26-14-13-15/
 35 38 0 0 0
SMALL
GASTEIGER

@<TRIPOS>ATOM
      1 C         -28.0162   -0.8135   28.8779 C.ar    1  UNL1        0.0369
      2 C         -27.0636   -0.1190   28.6079 C.ar    1  UNL1        0.0031
      3 C         -25.7647   -0.3897   29.0360 C.ar    1  UNL1        0.0002
      4 C         -25.5296   -1.5302   29.9014 C.ar    1  UNL1        0.0031
      5 C         -26.6888   -2.2893   30.1810 C.ar    1  UNL1        0.0369
      6 C         -27.8727   -1.9508   29.7373 C.ar    1  UNL1        0.1387
      7 O         -28.9304   -2.7298   30.1154 O.3     1  UNL1       -0.4727
      8 C         -24.5394    0.4211   28.7421 C.ar    1  UNL1        0.0000
      9 C         -24.5259    1.2743   27.7266 C.ar    1  UNL1        0.0000
     10 C         -23.3174    1.9856   27.4033 C.ar    1  UNL1        0.0000
     11 C         -22.1311    1.7374   28.0503 C.ar    1  UNL1        0.0000
     12 C         -23.3831    0.3148   29.5939 C.ar    1  UNL1        0.0000
     13 C         -22.1474    0.9218   29.1533 C.ar    1  UNL1        0.0000
     14 C         -28.7772   -3.9940   30.6447 C.3     1  UNL1        0.2373
     15 C         -29.8113   -4.8589   30.2286 C.3     1  UNL1        0.1890
     16 O         -30.8870   -4.3834   30.5946 O.3     1  UNL1       -0.3394
     17 C         -32.0372   -4.8679   30.1011 C.3     1  UNL1        0.2039
     18 C         -31.9852   -4.7763   28.8234 C.3     1  UNL1        0.1528
     19 O         -31.2419   -5.7797   28.3233 O.3     1  UNL1       -0.3503
     20 C         -33.2800   -3.9991   30.6478 C.2     1  UNL1        0.2564
     21 O         -34.3530   -4.4756   30.6379 O.2     1  UNL1       -0.2719
     22 C         -29.8604   -5.4779   28.7774 C.3     1  UNL1        0.1754
     23 C         -32.9630   -4.3552   27.8273 C.3     1  UNL1        0.0447
     24 C         -32.3867   -4.0554   26.4994 C.3     1  UNL1        0.1167
     25 C         -31.8717   -2.6403   26.4142 C.2     1  UNL1        0.3649
     26 O         -31.9493   -1.9335   27.4114 O.co2   1  UNL1       -0.2457
     27 O         -31.2937   -2.2687   25.3532 O.co2   1  UNL1       -0.2457
     28 N         -33.0118   -2.7138   31.0633 N.am    1  UNL1       -0.2773
     29 C         -34.0427   -1.8110   31.4490 C.3     1  UNL1        0.0935
     30 C         -33.6273   -0.6435   31.5108 C.3     1  UNL1        0.0216
     31 C         -32.2657   -0.1968   31.3392 C.3     1  UNL1        0.0035
     32 C         -31.3245   -1.1770   30.9611 C.3     1  UNL1        0.0216
     33 C         -31.7448   -2.3234   30.8169 C.3     1  UNL1        0.0935
     34 C         -32.3996   -6.2450   30.6235 C.2     1  UNL1        0.0114
     35 C         -32.2395   -6.4647   32.0247 C.2     1  UNL1       -0.0019
@<TRIPOS>BOND
     1     6     7    1
     2     3     8    1
     3     7    14    1
     4    14    15    1
     5    15    16    1
     6    16    17    1
     7    17    18    1
     8    18    19    1
     9    17    20    1
    10    20    21    2
    11    15    22    1
    12    19    22    1
    13    18    23    1
    14    23    24    1
    15    24    25    1
    16    25    26   ar
    17    25    27   ar
    18    20    28   am
    19    28    29    1
    20    30    31    1
    21    28    33    1
    22    32    33    1
    23    17    34    1
    24    34    35    2
    25    29    30    1
    26    31    32    1
    27     1     2   ar
    28     2     3   ar
    29     3     4   ar
    30     4     5   ar
    31     5     6   ar
    32     6     1   ar
    33     8     9   ar
    34     9    10   ar
    35    10    11   ar
    36    11    13   ar
    37    13    12   ar
    38    12     8   ar
