@<TRIPOS>MOLECULE
No_842-gen_results/8p0m/2024-11-26-14-13-15/
 23 26 0 0 0
SMALL
GASTEIGER

@<TRIPOS>ATOM
      1 C         -28.0162   -0.8135   28.8779 C.ar    1  UNL1        0.0214
      2 C         -28.4690   -0.7850   29.8287 C.ar    1  UNL1        0.0810
      3 C         -26.5455   -0.8762   28.8500 C.ar    1  UNL1        0.0521
      4 C         -25.8041   -1.0324   30.0571 C.ar    1  UNL1       -0.0038
      5 C         -24.3697   -1.0998   30.0718 C.3     1  UNL1        0.0552
      6 C         -27.9902   -1.0051   31.2092 C.ar    1  UNL1        0.0063
      7 C         -26.5616   -1.1368   31.2600 C.ar    1  UNL1       -0.0025
      8 C         -23.6342   -0.7826   29.0667 C.ar    1  UNL1       -0.0038
      9 C         -22.1763   -0.6779   29.1657 C.ar    1  UNL1       -0.0027
     10 C         -21.4400   -0.1303   28.1207 C.ar    1  UNL1       -0.0002
     11 C         -22.1014    0.8765   27.3078 C.ar    1  UNL1        0.0013
     12 C         -23.5471    0.9961   27.3643 C.ar    1  UNL1        0.0148
     13 C         -24.2626    0.3021   28.2488 C.ar    1  UNL1        0.0519
     14 N         -25.7334   -0.2934   27.8598 N.pl3   1  UNL1       -0.2662
     15 C         -26.2486    0.3085   26.7029 C.ar    1  UNL1        0.0556
     16 C         -25.8198   -0.2036   25.5556 C.ar    1  UNL1        0.0151
     17 C         -27.1571    1.2989   26.7349 C.ar    1  UNL1        0.0151
     18 C         -27.7235    1.8104   25.6342 C.ar    1  UNL1        0.0013
     19 C         -26.3102    0.2421   24.3182 C.ar    1  UNL1        0.0013
     20 C         -27.2968    1.2836   24.3750 C.ar    1  UNL1        0.0001
     21 C         -30.1001   -0.8034   29.9007 C.2     1  UNL1        0.3878
     22 O         -30.6087   -0.2302   29.0135 O.co2   1  UNL1       -0.2406
     23 O         -30.7235   -1.3546   30.8443 O.co2   1  UNL1       -0.2406
@<TRIPOS>BOND
     1     4     5    1
     2     3    14    1
     3    13    14    1
     4    14    15    1
     5     2    21    1
     6    21    22   ar
     7    21    23   ar
     8     5     8    1
     9     1     2   ar
    10     2     6   ar
    11     6     7   ar
    12     7     4   ar
    13     4     3   ar
    14     3     1   ar
    15     8     9   ar
    16     9    10   ar
    17    10    11   ar
    18    11    12   ar
    19    12    13   ar
    20    13     8   ar
    21    15    16   ar
    22    16    19   ar
    23    19    20   ar
    24    20    18   ar
    25    18    17   ar
    26    17    15   ar
