@<TRIPOS>MOLECULE
No_844-gen_results/8p0m/2024-11-26-14-13-15/
 15 16 0 0 0
SMALL
GASTEIGER

@<TRIPOS>ATOM
      1 C         -28.0162   -0.8135   28.8779 C.ar    1  UNL1        0.0551
      2 C         -27.0636   -0.1189   28.6079 C.ar    1  UNL1        0.1362
      3 N         -25.8176   -0.3427   29.0488 N.ar    1  UNL1       -0.1975
      4 C         -25.5552   -1.4726   29.7295 C.ar    1  UNL1        0.2377
      5 C         -27.8546   -1.9289   29.8134 C.ar    1  UNL1        0.1048
      6 N         -26.5468   -2.2148   30.1855 N.ar    1  UNL1       -0.2108
      7 N         -27.1741    1.0565   27.8512 N.pl3   1  UNL1       -0.2931
      8 N         -24.2747   -1.7329   30.0939 N.pl3   1  UNL1       -0.2038
      9 C         -23.2817   -0.7836   30.3463 C.3     1  UNL1        0.1154
     10 C         -23.4839    0.2282   31.2299 C.3     1  UNL1        0.0253
     11 C         -27.0809    1.0469   26.4782 C.3     1  UNL1        0.0922
     12 C         -27.0860    2.1349   25.7302 C.3     1  UNL1        0.0215
     13 C         -27.4069    2.2841   28.4513 C.3     1  UNL1        0.0922
     14 C         -27.4487    3.4882   27.7426 C.3     1  UNL1        0.0215
     15 C         -27.3403    3.4642   26.3168 C.3     1  UNL1        0.0035
@<TRIPOS>BOND
     1     2     7    1
     2     4     8    1
     3     8     9    1
     4     9    10    1
     5     7    11    1
     6     7    13    1
     7    12    15    1
     8    14    15    1
     9    11    12    1
    10    14    13    1
    11     1     2   ar
    12     2     3   ar
    13     3     4   ar
    14     4     6   ar
    15     6     5   ar
    16     5     1   ar
