@<TRIPOS>MOLECULE
No_845-gen_results/8p0m/2024-11-26-14-13-15/
 35 39 0 0 0
SMALL
GASTEIGER

@<TRIPOS>ATOM
      1 C         -28.0162   -0.8135   28.8779 C.ar    1  UNL1        0.0013
      2 C         -28.4690   -0.7850   29.8287 C.ar    1  UNL1        0.0001
      3 C         -28.1816    0.4277   28.1134 C.ar    1  UNL1        0.0170
      4 C         -28.9841    1.4155   28.5154 C.ar    1  UNL1        0.0556
      5 C         -29.3802    0.1384   30.4612 C.ar    1  UNL1        0.0012
      6 C         -29.5415    1.2736   29.7242 C.ar    1  UNL1        0.0139
      7 C         -27.4452    0.4872   26.7726 C.2     1  UNL1        0.0402
      8 C         -27.8631    0.8051   25.7558 C.2     1  UNL1        0.0045
      9 C         -29.2708    1.1430   25.6694 C.ar    1  UNL1        0.0140
     10 C         -25.9673    0.0353   26.9219 C.2     1  UNL1        0.1956
     11 C         -25.3239   -0.2010   28.1330 C.ar    1  UNL1        0.0390
     12 C         -24.4673    0.5496   28.7214 C.ar    1  UNL1        0.0032
     13 C         -23.6763    0.2530   29.6300 C.ar    1  UNL1        0.0001
     14 C         -23.7628   -1.0418   30.2582 C.ar    1  UNL1        0.0000
     15 C         -25.3262   -1.5619   28.7070 C.ar    1  UNL1        0.0032
     16 C         -24.5784   -1.9280   29.7099 C.ar    1  UNL1        0.0001
     17 C         -29.8103    1.4216   24.3476 C.ar    1  UNL1        0.0012
     18 C         -31.1545    1.7342   24.2384 C.ar    1  UNL1        0.0001
     19 C         -31.9482    1.8763   25.3365 C.ar    1  UNL1        0.0013
     20 C         -31.4534    1.6206   26.5782 C.ar    1  UNL1        0.0151
     21 C         -30.1624    1.2815   26.7747 C.ar    1  UNL1        0.0556
     22 N         -29.7292    1.1792   28.0418 N.pl3   1  UNL1       -0.2644
     23 C         -31.0053    0.1199   28.6163 C.2     1  UNL1        0.0695
     24 C         -30.1362    2.4061   30.2579 C.ar    1  UNL1        0.0012
     25 O         -25.2198    0.4179   25.9742 O.2     1  UNL1       -0.2866
     26 C         -31.4750   -0.5310   27.8840 C.2     1  UNL1        0.0164
     27 C         -29.3835    3.3107   31.0925 C.ar    1  UNL1        0.0000
     28 C         -31.5228    2.7417   30.1544 C.ar    1  UNL1        0.0000
     29 C         -32.0954    3.8738   30.6842 C.ar    1  UNL1        0.0000
     30 C         -29.9079    4.4506   31.6854 C.ar    1  UNL1        0.0000
     31 C         -31.2815    4.7238   31.4952 C.ar    1  UNL1        0.0000
     32 C         -32.4826   -1.5285   28.4199 C.2     1  UNL1        0.0013
     33 C         -33.1326   -2.4308   27.5594 C.2     1  UNL1        0.0000
     34 C         -32.7876   -2.4170   26.1845 C.2     1  UNL1        0.0000
     35 C         -31.8650   -1.5328   25.6498 C.2     1  UNL1        0.0000
@<TRIPOS>BOND
     1     3     7    1
     2     7     8    2
     3     8     9    1
     4     7    10    1
     5    10    11    1
     6     4    22    1
     7    21    22    1
     8    22    23    1
     9     6    24    1
    10    10    25    2
    11    23    26    2
    12    26    32    1
    13    32    33    2
    14    33    34    1
    15    34    35    2
    16    24    27   ar
    17    27    30   ar
    18    30    31   ar
    19    31    29   ar
    20    29    28   ar
    21    28    24   ar
    22     9    17   ar
    23    17    18   ar
    24    18    19   ar
    25    19    20   ar
    26    20    21   ar
    27    21     9   ar
    28     1     2   ar
    29     2     5   ar
    30     5     6   ar
    31     6     4   ar
    32     4     3   ar
    33     3     1   ar
    34    11    12   ar
    35    12    13   ar
    36    13    14   ar
    37    14    16   ar
    38    16    15   ar
    39    15    11   ar
