@<TRIPOS>MOLECULE
No_846-gen_results/8p0m/2024-11-26-14-13-15/
 35 38 0 0 0
SMALL
GASTEIGER

@<TRIPOS>ATOM
      1 C         -28.0162   -0.8135   28.8779 C.2     1  UNL1        0.2716
      2 C         -27.0636   -0.1189   28.6079 C.ar    1  UNL1        0.0555
      3 C         -27.0010    0.6913   27.4910 C.ar    1  UNL1        0.0048
      4 C         -25.8548    1.4825   27.0830 C.ar    1  UNL1        0.0067
      5 C         -24.6901    1.4526   27.8807 C.ar    1  UNL1        0.0798
      6 C         -24.7379    0.6010   29.0416 C.ar    1  UNL1        0.0067
      7 C         -25.8234   -0.1688   29.3887 C.ar    1  UNL1        0.0048
      8 N         -29.2150   -0.1726   29.0132 N.am    1  UNL1       -0.1371
      9 C         -30.2463   -0.7736   29.6388 C.2     1  UNL1        0.2716
     10 C         -23.5190    2.2034   27.5550 C.2     1  UNL1        0.3878
     11 O         -23.4378    2.7950   26.4513 O.co2   1  UNL1       -0.2406
     12 O         -22.4965    2.2757   28.3531 O.co2   1  UNL1       -0.2406
     13 C         -30.4252   -0.8074   30.8405 C.ar    1  UNL1        0.0555
     14 C         -31.3904   -1.5237   31.5287 C.ar    1  UNL1        0.0046
     15 O         -31.1385   -1.3158   28.8530 O.2     1  UNL1       -0.2679
     16 O         -27.8880   -1.9602   29.3767 O.2     1  UNL1       -0.2679
     17 C         -31.5452   -1.5392   32.9289 C.ar    1  UNL1        0.0001
     18 C         -30.6281   -0.7737   33.7126 C.ar    1  UNL1        0.0000
     19 C         -29.4990   -0.0782   31.7846 C.ar    1  UNL1        0.0046
     20 C         -29.6300   -0.0774   33.1389 C.ar    1  UNL1        0.0001
     21 C         -28.5646    0.6672   33.7983 C.ar    1  UNL1       -0.0002
     22 C         -27.9366    1.6085   33.7104 C.ar    1  UNL1        0.0002
     23 C         -28.2668    2.5196   32.5638 C.ar    1  UNL1        0.0066
     24 C         -27.4464    3.6933   32.3339 C.ar    1  UNL1        0.0798
     25 C         -26.3801    3.8541   33.2072 C.ar    1  UNL1        0.0066
     26 C         -26.0500    3.0302   34.1984 C.ar    1  UNL1        0.0002
     27 C         -26.8036    1.9409   34.4110 C.ar    1  UNL1       -0.0002
     28 C         -28.1399   -0.1923   35.1041 C.ar    1  UNL1       -0.0016
     29 C         -26.9342   -0.0933   35.6175 C.ar    1  UNL1        0.0129
     30 C         -26.3337    1.0377   35.4510 C.ar    1  UNL1       -0.0016
     31 C         -27.8074    4.5710   31.2368 C.2     1  UNL1        0.3878
     32 O         -27.5577    5.5999   31.2835 O.co2   1  UNL1       -0.2406
     33 O         -28.0603    3.8950   30.0470 O.co2   1  UNL1       -0.2406
     34 C         -26.5681   -0.9500   36.7377 C.3     1  UNL1        0.2197
     35 F         -26.9370   -0.5788   37.9139 F       1  UNL1       -0.2291
@<TRIPOS>BOND
     1     1     2    1
     2     1     8   am
     3     8     9   am
     4     5    10    1
     5    10    11   ar
     6    10    12   ar
     7     9    13    1
     8     9    15    2
     9     1    16    2
    10    20    21    1
    11    24    31    1
    12    31    32   ar
    13    31    33   ar
    14    29    34    1
    15    34    35    1
    16     2     3   ar
    17     3     4   ar
    18     4     5   ar
    19     5     6   ar
    20     6     7   ar
    21     7     2   ar
    22    22    23   ar
    23    23    24   ar
    24    24    25   ar
    25    25    26   ar
    26    26    27   ar
    27    21    22   ar
    28    22    27   ar
    29    27    30   ar
    30    30    29   ar
    31    29    28   ar
    32    28    21   ar
    33    13    14   ar
    34    14    17   ar
    35    17    18   ar
    36    18    20   ar
    37    20    19   ar
    38    19    13   ar
