@<TRIPOS>MOLECULE
No_848-gen_results/8p0m/2024-11-26-14-13-15/
 16 17 0 0 0
SMALL
GASTEIGER

@<TRIPOS>ATOM
      1 C         -28.0162   -0.8135   28.8779 C.ar    1  UNL1       -0.0043
      2 C         -28.4690   -0.7850   29.8287 C.ar    1  UNL1       -0.0003
      3 C         -27.0871    0.2903   28.6377 C.ar    1  UNL1       -0.0222
      4 C         -26.9102    0.8486   27.4199 C.3     1  UNL1        0.0267
      5 C         -27.8863   -0.5049   31.0944 C.ar    1  UNL1       -0.0000
      6 C         -26.9294    0.5930   31.0741 C.ar    1  UNL1       -0.0003
      7 C         -26.5225    0.9550   29.8008 C.ar    1  UNL1       -0.0043
      8 C         -25.7212    0.5056   26.8627 C.3     1  UNL1        0.0307
      9 C         -24.6320    1.1945   27.0060 C.ar    1  UNL1       -0.0219
     10 C         -24.3570    2.2923   26.5474 C.ar    1  UNL1       -0.0043
     11 C         -23.0993    3.0080   26.7526 C.ar    1  UNL1       -0.0003
     12 C         -23.4991    0.6997   27.9132 C.ar    1  UNL1       -0.0043
     13 C         -22.3284    1.3540   28.1398 C.ar    1  UNL1       -0.0003
     14 C         -22.1727    2.5939   27.4964 C.ar    1  UNL1       -0.0000
     15 C         -27.8627    1.6151   26.7381 C.3     1  UNL1        0.0047
     16 C         -28.2541    2.8426   27.2164 C.3     1  UNL1        0.0004
@<TRIPOS>BOND
     1     3     4    1
     2     4     8    1
     3     4    15    1
     4    15    16    1
     5     8     9    1
     6     9    10   ar
     7    10    11   ar
     8    11    14   ar
     9    14    13   ar
    10    13    12   ar
    11    12     9   ar
    12     1     2   ar
    13     2     5   ar
    14     5     6   ar
    15     6     7   ar
    16     7     3   ar
    17     3     1   ar
