@<TRIPOS>MOLECULE
No_85-gen_results/8p0m/2024-11-26-14-13-15/
 13 14 0 0 0
SMALL
GASTEIGER

@<TRIPOS>ATOM
      1 C         -28.0162   -0.8135   28.8779 C.2     1  UNL1       -0.0221
      2 C         -28.4690   -0.7850   29.8287 C.2     1  UNL1       -0.0046
      3 C         -28.1960    0.3478   28.0550 C.3     1  UNL1        0.0443
      4 C         -27.4421    0.5100   26.7946 C.3     1  UNL1        0.0134
      5 C         -26.4394    0.8329   26.6142 C.3     1  UNL1        0.0270
      6 C         -25.5002    1.4288   27.3463 C.ar    1  UNL1       -0.0222
      7 C         -24.4112    1.5939   27.5024 C.ar    1  UNL1       -0.0043
      8 C         -23.7502    2.2597   28.5835 C.ar    1  UNL1       -0.0003
      9 C         -24.2732    1.9763   29.6640 C.ar    1  UNL1       -0.0000
     10 C         -25.6302    1.7484   29.8920 C.ar    1  UNL1       -0.0003
     11 C         -26.1844    1.2449   28.7365 C.ar    1  UNL1       -0.0043
     12 C         -29.2941   -0.2913   30.3073 C.2     1  UNL1       -0.0046
     13 C         -29.1941    0.8739   28.7523 C.2     1  UNL1       -0.0221
@<TRIPOS>BOND
     1     1     2    2
     2     1     3    1
     3     3     4    1
     4     4     5    1
     5     2    12    1
     6     3    13    1
     7    12    13    2
     8     5     6    1
     9     6     7   ar
    10     7     8   ar
    11     8     9   ar
    12     9    10   ar
    13    10    11   ar
    14    11     6   ar
