@<TRIPOS>MOLECULE
No_851-gen_results/8p0m/2024-11-26-14-13-15/
 17 18 0 0 0
SMALL
GASTEIGER

@<TRIPOS>ATOM
      1 F         -28.0727   -1.2542   28.5316 F       1  UNL1       -0.2009
      2 C         -27.3591   -0.3792   28.7224 C.ar    1  UNL1        0.1744
      3 C         -26.3323   -0.6441   29.4520 C.ar    1  UNL1        0.0330
      4 C         -25.2562    0.3203   29.7818 C.ar    1  UNL1        0.0091
      5 C         -25.4242    1.6275   29.2026 C.ar    1  UNL1        0.0829
      6 C         -26.5263    1.8254   28.4032 C.ar    1  UNL1        0.0464
      7 C         -27.4513    0.8601   28.1355 C.ar    1  UNL1        0.1727
      8 O         -28.4698    1.1459   27.3479 O.3     1  UNL1       -0.4512
      9 C         -28.2855    1.1403   26.0049 C.ar    1  UNL1        0.1454
     10 C         -24.4004    2.6103   29.5543 C.2     1  UNL1        0.3879
     11 O         -23.1821    2.2775   29.6195 O.co2   1  UNL1       -0.2406
     12 O         -24.7801    3.8329   29.7206 O.co2   1  UNL1       -0.2406
     13 C         -29.2457    0.5033   25.2595 C.ar    1  UNL1        0.0375
     14 C         -27.2031    1.7976   25.3646 C.ar    1  UNL1        0.0375
     15 C         -29.0557    0.3970   23.8336 C.ar    1  UNL1        0.0031
     16 C         -27.9850    1.0832   23.2905 C.ar    1  UNL1        0.0002
     17 C         -26.9985    1.7228   24.0889 C.ar    1  UNL1        0.0031
@<TRIPOS>BOND
     1     1     2    1
     2     7     8    1
     3     8     9    1
     4     5    10    1
     5    10    11   ar
     6    10    12   ar
     7     2     3   ar
     8     3     4   ar
     9     4     5   ar
    10     5     6   ar
    11     6     7   ar
    12     7     2   ar
    13     9    13   ar
    14    13    15   ar
    15    15    16   ar
    16    16    17   ar
    17    17    14   ar
    18    14     9   ar
