@<TRIPOS>MOLECULE
No_852-gen_results/8p0m/2024-11-26-14-13-15/
 35 40 0 0 0
SMALL
GASTEIGER

@<TRIPOS>ATOM
      1 C         -28.0162   -0.8135   28.8779 C.ar    1  UNL1       -0.0003
      2 C         -28.4690   -0.7850   29.8287 C.ar    1  UNL1        0.0001
      3 C         -27.0871    0.2903   28.6377 C.ar    1  UNL1       -0.0030
      4 C         -26.2516    0.4114   27.4223 C.2     1  UNL1        0.0006
      5 C         -28.3913    0.1041   30.9805 C.ar    1  UNL1        0.0042
      6 C         -27.5332    1.1666   30.7866 C.ar    1  UNL1        0.0508
      7 C         -26.8281    1.2557   29.6454 C.ar    1  UNL1       -0.0054
      8 C         -25.1383    0.6747   27.2308 C.2     1  UNL1        0.0111
      9 C         -24.3156    0.8666   28.4420 C.2     1  UNL1        0.0542
     10 C         -24.4955    1.5109   29.5561 C.2     1  UNL1       -0.0016
     11 C         -25.5259    1.8220   30.0101 C.3     1  UNL1        0.1222
     12 CL        -22.5194    0.8125   27.8782 Cl      1  UNL1       -0.0826
     13 C         -25.5781    2.8798   31.1544 C.2     1  UNL1        0.2396
     14 O         -24.8363    3.7276   31.2721 O.2     1  UNL1       -0.2738
     15 N         -26.7604    2.9796   31.8839 N.am    1  UNL1       -0.2235
     16 C         -26.6587    3.9797   32.8527 C.3     1  UNL1        0.1057
     17 C         -27.8101    2.1665   31.7891 C.2     1  UNL1        0.2547
     18 O         -28.8897    2.5074   32.1796 O.2     1  UNL1       -0.2695
     19 C         -26.9500    3.6787   34.1529 C.ar    1  UNL1       -0.0038
     20 C         -26.9382    2.5832   34.6382 C.ar    1  UNL1       -0.0027
     21 C         -27.2420    2.2312   36.0175 C.ar    1  UNL1       -0.0003
     22 C         -27.4997    3.3144   36.8604 C.ar    1  UNL1       -0.0000
     23 C         -27.4643    4.6124   36.4069 C.ar    1  UNL1       -0.0003
     24 C         -27.1722    4.8501   35.0895 C.ar    1  UNL1       -0.0027
     25 C         -27.1067    6.2211   34.5759 C.2     1  UNL1       -0.0045
     26 C         -27.3696    6.6324   33.6076 C.2     1  UNL1       -0.0220
     27 C         -28.3190    6.0537   32.7111 C.3     1  UNL1        0.0463
     28 C         -27.5475    4.8865   32.0426 C.3     1  UNL1        0.0335
     29 C         -29.1128    6.9042   31.7796 C.ar    1  UNL1       -0.0175
     30 C         -30.0289    6.4769   31.1673 C.ar    1  UNL1        0.0074
     31 C         -30.8455    7.2720   30.2728 C.ar    1  UNL1        0.0574
     32 C         -30.5266    8.6368   30.2072 C.ar    1  UNL1        0.0114
     33 C         -29.4932    9.1378   30.8955 C.ar    1  UNL1        0.0006
     34 C         -28.7466    8.3362   31.7376 C.ar    1  UNL1       -0.0039
     35 CL        -32.1266    6.5996   29.4289 Cl      1  UNL1       -0.0823
@<TRIPOS>BOND
     1     3     4    1
     2     4     8    2
     3     8     9    1
     4     9    10    2
     5     7    11    1
     6    10    11    1
     7     9    12    1
     8    11    13    1
     9    13    14    2
    10    13    15   am
    11    15    16    1
    12     6    17    1
    13    15    17   am
    14    17    18    2
    15    16    19    1
    16    24    25    1
    17    25    26    2
    18    26    27    1
    19    16    28    1
    20    27    28    1
    21    27    29    1
    22    31    35    1
    23    29    30   ar
    24    30    31   ar
    25    31    32   ar
    26    32    33   ar
    27    33    34   ar
    28    34    29   ar
    29    19    20   ar
    30    20    21   ar
    31    21    22   ar
    32    22    23   ar
    33    23    24   ar
    34    24    19   ar
    35     1     2   ar
    36     2     5   ar
    37     5     6   ar
    38     6     7   ar
    39     7     3   ar
    40     3     1   ar
