@<TRIPOS>MOLECULE
No_854-gen_results/8p0m/2024-11-26-14-13-15/
 18 19 0 0 0
SMALL
GASTEIGER

@<TRIPOS>ATOM
      1 C         -28.0162   -0.8135   28.8779 C.3     1  UNL1        0.0356
      2 C         -28.4690   -0.7850   29.8287 C.3     1  UNL1        0.1821
      3 C         -26.5042   -0.7777   28.8766 C.3     1  UNL1        0.0031
      4 C         -25.8305   -1.6807   29.6849 C.3     1  UNL1        0.0070
      5 C         -28.1490   -1.8854   30.9031 C.3     1  UNL1        0.1821
      6 C         -26.6460   -1.9561   31.0330 C.3     1  UNL1        0.0359
      7 O         -28.6274   -1.7308   32.1858 O.3     1  UNL1       -0.2204
      8 O         -30.0168   -0.9269   29.8771 O.3     1  UNL1       -0.2204
      9 C         -24.6534   -2.3030   29.3807 C.3     1  UNL1        0.0258
     10 C         -23.4721   -1.5067   29.2502 C.2     1  UNL1       -0.0304
     11 C         -23.6749   -0.2225   29.5644 C.2     1  UNL1       -0.0260
     12 C         -23.2984    0.8582   28.7178 C.3     1  UNL1        0.0520
     13 C         -23.7456    1.3668   27.8769 C.ar    1  UNL1       -0.0178
     14 C         -23.0509    2.3707   26.9460 C.ar    1  UNL1       -0.0039
     15 C         -23.7609    3.0121   25.9263 C.ar    1  UNL1       -0.0003
     16 C         -25.1393    2.8627   25.8549 C.ar    1  UNL1       -0.0000
     17 C         -25.7715    1.9488   26.6315 C.ar    1  UNL1       -0.0003
     18 C         -25.0492    1.2928   27.6635 C.ar    1  UNL1       -0.0039
@<TRIPOS>BOND
     1     1     2    1
     2     1     3    1
     3     3     4    1
     4     2     5    1
     5     4     6    1
     6     5     6    1
     7     5     7    1
     8     2     8    1
     9     4     9    1
    10     9    10    1
    11    10    11    2
    12    11    12    1
    13    12    13    1
    14    13    14   ar
    15    14    15   ar
    16    15    16   ar
    17    16    17   ar
    18    17    18   ar
    19    18    13   ar
