@<TRIPOS>MOLECULE
No_855-gen_results/8p0m/2024-11-26-14-13-15/
 12 13 0 0 0
SMALL
GASTEIGER

@<TRIPOS>ATOM
      1 C         -28.0162   -0.8135   28.8779 C.ar    1  UNL1        0.0015
      2 C         -28.4690   -0.7850   29.8287 C.ar    1  UNL1        0.0177
      3 C         -26.5455   -0.8762   28.8500 C.ar    1  UNL1        0.0000
      4 C         -25.8041   -1.0324   30.0571 C.ar    1  UNL1        0.0000
      5 C         -27.9437   -0.9869   31.2075 C.ar    1  UNL1        0.0015
      6 C         -26.5825   -1.0386   31.2231 C.ar    1  UNL1        0.0000
      7 C         -30.0606   -0.7371   29.9024 C.ar    1  UNL1        0.0813
      8 N         -30.6056   -0.0348   29.0093 N.ar    1  UNL1       -0.2438
      9 C         -31.5026    0.4445   28.7787 C.ar    1  UNL1        0.0988
     10 C         -32.5059    0.5478   29.7679 C.ar    1  UNL1        0.0207
     11 C         -32.1313   -0.2219   30.9222 C.ar    1  UNL1        0.0031
     12 C         -30.8076   -0.7472   31.1701 C.ar    1  UNL1        0.0191
@<TRIPOS>BOND
     1     2     7    1
     2     1     2   ar
     3     2     5   ar
     4     5     6   ar
     5     6     4   ar
     6     4     3   ar
     7     3     1   ar
     8     7     8   ar
     9     8     9   ar
    10     9    10   ar
    11    10    11   ar
    12    11    12   ar
    13    12     7   ar
