@<TRIPOS>MOLECULE
No_856-gen_results/8p0m/2024-11-26-14-13-15/
 19 20 0 0 0
SMALL
GASTEIGER

@<TRIPOS>ATOM
      1 CL        -28.1493   -0.8198   28.9079 Cl      1  UNL1       -0.0791
      2 C         -26.9116   -0.0797   28.9452 C.ar    1  UNL1        0.0921
      3 C         -26.7384    1.0439   29.2534 C.ar    1  UNL1        0.1555
      4 C         -25.4392    1.7115   29.2755 C.ar    1  UNL1        0.0355
      5 C         -24.2812    0.9888   28.8542 C.ar    1  UNL1       -0.0031
      6 C         -24.4868   -0.3041   28.4957 C.ar    1  UNL1       -0.0019
      7 C         -25.7046   -0.8667   28.5244 C.ar    1  UNL1        0.0142
      8 C         -22.9617    1.6322   28.7948 C.3     1  UNL1        0.0993
      9 N         -22.2496    1.6581   27.8575 N.3     1  UNL1       -0.2677
     10 C         -22.7236    1.4442   26.6087 C.3     1  UNL1        0.0725
     11 C         -22.6770    2.7237   25.7818 C.3     1  UNL1        0.0188
     12 C         -20.8076    1.4851   27.9263 C.3     1  UNL1        0.0899
     13 O         -27.7452    1.8220   29.7300 O.3     1  UNL1       -0.4527
     14 C         -27.6384    3.1643   29.6835 C.ar    1  UNL1        0.1453
     15 C         -27.3627    3.9743   30.5790 C.ar    1  UNL1        0.0375
     16 C         -27.2315    5.3873   30.5350 C.ar    1  UNL1        0.0031
     17 C         -27.4883    5.9841   29.2922 C.ar    1  UNL1        0.0002
     18 C         -27.8807    3.8136   28.3459 C.ar    1  UNL1        0.0375
     19 C         -27.7769    5.1745   28.2351 C.ar    1  UNL1        0.0031
@<TRIPOS>BOND
     1     1     2    1
     2     5     8    1
     3     8     9    1
     4     9    10    1
     5    10    11    1
     6     9    12    1
     7     3    13    1
     8    13    14    1
     9     2     3   ar
    10     3     4   ar
    11     4     5   ar
    12     5     6   ar
    13     6     7   ar
    14     7     2   ar
    15    14    15   ar
    16    15    16   ar
    17    16    17   ar
    18    17    19   ar
    19    19    18   ar
    20    18    14   ar
