@<TRIPOS>MOLECULE
No_858-gen_results/8p0m/2024-11-26-14-13-15/
 35 38 0 0 0
SMALL
GASTEIGER

@<TRIPOS>ATOM
      1 C         -28.0162   -0.8135   28.8779 C.ar    1  UNL1        0.0066
      2 C         -28.4690   -0.7850   29.8287 C.ar    1  UNL1        0.0798
      3 C         -27.1356    0.2359   28.5352 C.ar    1  UNL1       -0.0001
      4 C         -26.8745    1.2825   29.3982 C.ar    1  UNL1       -0.0000
      5 C         -28.3613    0.1987   30.9244 C.ar    1  UNL1        0.0066
      6 C         -27.5277    1.2234   30.6356 C.ar    1  UNL1        0.0002
      7 C         -26.3987    0.2949   27.2279 C.ar    1  UNL1       -0.0036
      8 C         -25.0392    0.2356   27.3538 C.ar    1  UNL1       -0.0178
      9 C         -27.0287    0.3958   26.0087 C.ar    1  UNL1       -0.0003
     10 C         -28.3713    0.5360   25.8782 C.ar    1  UNL1        0.0001
     11 C         -28.8860    0.5071   24.5687 C.ar    1  UNL1        0.0000
     12 C         -30.2841    0.5712   24.3900 C.ar    1  UNL1        0.0001
     13 C         -31.1106    0.6022   25.4906 C.ar    1  UNL1        0.0045
     14 C         -30.6219    0.5694   26.7682 C.ar    1  UNL1        0.0536
     15 C         -29.2916    0.5546   26.9892 C.ar    1  UNL1        0.0045
     16 C         -26.1668    0.4589   24.8759 C.ar    1  UNL1       -0.0000
     17 C         -24.3948   -0.3287   28.4858 C.3     1  UNL1        0.0520
     18 C         -23.0100   -0.3020   28.6525 C.2     1  UNL1       -0.0260
     19 C         -22.3341    0.6713   28.9822 C.2     1  UNL1       -0.0304
     20 C         -21.8962    1.3167   28.2740 C.3     1  UNL1        0.0257
     21 C         -24.2110    0.5730   26.2392 C.ar    1  UNL1       -0.0039
     22 C         -24.7830    0.5980   24.9929 C.ar    1  UNL1       -0.0003
     23 C         -21.5029    2.7285   28.6574 C.3     1  UNL1        0.0047
     24 C         -31.6266    0.6715   27.9008 C.2     1  UNL1        0.2490
     25 N         -31.4606    1.6242   28.7640 N.am    1  UNL1       -0.2761
     26 C         -31.9728    1.6289   30.0191 C.3     1  UNL1        0.0937
     27 C         -30.7798    2.8741   28.4435 C.3     1  UNL1        0.0937
     28 C         -31.5181    3.9981   28.4984 C.3     1  UNL1        0.0216
     29 C         -32.6325    2.8707   30.4531 C.3     1  UNL1        0.0216
     30 C         -31.9911    4.1412   30.0532 C.3     1  UNL1        0.0035
     31 O         -32.4695   -0.1716   28.0037 O.2     1  UNL1       -0.2699
     32 C         -29.4921   -1.9308   30.3392 C.2     1  UNL1        0.3878
     33 O         -29.1934   -2.7116   31.0990 O.co2   1  UNL1       -0.2406
     34 O         -30.7476   -1.7182   29.9662 O.co2   1  UNL1       -0.2406
     35 C         -22.5120    3.1302   29.3369 C.3     1  UNL1        0.0004
@<TRIPOS>BOND
     1     3     7    1
     2     9    10    1
     3    17    18    1
     4    18    19    2
     5    19    20    1
     6    20    23    1
     7    14    24    1
     8    24    25   am
     9    25    26    1
    10    25    27    1
    11    26    29    1
    12    28    30    1
    13    29    30    1
    14    24    31    2
    15     2    32    1
    16    32    33   ar
    17    32    34   ar
    18    23    35    1
    19    17     8    1
    20    28    27    1
    21     7     8   ar
    22     8    21   ar
    23    21    22   ar
    24    22    16   ar
    25    16     9   ar
    26     9     7   ar
    27     1     2   ar
    28     2     5   ar
    29     5     6   ar
    30     6     4   ar
    31     4     3   ar
    32     3     1   ar
    33    10    11   ar
    34    11    12   ar
    35    12    13   ar
    36    13    14   ar
    37    14    15   ar
    38    15    10   ar
