@<TRIPOS>MOLECULE
No_859-gen_results/8p0m/2024-11-26-14-13-15/
 19 21 0 0 0
SMALL
GASTEIGER

@<TRIPOS>ATOM
      1 C         -28.0162   -0.8135   28.8779 C.ar    1  UNL1        0.0000
      2 C         -28.4690   -0.7850   29.8287 C.ar    1  UNL1        0.0000
      3 C         -27.0871    0.2903   28.6377 C.ar    1  UNL1        0.0003
      4 C         -26.2516    0.4114   27.4223 C.ar    1  UNL1        0.0023
      5 C         -28.3913    0.1041   30.9805 C.ar    1  UNL1        0.0000
      6 C         -27.5332    1.1666   30.7866 C.ar    1  UNL1        0.0002
      7 C         -26.8281    1.2557   29.6454 C.ar    1  UNL1        0.0066
      8 C         -25.6444    1.6653   27.2216 C.ar    1  UNL1        0.0298
      9 C         -25.4280    2.5904   28.2367 C.ar    1  UNL1        0.1445
     10 C         -26.1083    2.4673   29.4212 C.ar    1  UNL1        0.0810
     11 C         -25.8864    3.5250   30.4298 C.2     1  UNL1        0.2512
     12 O         -25.1114    3.2917   31.3388 O.2     1  UNL1       -0.2698
     13 N         -26.6073    4.6252   30.3808 N.am    1  UNL1       -0.2760
     14 C         -26.4438    5.6859   31.4093 C.3     1  UNL1        0.0937
     15 C         -27.5418    4.9160   29.3329 C.3     1  UNL1        0.0937
     16 C         -27.0133    6.5618   31.4122 C.3     1  UNL1        0.0216
     17 C         -28.3094    6.1354   29.4982 C.3     1  UNL1        0.0216
     18 C         -28.0090    7.0002   30.5037 C.3     1  UNL1        0.0035
     19 F         -24.7165    3.6646   27.9595 F       1  UNL1       -0.2040
@<TRIPOS>BOND
     1    10    11    1
     2    11    12    2
     3    11    13   am
     4    13    14    1
     5    13    15    1
     6    16    18    1
     7    17    18    1
     8     9    19    1
     9    14    16    1
    10    17    15    1
    11     1     2   ar
    12     2     5   ar
    13     5     6   ar
    14     6     7   ar
    15     3     1   ar
    16     3     4   ar
    17     4     8   ar
    18     8     9   ar
    19     9    10   ar
    20    10     7   ar
    21     7     3   ar
