@<TRIPOS>MOLECULE
No_860-gen_results/8p0m/2024-11-26-14-13-15/
 15 15 0 0 0
SMALL
GASTEIGER

@<TRIPOS>ATOM
      1 C         -28.0162   -0.8135   28.8779 C.ar    1  UNL1        0.0369
      2 C         -28.4690   -0.7850   29.8287 C.ar    1  UNL1        0.1391
      3 C         -26.5455   -0.8762   28.8500 C.ar    1  UNL1        0.0031
      4 C         -25.8041   -1.0324   30.0571 C.ar    1  UNL1        0.0002
      5 C         -27.9437   -0.9869   31.2075 C.ar    1  UNL1        0.0369
      6 C         -26.5825   -1.0386   31.2231 C.ar    1  UNL1        0.0031
      7 O         -29.9186   -0.6439   29.7328 O.3     1  UNL1       -0.4707
      8 C         -30.4381    0.0403   28.8370 C.3     1  UNL1        0.2315
      9 C         -31.0789    1.1541   29.0889 C.2     1  UNL1        0.0164
     10 C         -31.3498    1.5463   30.2895 C.2     1  UNL1       -0.0183
     11 C         -31.0568    0.7794   31.4407 C.3     1  UNL1        0.1291
     12 C         -31.1844    1.2485   32.8107 C.3     1  UNL1        0.4017
     13 F         -31.8172    2.0495   32.9404 F       1  UNL1       -0.1697
     14 F         -29.8886    1.5537   33.2538 F       1  UNL1       -0.1697
     15 F         -31.3937    0.0815   33.5554 F       1  UNL1       -0.1697
@<TRIPOS>BOND
     1     2     7    1
     2     7     8    1
     3     8     9    1
     4     9    10    2
     5    10    11    1
     6    11    12    1
     7    12    13    1
     8    12    14    1
     9    12    15    1
    10     1     2   ar
    11     2     5   ar
    12     5     6   ar
    13     6     4   ar
    14     4     3   ar
    15     3     1   ar
