@<TRIPOS>MOLECULE
No_861-gen_results/8p0m/2024-11-26-14-13-15/
 24 26 0 0 0
SMALL
GASTEIGER

@<TRIPOS>ATOM
      1 C         -28.0162   -0.8135   28.8779 C.ar    1  UNL1        0.0066
      2 C         -27.0636   -0.1190   28.6079 C.ar    1  UNL1        0.0002
      3 C         -26.9716    0.7139   27.5060 C.ar    1  UNL1        0.0001
      4 C         -28.1053    0.7744   26.6421 C.ar    1  UNL1        0.0046
      5 C         -28.1273    1.5122   25.5121 C.ar    1  UNL1        0.0554
      6 C         -27.9594   -1.6009   30.1427 C.ar    1  UNL1        0.0798
      7 C         -26.7501   -1.7506   30.7832 C.ar    1  UNL1        0.0066
      8 C         -25.6264   -1.1225   30.3809 C.ar    1  UNL1        0.0002
      9 C         -25.7235   -0.2814   29.3107 C.ar    1  UNL1        0.0000
     10 C         -26.9387    2.2628   25.1056 C.ar    1  UNL1        0.0046
     11 C         -25.8140    2.2209   25.8874 C.ar    1  UNL1        0.0001
     12 C         -25.8099    1.4784   27.0399 C.ar    1  UNL1        0.0000
     13 C         -29.1448   -2.3838   30.5943 C.2     1  UNL1        0.3878
     14 O         -29.0436   -3.5812   30.8586 O.co2   1  UNL1       -0.2406
     15 O         -30.2898   -1.8366   30.5711 O.co2   1  UNL1       -0.2406
     16 C         -29.2819    1.6103   24.6418 C.2     1  UNL1        0.2690
     17 N         -30.4106    1.8539   25.2874 N.am    1  UNL1       -0.1754
     18 C         -31.5812    2.0322   24.8126 C.ar    1  UNL1        0.0737
     19 C         -32.6728    2.2916   25.5360 C.ar    1  UNL1        0.0166
     20 C         -33.8789    2.5028   25.2621 C.ar    1  UNL1        0.0013
     21 C         -34.1539    2.5229   23.8017 C.ar    1  UNL1        0.0001
     22 C         -33.1284    2.3455   22.8674 C.ar    1  UNL1        0.0013
     23 C         -31.8174    2.1422   23.3650 C.ar    1  UNL1        0.0166
     24 O         -29.2321    1.4718   23.4859 O.2     1  UNL1       -0.2680
@<TRIPOS>BOND
     1     2     3    1
     2     6    13    1
     3    13    14   ar
     4    13    15   ar
     5     5    16    1
     6    16    17   am
     7    17    18    1
     8    16    24    2
     9    18    19   ar
    10    19    20   ar
    11    20    21   ar
    12    21    22   ar
    13    22    23   ar
    14    23    18   ar
    15     3     4   ar
    16     4     5   ar
    17     5    10   ar
    18    10    11   ar
    19    11    12   ar
    20    12     3   ar
    21     1     2   ar
    22     2     9   ar
    23     9     8   ar
    24     8     7   ar
    25     7     6   ar
    26     6     1   ar
