@<TRIPOS>MOLECULE
No_862-gen_results/8p0m/2024-11-26-14-13-15/
 9 9 0 0 0
SMALL
GASTEIGER

@<TRIPOS>ATOM
      1 C         -28.0162   -0.8135   28.8779 C.ar    1  UNL1        0.0015
      2 C         -27.0636   -0.1190   28.6079 C.ar    1  UNL1        0.0191
      3 C         -25.7647   -0.3897   29.0360 C.ar    1  UNL1        0.0810
      4 C         -25.5296   -1.5302   29.9014 C.ar    1  UNL1        0.0191
      5 C         -26.6888   -2.2893   30.1810 C.ar    1  UNL1        0.0015
      6 C         -27.8727   -1.9508   29.7373 C.ar    1  UNL1        0.0001
      7 N         -24.6273    0.3693   28.7540 N.2     1  UNL1       -0.2485
      8 C         -23.3815    0.0449   28.9577 C.2     1  UNL1        0.0728
      9 C         -22.3417    0.9273   28.5562 C.3     1  UNL1        0.0534
@<TRIPOS>BOND
     1     3     7    1
     2     7     8    2
     3     8     9    1
     4     1     2   ar
     5     2     3   ar
     6     3     4   ar
     7     4     5   ar
     8     5     6   ar
     9     6     1   ar
