@<TRIPOS>MOLECULE
No_863-gen_results/8p0m/2024-11-26-14-13-15/
 18 18 0 0 0
SMALL
GASTEIGER

@<TRIPOS>ATOM
      1 C         -28.0162   -0.8135   28.8779 C.ar    1  UNL1        0.0183
      2 C         -28.4690   -0.7850   29.8287 C.ar    1  UNL1        0.0725
      3 C         -26.5455   -0.8762   28.8500 C.ar    1  UNL1        0.0920
      4 C         -25.8041   -1.0324   30.0571 C.ar    1  UNL1        0.1552
      5 C         -27.9437   -0.9869   31.2075 C.ar    1  UNL1        0.0070
      6 C         -26.5825   -1.0386   31.2231 C.ar    1  UNL1        0.0383
      7 C         -30.0606   -0.7371   29.9024 C.3     1  UNL1        0.4186
      8 F         -30.4826    0.1163   30.8130 F       1  UNL1       -0.1659
      9 F         -30.5455   -1.9671   30.1272 F       1  UNL1       -0.1659
     10 F         -30.4655   -0.3682   28.7137 F       1  UNL1       -0.1659
     11 CL        -25.5524   -0.7786   27.4371 Cl      1  UNL1       -0.0791
     12 O         -24.5172   -1.1448   30.3201 O.3     1  UNL1       -0.4570
     13 C         -23.7849   -0.1589   30.8688 C.2     1  UNL1        0.1244
     14 C         -22.5346    0.1812   30.1641 C.2     1  UNL1        0.0778
     15 C         -24.2334    0.5335   31.9915 C.3     1  UNL1        0.0723
     16 C         -22.1456   -0.5683   29.1068 C.3     1  UNL1        0.3435
     17 F         -22.5364   -1.5757   28.7692 F       1  UNL1       -0.1932
     18 F         -21.2179   -0.0335   28.3267 F       1  UNL1       -0.1932
@<TRIPOS>BOND
     1     2     7    1
     2     7     8    1
     3     7     9    1
     4     7    10    1
     5     3    11    1
     6     4    12    1
     7    12    13    1
     8    13    14    2
     9    13    15    1
    10    14    16    1
    11    16    17    1
    12    16    18    1
    13     1     2   ar
    14     2     5   ar
    15     5     6   ar
    16     6     4   ar
    17     4     3   ar
    18     3     1   ar
