@<TRIPOS>MOLECULE
No_864-gen_results/8p0m/2024-11-26-14-13-15/
 18 19 0 0 0
SMALL
GASTEIGER

@<TRIPOS>ATOM
      1 C         -28.0162   -0.8135   28.8779 C.ar    1  UNL1        0.0446
      2 C         -28.4690   -0.7850   29.8287 C.ar    1  UNL1        0.0944
      3 C         -26.5455   -0.8762   28.8500 C.ar    1  UNL1        0.1473
      4 C         -25.8041   -1.0324   30.0571 C.ar    1  UNL1        0.0651
      5 C         -27.9437   -0.9869   31.2075 C.ar    1  UNL1        0.1565
      6 C         -26.5825   -1.0386   31.2231 C.ar    1  UNL1        0.0473
      7 CL        -30.2809   -0.7232   29.8834 Cl      1  UNL1       -0.0790
      8 BR        -23.9628   -1.1452   30.0599 Br      1  UNL1       -0.0466
      9 F         -25.7939   -0.8661   27.7234 F       1  UNL1       -0.2036
     10 O         -28.6684   -0.9731   32.3580 O.3     1  UNL1       -0.4495
     11 C         -29.6635   -0.1998   32.5369 C.2     1  UNL1        0.1795
     12 C         -30.6999   -0.2623   33.0361 C.2     1  UNL1        0.0407
     13 C         -30.9787   -1.5817   33.7029 C.ar    1  UNL1        0.0031
     14 C         -30.0628   -2.2950   34.1489 C.ar    1  UNL1        0.0001
     15 C         -29.9505   -3.2304   34.5603 C.ar    1  UNL1        0.0000
     16 C         -31.0465   -4.0252   34.6705 C.ar    1  UNL1        0.0000
     17 C         -32.2912   -3.4489   34.3312 C.ar    1  UNL1        0.0000
     18 C         -32.2253   -2.2191   33.8499 C.ar    1  UNL1        0.0001
@<TRIPOS>BOND
     1     2     7    1
     2     4     8    1
     3     3     9    1
     4     5    10    1
     5    10    11    1
     6    11    12    2
     7    12    13    1
     8    13    14   ar
     9    14    15   ar
    10    15    16   ar
    11    16    17   ar
    12    17    18   ar
    13    18    13   ar
    14     1     2   ar
    15     2     5   ar
    16     5     6   ar
    17     6     4   ar
    18     4     3   ar
    19     3     1   ar
