@<TRIPOS>MOLECULE
No_866-gen_results/8p0m/2024-11-26-14-13-15/
 8 7 0 0 0
SMALL
GASTEIGER

@<TRIPOS>ATOM
      1 F         -28.0727   -1.2542   28.5316 F       1  UNL1       -0.1627
      2 C         -27.3591   -0.3792   28.7224 C.3     1  UNL1        0.4881
      3 F         -26.9761   -0.0935   27.6617 F       1  UNL1       -0.1627
      4 F         -26.3178   -0.8087   29.4966 F       1  UNL1       -0.1627
      5 C         -27.9592    0.7832   29.4561 C.3     1  UNL1        0.4881
      6 F         -27.2113    1.1397   30.3401 F       1  UNL1       -0.1627
      7 F         -28.0831    1.7767   28.6890 F       1  UNL1       -0.1627
      8 F         -29.1086    0.3506   29.9996 F       1  UNL1       -0.1627
@<TRIPOS>BOND
     1     1     2    1
     2     2     3    1
     3     2     4    1
     4     2     5    1
     5     5     6    1
     6     5     7    1
     7     5     8    1
