@<TRIPOS>MOLECULE
No_867-gen_results/8p0m/2024-11-26-14-13-15/
 23 26 0 0 0
SMALL
GASTEIGER

@<TRIPOS>ATOM
      1 O         -28.1229   -1.3353   28.4874 O.3     1  UNL1       -0.4747
      2 C         -27.0637   -0.8242   28.8687 C.ar    1  UNL1        0.1352
      3 C         -26.0496   -0.9362   28.7578 C.ar    1  UNL1        0.0366
      4 C         -24.8633   -0.1668   29.1259 C.ar    1  UNL1        0.0038
      5 C         -25.1916    0.9806   29.8736 C.ar    1  UNL1       -0.0000
      6 C         -26.5062    1.2129   30.1128 C.ar    1  UNL1       -0.0006
      7 C         -27.4860    0.4548   29.7296 C.ar    1  UNL1        0.0220
      8 C         -23.4596   -0.3953   28.9149 C.ar    1  UNL1        0.0115
      9 C         -22.5473    0.6462   28.7227 C.ar    1  UNL1        0.0577
     10 C         -23.0389    1.9079   29.2727 C.ar    1  UNL1        0.0114
     11 C         -24.1901    2.0414   29.9526 C.ar    1  UNL1        0.0009
     12 CL        -20.9781    0.4765   28.3089 Cl      1  UNL1       -0.0822
     13 C         -29.3381   -0.6216   28.4589 C.3     1  UNL1        0.2171
     14 C         -28.9988    0.4817   29.3864 C.3     1  UNL1        0.0959
     15 C         -29.4089    1.8931   28.9047 C.ar    1  UNL1       -0.0119
     16 C         -29.5899    0.1873   30.8433 C.2     1  UNL1       -0.0335
     17 C         -29.0157    2.4457   28.0224 C.ar    1  UNL1       -0.0036
     18 C         -29.4008    3.6717   27.5682 C.ar    1  UNL1       -0.0003
     19 C         -30.5458    2.4299   29.6525 C.ar    1  UNL1       -0.0036
     20 C         -31.0299    3.6730   29.2627 C.ar    1  UNL1       -0.0003
     21 C         -30.4199    4.3147   28.1941 C.ar    1  UNL1       -0.0000
     22 C         -28.9865   -0.6974   31.5037 C.2     1  UNL1       -0.0084
     23 C         -30.8530    0.7595   31.1291 C.3     1  UNL1        0.0271
@<TRIPOS>BOND
     1     1     2    1
     2     9    12    1
     3     1    13    1
     4     7    14    1
     5    13    14    1
     6    14    15    1
     7    14    16    1
     8    16    22    2
     9    16    23    1
    10     2     3   ar
    11     3     4   ar
    12     5     6   ar
    13     6     7   ar
    14     7     2   ar
    15     4     5   ar
    16     5    11   ar
    17    11    10   ar
    18    10     9   ar
    19     9     8   ar
    20     8     4   ar
    21    15    17   ar
    22    17    18   ar
    23    18    21   ar
    24    21    20   ar
    25    20    19   ar
    26    19    15   ar
