@<TRIPOS>MOLECULE
No_87-gen_results/8p0m/2024-11-26-14-13-15/
 20 22 0 0 0
SMALL
GASTEIGER

@<TRIPOS>ATOM
      1 O         -28.1229   -1.3353   28.4874 O.2     1  UNL1       -0.2507
      2 C         -27.4806   -0.4044   28.7094 C.2     1  UNL1        0.3254
      3 N         -26.4599   -0.1104   28.0051 N.am    1  UNL1       -0.1855
      4 C         -25.8102    0.6599   28.0792 C.3     1  UNL1        0.1250
      5 C         -25.8032    1.6173   29.1338 C.3     1  UNL1        0.0830
      6 N         -27.7793    0.2716   29.9469 N.am    1  UNL1       -0.2346
      7 C         -26.8846    1.3603   30.1001 C.3     1  UNL1        0.2427
      8 C         -24.6312    1.0496   27.1544 C.ar    1  UNL1        0.0138
      9 C         -24.4261    1.3343   26.0762 C.ar    1  UNL1        0.0617
     10 C         -23.2065    0.9850   27.8747 C.ar    1  UNL1       -0.0012
     11 C         -22.0893    1.4770   27.3115 C.ar    1  UNL1       -0.0002
     12 C         -23.2870    1.8430   25.3570 C.ar    1  UNL1        0.0173
     13 C         -22.1162    1.9111   26.0411 C.ar    1  UNL1        0.0015
     14 N         -25.6001    1.2855   25.2281 N.ar    1  UNL1       -0.3038
     15 C         -26.0409    0.1881   24.5254 C.ar    1  UNL1        0.0801
     16 C         -27.3696    0.1784   24.1511 C.ar    1  UNL1        0.0205
     17 C         -27.9433    1.4674   24.3499 C.ar    1  UNL1        0.0205
     18 C         -26.7270    2.1881   25.2909 C.ar    1  UNL1        0.0801
     19 F         -27.1012    2.1334   31.1796 F       1  UNL1       -0.2146
     20 C         -28.8439   -0.0077   30.7596 C.3     1  UNL1        0.1191
@<TRIPOS>BOND
     1     1     2    2
     2     2     3   am
     3     3     4    1
     4     4     5    1
     5     2     6   am
     6     6     7    1
     7     4     8    1
     8     9    14    1
     9    14    15   ar
    10    15    16   ar
    11    16    17   ar
    12    14    18   ar
    13    17    18   ar
    14     7    19    1
    15     6    20    1
    16     5     7    1
    17     8     9   ar
    18     9    12   ar
    19    12    13   ar
    20    13    11   ar
    21    11    10   ar
    22    10     8   ar
