@<TRIPOS>MOLECULE
No_871-gen_results/8p0m/2024-11-26-14-13-15/
 35 38 0 0 0
SMALL
GASTEIGER

@<TRIPOS>ATOM
      1 C         -28.0162   -0.8135   28.8779 C.ar    1  UNL1        0.0065
      2 C         -28.4690   -0.7850   29.8287 C.ar    1  UNL1        0.0760
      3 C         -26.5042   -0.7777   28.8766 C.ar    1  UNL1        0.0002
      4 C         -25.8103   -0.8531   30.1028 C.ar    1  UNL1        0.0000
      5 C         -27.9906   -0.8916   31.2257 C.ar    1  UNL1        0.0065
      6 C         -24.3976   -0.8364   30.1775 C.ar    1  UNL1        0.0000
      7 C         -26.5754   -0.8899   31.2661 C.ar    1  UNL1        0.0002
      8 C         -23.7708   -0.9176   31.0960 C.ar    1  UNL1        0.0000
      9 C         -23.6556   -0.7144   28.8858 C.ar    1  UNL1        0.0000
     10 C         -22.2519   -0.5749   28.9404 C.ar    1  UNL1        0.0000
     11 C         -22.2946   -0.7720   31.3210 C.ar    1  UNL1        0.0000
     12 C         -21.6080   -0.5909   30.1140 C.ar    1  UNL1        0.0000
     13 C         -30.0875   -0.7653   29.8507 C.2     1  UNL1        0.3458
     14 O         -30.7673   -1.5755   30.3033 O.2     1  UNL1       -0.2445
     15 O         -30.5906    0.2381   29.2148 O.3     1  UNL1       -0.4167
     16 C         -31.8375    0.2931   28.7295 C.2     1  UNL1        0.1980
     17 C         -32.7693    0.9213   29.2368 C.2     1  UNL1        0.0209
     18 C         -32.3730    1.9130   30.1772 C.3     1  UNL1        0.0557
     19 C         -31.2848    2.5711   30.1117 C.ar    1  UNL1       -0.0177
     20 C         -30.7462    3.2819   31.2657 C.ar    1  UNL1       -0.0039
     21 C         -29.4802    3.9932   31.2156 C.ar    1  UNL1       -0.0003
     22 C         -28.7545    3.9195   29.9732 C.ar    1  UNL1       -0.0000
     23 C         -29.2544    3.2305   28.9285 C.ar    1  UNL1       -0.0006
     24 C         -30.4003    2.5826   29.0346 C.ar    1  UNL1       -0.0039
     25 C         -31.9730   -0.4440   27.4889 C.2     1  UNL1        0.2835
     26 N         -31.4606    0.0226   26.3695 N.am    1  UNL1       -0.2736
     27 C         -31.2243    1.1686   26.0367 C.3     1  UNL1        0.0938
     28 C         -30.5507    1.4764   24.7786 C.3     1  UNL1        0.0216
     29 C         -30.9377   -0.9528   25.3702 C.3     1  UNL1        0.0938
     30 C         -30.3466   -0.7552   24.2047 C.3     1  UNL1        0.0216
     31 C         -30.1127    0.5482   23.9124 C.3     1  UNL1        0.0035
     32 O         -32.7115   -1.4850   27.5337 O.2     1  UNL1       -0.2666
     33 C         -28.4206    3.2714   27.7076 C.2     1  UNL1       -0.0046
     34 C         -27.1401    3.0895   27.7650 C.2     1  UNL1       -0.0258
     35 C         -26.4850    3.7493   28.9305 C.3     1  UNL1        0.0307
@<TRIPOS>BOND
     1     4     6    1
     2     2    13    1
     3    13    14    2
     4    13    15    1
     5    15    16    1
     6    16    17    2
     7    17    18    1
     8    16    25    1
     9    25    26   am
    10    26    27    1
    11    26    29    1
    12    28    31    1
    13    30    31    1
    14    25    32    2
    15    23    33    1
    16    33    34    2
    17    34    35    1
    18    18    19    1
    19    27    28    1
    20    30    29    1
    21     6     8   ar
    22     8    11   ar
    23    11    12   ar
    24    12    10   ar
    25    10     9   ar
    26     9     6   ar
    27    19    20   ar
    28    20    21   ar
    29    21    22   ar
    30    22    23   ar
    31    23    24   ar
    32    24    19   ar
    33     1     2   ar
    34     2     5   ar
    35     5     7   ar
    36     7     4   ar
    37     4     3   ar
    38     3     1   ar
