@<TRIPOS>MOLECULE
No_872-gen_results/8p0m/2024-11-26-14-13-15/
 35 38 0 0 0
SMALL
GASTEIGER

@<TRIPOS>ATOM
      1 C         -28.0162   -0.8135   28.8779 C.ar    1  UNL1        0.0641
      2 C         -27.0636   -0.1190   28.6079 C.ar    1  UNL1        0.0146
      3 C         -25.7647   -0.3897   29.0360 C.ar    1  UNL1        0.0347
      4 C         -24.5516    0.4058   28.7646 C.ar    1  UNL1        0.0033
      5 C         -24.6957    1.4480   27.7988 C.ar    1  UNL1        0.0113
      6 C         -23.5821    2.2165   27.4626 C.ar    1  UNL1        0.0577
      7 C         -22.3295    1.8427   27.9661 C.ar    1  UNL1        0.0112
      8 C         -22.1809    0.8284   28.8814 C.ar    1  UNL1        0.0002
      9 C         -23.3190    0.0774   29.2471 C.ar    1  UNL1        0.0213
     10 C         -27.9056   -1.8765   29.8669 C.ar    1  UNL1        0.0892
     11 C         -26.6648   -2.3322   30.2886 C.ar    1  UNL1        0.0442
     12 C         -25.5477   -1.5609   29.9180 C.ar    1  UNL1        0.1392
     13 C         -29.0812   -2.6967   30.2508 C.2     1  UNL1        0.3423
     14 O         -29.3392   -2.7886   31.5028 O.2     1  UNL1       -0.2449
     15 O         -29.4965   -3.6772   29.5487 O.3     1  UNL1       -0.4415
     16 CL        -23.7344    3.4481   26.2799 Cl      1  UNL1       -0.0822
     17 O         -24.3765   -1.8458   30.4092 O.3     1  UNL1       -0.4706
     18 C         -23.2573   -1.0747   30.0647 C.3     1  UNL1        0.2320
     19 CL        -29.6081   -0.3790   28.3736 Cl      1  UNL1       -0.0820
     20 C         -30.4872   -4.5123   30.1561 C.3     1  UNL1        0.2519
     21 C         -31.2421   -5.2096   29.3112 C.3     1  UNL1        0.2096
     22 O         -32.2365   -4.8658   29.2013 O.2     1  UNL1       -0.4723
     23 C         -32.4563   -3.6067   29.1403 C.2     1  UNL1        0.1721
     24 C         -30.7373   -6.2606   28.4181 C.3     1  UNL1        0.0513
     25 C         -33.2177   -2.9706   28.3685 C.2     1  UNL1        0.0370
     26 C         -33.3377   -1.5628   28.2861 C.ar    1  UNL1        0.0030
     27 C         -33.6450   -0.8603   27.1453 C.ar    1  UNL1        0.0001
     28 C         -33.6348    0.5568   27.0808 C.ar    1  UNL1        0.0000
     29 C         -33.3579    1.2756   28.2484 C.ar    1  UNL1        0.0000
     30 C         -33.0977    0.6040   29.4427 C.ar    1  UNL1        0.0000
     31 C         -33.0235   -0.8165   29.4450 C.ar    1  UNL1        0.0001
     32 C         -34.6285   -3.5687   28.4634 C.2     1  UNL1        0.0031
     33 C         -35.3322   -3.6385   27.6978 C.2     1  UNL1        0.0001
     34 C         -36.6801   -4.2308   27.8244 C.2     1  UNL1        0.0000
     35 C         -36.9630   -4.7669   29.0347 C.2     1  UNL1        0.0000
@<TRIPOS>BOND
     1     3     4    1
     2    10    13    1
     3    13    14    2
     4    13    15    1
     5     6    16    1
     6    12    17    1
     7     9    18    1
     8    17    18    1
     9     1    19    1
    10    15    20    1
    11    20    21    1
    12    21    22    1
    13    22    23    1
    14    21    24    1
    15    23    25    2
    16    25    26    1
    17    25    32    1
    18    32    33    2
    19    33    34    1
    20    34    35    2
    21    26    27   ar
    22    27    28   ar
    23    28    29   ar
    24    29    30   ar
    25    30    31   ar
    26    31    26   ar
    27     1     2   ar
    28     2     3   ar
    29     3    12   ar
    30    12    11   ar
    31    11    10   ar
    32    10     1   ar
    33     4     5   ar
    34     5     6   ar
    35     6     7   ar
    36     7     8   ar
    37     8     9   ar
    38     9     4   ar
