@<TRIPOS>MOLECULE
No_873-gen_results/8p0m/2024-11-26-14-13-15/
 30 33 0 0 0
SMALL
GASTEIGER

@<TRIPOS>ATOM
      1 C         -28.0162   -0.8135   28.8779 C.ar    1  UNL1        0.0114
      2 C         -28.4690   -0.7850   29.8287 C.ar    1  UNL1        0.0476
      3 C         -26.5042   -0.7777   28.8766 C.ar    1  UNL1       -0.0060
      4 C         -25.8103   -0.8531   30.1028 C.ar    1  UNL1        0.0541
      5 C         -27.9906   -0.8916   31.2257 C.ar    1  UNL1        0.0154
      6 C         -26.6042   -0.8676   31.2652 C.ar    1  UNL1        0.0124
      7 N         -29.9765   -0.8288   29.8497 N.pl3   1  UNL1       -0.3069
      8 C         -30.7393    0.1622   30.2418 C.3     1  UNL1        0.0908
      9 C         -31.5206    0.7065   29.9113 C.3     1  UNL1        0.0220
     10 C         -32.1649    0.3991   28.5785 C.3     1  UNL1        0.0147
     11 C         -31.7013   -0.8335   28.0917 C.3     1  UNL1        0.1231
     12 C         -30.5501   -1.4291   28.7129 C.3     1  UNL1        0.1020
     13 C         -32.2435   -1.4007   26.8624 C.2     1  UNL1        0.3660
     14 O         -32.4965   -2.5259   26.7286 O.co2   1  UNL1       -0.2456
     15 O         -32.4009   -0.6169   25.7852 O.co2   1  UNL1       -0.2456
     16 CL        -24.1427   -0.9739   30.2911 Cl      1  UNL1       -0.0826
     17 C         -25.6350   -0.7026   27.6412 C.3     1  UNL1        0.0535
     18 C         -25.2577    0.6263   27.2130 C.ar    1  UNL1       -0.0177
     19 C         -23.9866    0.9701   27.6004 C.ar    1  UNL1       -0.0039
     20 C         -23.3733    2.1710   27.0492 C.ar    1  UNL1       -0.0003
     21 C         -24.1145    2.8775   26.1285 C.ar    1  UNL1       -0.0000
     22 C         -25.9066    1.2655   26.1908 C.ar    1  UNL1       -0.0015
     23 C         -25.4198    2.2976   25.7802 C.ar    1  UNL1       -0.0002
     24 C         -27.1299    0.7742   25.6563 C.ar    1  UNL1        0.0272
     25 C         -28.3293    1.3292   26.2609 C.ar    1  UNL1        0.1401
     26 C         -29.5866    0.9247   25.7344 C.ar    1  UNL1        0.0296
     27 C         -29.6110    0.0863   24.6150 C.ar    1  UNL1        0.0023
     28 C         -27.2021   -0.0329   24.5748 C.ar    1  UNL1        0.0022
     29 C         -28.4520   -0.3894   24.0873 C.ar    1  UNL1        0.0001
     30 F         -28.2735    2.1218   27.2718 F       1  UNL1       -0.2042
@<TRIPOS>BOND
     1     2     7    1
     2     7     8    1
     3     9    10    1
     4     7    12    1
     5    11    12    1
     6    11    13    1
     7    13    14   ar
     8    13    15   ar
     9     4    16    1
    10     3    17    1
    11    17    18    1
    12    22    24    1
    13    25    30    1
    14     8     9    1
    15    10    11    1
    16    18    19   ar
    17    19    20   ar
    18    20    21   ar
    19    21    23   ar
    20    23    22   ar
    21    22    18   ar
    22    24    25   ar
    23    25    26   ar
    24    26    27   ar
    25    27    29   ar
    26    29    28   ar
    27    28    24   ar
    28     1     2   ar
    29     2     5   ar
    30     5     6   ar
    31     6     4   ar
    32     4     3   ar
    33     3     1   ar
