@<TRIPOS>MOLECULE
No_874-gen_results/8p0m/2024-11-26-14-13-15/
 17 17 0 0 0
SMALL
GASTEIGER

@<TRIPOS>ATOM
      1 C         -28.0162   -0.8135   28.8779 C.ar    1  UNL1        0.0104
      2 C         -28.4690   -0.7850   29.8287 C.ar    1  UNL1        0.0797
      3 C         -27.1356    0.2359   28.5352 C.ar    1  UNL1        0.0716
      4 C         -26.8745    1.2825   29.3982 C.ar    1  UNL1        0.0077
      5 C         -28.3613    0.1987   30.9244 C.ar    1  UNL1        0.0104
      6 C         -27.5277    1.2234   30.6356 C.ar    1  UNL1        0.0716
      7 C         -26.3879    0.2914   27.2334 C.3     1  UNL1        0.4186
      8 F         -25.7787   -0.5228   27.0340 F       1  UNL1       -0.1659
      9 F         -27.4096    0.4971   26.2409 F       1  UNL1       -0.1659
     10 F         -25.6634    1.5011   26.9967 F       1  UNL1       -0.1659
     11 C         -29.3015   -2.1096   30.1659 C.2     1  UNL1        0.3877
     12 O         -28.8716   -3.2308   30.3498 O.co2   1  UNL1       -0.2406
     13 O         -30.5063   -1.9099   30.5164 O.co2   1  UNL1       -0.2406
     14 C         -27.3026    2.3297   31.6122 C.3     1  UNL1        0.4186
     15 F         -27.8198    2.3708   32.6820 F       1  UNL1       -0.1659
     16 F         -25.9211    2.2727   31.8555 F       1  UNL1       -0.1659
     17 F         -27.4740    3.5073   30.9405 F       1  UNL1       -0.1659
@<TRIPOS>BOND
     1     3     7    1
     2     7     8    1
     3     7     9    1
     4     7    10    1
     5     2    11    1
     6    11    12   ar
     7    11    13   ar
     8     6    14    1
     9    14    15    1
    10    14    16    1
    11    14    17    1
    12     1     2   ar
    13     2     5   ar
    14     5     6   ar
    15     6     4   ar
    16     4     3   ar
    17     3     1   ar
