@<TRIPOS>MOLECULE
No_876-gen_results/8p0m/2024-11-26-14-13-15/
 34 37 0 0 0
SMALL
GASTEIGER

@<TRIPOS>ATOM
      1 C         -28.0162   -0.8135   28.8779 C.ar    1  UNL1        0.0044
      2 C         -28.4690   -0.7850   29.8287 C.ar    1  UNL1        0.0539
      3 C         -26.5455   -0.8762   28.8500 C.ar    1  UNL1        0.0024
      4 C         -25.8041   -1.0324   30.0571 C.ar    1  UNL1        0.0532
      5 C         -27.9437   -0.9869   31.2075 C.ar    1  UNL1        0.0044
      6 C         -24.4008   -1.0969   30.0965 C.3     1  UNL1        0.3500
      7 C         -26.5612   -1.0746   31.2270 C.ar    1  UNL1        0.0024
      8 CL        -23.7736   -1.9137   31.0565 Cl      1  UNL1       -0.0423
      9 F         -23.8664    0.2048   30.2246 F       1  UNL1       -0.1825
     10 F         -23.8781   -1.3234   28.7602 F       1  UNL1       -0.1825
     11 C         -30.0750   -0.6810   29.8790 C.2     1  UNL1        0.2527
     12 N         -30.8528   -1.4367   30.3438 N.am    1  UNL1       -0.2552
     13 C         -30.5263   -2.3515   31.1407 C.ar    1  UNL1        0.0541
     14 C         -30.4715   -3.6126   30.8040 C.ar    1  UNL1        0.0149
     15 C         -29.7743   -4.6412   31.5180 C.ar    1  UNL1        0.0013
     16 C         -29.4533   -4.4115   32.8376 C.ar    1  UNL1        0.0001
     17 C         -29.6429   -3.1707   33.3845 C.ar    1  UNL1        0.0013
     18 C         -30.0650   -2.1418   32.5177 C.ar    1  UNL1        0.0149
     19 O         -30.4467    0.3604   29.1330 O.2     1  UNL1       -0.2696
     20 C         -32.1540   -1.6810   29.7695 C.3     1  UNL1        0.0988
     21 C         -32.9410   -0.6354   29.5187 C.3     1  UNL1        0.0266
     22 C         -33.3603    0.0792   30.3349 C.3     1  UNL1        0.0281
     23 C         -33.6090   -0.3444   31.6821 C.ar    1  UNL1       -0.0221
     24 C         -34.0725    0.5263   32.7613 C.ar    1  UNL1       -0.0043
     25 C         -34.1711    0.0864   34.0872 C.ar    1  UNL1       -0.0003
     26 C         -33.8455   -1.2615   34.3607 C.ar    1  UNL1       -0.0000
     27 C         -33.3947   -2.0979   33.3564 C.ar    1  UNL1       -0.0003
     28 C         -33.2005   -1.6163   32.0802 C.ar    1  UNL1       -0.0043
     29 C         -33.0326   -3.4863   33.7232 C.ar    1  UNL1       -0.0000
     30 C         -32.7509   -3.6534   35.0222 C.ar    1  UNL1       -0.0000
     31 C         -32.4474   -5.0400   35.4351 C.ar    1  UNL1       -0.0000
     32 C         -32.5209   -6.0193   34.5123 C.ar    1  UNL1        0.0000
     33 C         -33.1600   -4.5505   32.9344 C.ar    1  UNL1       -0.0000
     34 C         -32.9131   -5.8030   33.2856 C.ar    1  UNL1       -0.0000
@<TRIPOS>BOND
     1     4     6    1
     2     6     8    1
     3     6     9    1
     4     6    10    1
     5     2    11    1
     6    11    12   am
     7    12    13    1
     8    11    19    2
     9    12    20    1
    10    20    21    1
    11    21    22    1
    12    27    29    1
    13    22    23    1
    14    29    30   ar
    15    30    31   ar
    16    31    32   ar
    17    32    34   ar
    18    34    33   ar
    19    33    29   ar
    20    13    14   ar
    21    14    15   ar
    22    15    16   ar
    23    16    17   ar
    24    17    18   ar
    25    18    13   ar
    26    23    24   ar
    27    24    25   ar
    28    25    26   ar
    29    26    27   ar
    30    27    28   ar
    31    28    23   ar
    32     1     2   ar
    33     2     5   ar
    34     5     7   ar
    35     7     4   ar
    36     4     3   ar
    37     3     1   ar
