@<TRIPOS>MOLECULE
No_877-gen_results/8p0m/2024-11-26-14-13-15/
 34 38 0 0 0
SMALL
GASTEIGER

@<TRIPOS>ATOM
      1 C         -28.0162   -0.8135   28.8779 C.ar    1  UNL1        0.0214
      2 C         -28.4690   -0.7850   29.8287 C.ar    1  UNL1        0.0810
      3 C         -26.5455   -0.8762   28.8500 C.ar    1  UNL1        0.0521
      4 C         -25.8041   -1.0324   30.0571 C.ar    1  UNL1       -0.0038
      5 C         -24.3697   -1.0998   30.0719 C.3     1  UNL1        0.0552
      6 C         -27.9902   -1.0051   31.2092 C.ar    1  UNL1        0.0063
      7 C         -26.5616   -1.1368   31.2600 C.ar    1  UNL1       -0.0025
      8 C         -23.6342   -0.7826   29.0667 C.ar    1  UNL1       -0.0038
      9 C         -22.1763   -0.6779   29.1657 C.ar    1  UNL1       -0.0027
     10 C         -21.4400   -0.1303   28.1207 C.ar    1  UNL1       -0.0002
     11 C         -22.1014    0.8765   27.3078 C.ar    1  UNL1        0.0013
     12 C         -23.5471    0.9961   27.3643 C.ar    1  UNL1        0.0148
     13 C         -24.2626    0.3021   28.2488 C.ar    1  UNL1        0.0519
     14 N         -25.7334   -0.2934   27.8598 N.pl3   1  UNL1       -0.2662
     15 C         -26.2058    0.1296   26.5958 C.ar    1  UNL1        0.0557
     16 C         -25.4368   -0.0624   25.5308 C.ar    1  UNL1        0.0152
     17 C         -27.3911    0.7788   26.5236 C.ar    1  UNL1        0.0197
     18 C         -27.8751    1.1913   25.3237 C.ar    1  UNL1        0.0548
     19 C         -25.9480    0.2493   24.2483 C.ar    1  UNL1        0.0014
     20 C         -27.1437    0.8711   24.1722 C.ar    1  UNL1        0.0046
     21 C         -30.0983   -0.8042   29.9041 C.2     1  UNL1        0.3878
     22 O         -30.7391   -1.6430   30.2460 O.co2   1  UNL1       -0.2406
     23 O         -30.6280    0.3233   29.4090 O.co2   1  UNL1       -0.2406
     24 C         -29.2250    1.7757   25.0904 C.2     1  UNL1        0.2494
     25 N         -29.4575    2.8538   25.5823 N.am    1  UNL1       -0.2702
     26 C         -30.5801    3.6032   25.4225 C.3     1  UNL1        0.1205
     27 C         -28.4122    3.6606   26.2684 C.3     1  UNL1        0.1155
     28 O         -29.9827    1.2006   24.3380 O.2     1  UNL1       -0.2699
     29 C         -31.4932    3.5236   24.7945 C.ar    1  UNL1       -0.0023
     30 C         -32.6857    4.3197   24.7090 C.ar    1  UNL1       -0.0026
     31 C         -33.7325    4.1505   23.7736 C.ar    1  UNL1       -0.0003
     32 C         -33.6467    2.9746   22.9559 C.ar    1  UNL1       -0.0000
     33 C         -32.5763    2.1297   22.9709 C.ar    1  UNL1       -0.0003
     34 C         -31.4905    2.4184   23.7865 C.ar    1  UNL1       -0.0026
@<TRIPOS>BOND
     1     4     5    1
     2     3    14    1
     3    13    14    1
     4    14    15    1
     5     2    21    1
     6    21    22   ar
     7    21    23   ar
     8    18    24    1
     9    24    25   am
    10    25    26    1
    11    25    27    1
    12    24    28    2
    13    26    29    1
    14     5     8    1
    15    15    16   ar
    16    16    19   ar
    17    19    20   ar
    18    20    18   ar
    19    18    17   ar
    20    17    15   ar
    21     1     2   ar
    22     2     6   ar
    23     6     7   ar
    24     7     4   ar
    25     4     3   ar
    26     3     1   ar
    27    29    30   ar
    28    30    31   ar
    29    31    32   ar
    30    32    33   ar
    31    33    34   ar
    32    34    29   ar
    33     8     9   ar
    34     9    10   ar
    35    10    11   ar
    36    11    12   ar
    37    12    13   ar
    38    13     8   ar
