@<TRIPOS>MOLECULE
No_879-gen_results/8p0m/2024-11-26-14-13-15/
 28 31 0 0 0
SMALL
GASTEIGER

@<TRIPOS>ATOM
      1 O         -28.1229   -1.3353   28.4874 O.2     1  UNL1       -0.2497
      2 C         -27.0637   -0.8242   28.8687 C.2     1  UNL1        0.3218
      3 C         -26.4017   -0.0623   28.6224 C.3     1  UNL1        0.1358
      4 O         -26.3011   -1.8482   29.7559 O.3     1  UNL1       -0.4433
      5 C         -25.1037    0.3692   28.9776 C.ar    1  UNL1       -0.0072
      6 C         -24.3436    1.4978   28.5959 C.ar    1  UNL1        0.0500
      7 C         -22.9904    1.7185   28.9980 C.ar    1  UNL1        0.0042
      8 C         -22.3825    0.6282   29.6530 C.ar    1  UNL1       -0.0001
      9 C         -23.0246   -0.5397   30.0273 C.ar    1  UNL1       -0.0010
     10 C         -24.3255   -0.6680   29.6350 C.ar    1  UNL1        0.0180
     11 C         -25.1125   -1.8233   30.0571 C.3     1  UNL1        0.2347
     12 C         -24.9369    2.5819   27.7909 C.2     1  UNL1        0.2487
     13 O         -24.5751    2.8654   26.6614 O.2     1  UNL1       -0.2699
     14 N         -25.5966    3.5830   28.5179 N.am    1  UNL1       -0.2757
     15 C         -26.1052    4.7653   27.8372 C.3     1  UNL1        0.0937
     16 C         -25.9408    3.5086   29.9370 C.3     1  UNL1        0.0996
     17 C         -26.6904    4.3090   30.4479 C.3     1  UNL1        0.0604
     18 C         -26.9505    5.6488   28.5458 C.3     1  UNL1        0.0220
     19 C         -27.1805    5.4752   29.8713 C.3     1  UNL1        0.0094
     20 C         -27.0165    4.1339   31.9584 C.ar    1  UNL1        0.0666
     21 N         -28.0031    3.4739   32.3081 N.ar    1  UNL1       -0.2479
     22 C         -28.3266    3.0084   33.3536 C.ar    1  UNL1        0.0985
     23 C         -27.5585    3.4450   34.5248 C.ar    1  UNL1        0.0209
     24 C         -26.0102    4.5556   32.9030 C.ar    1  UNL1        0.0934
     25 C         -24.7963    5.3008   32.6647 C.2     1  UNL1        0.3889
     26 C         -26.3625    4.2127   34.3109 C.ar    1  UNL1        0.0094
     27 O         -24.5050    6.3433   33.1920 O.co2   1  UNL1       -0.2405
     28 O         -23.7334    4.5957   32.1937 O.co2   1  UNL1       -0.2405
@<TRIPOS>BOND
     1     1     2    2
     2     2     3    1
     3     2     4    1
     4     3     5    1
     5     4    11    1
     6    10    11    1
     7     6    12    1
     8    12    13    2
     9    12    14   am
    10    14    15    1
    11    14    16    1
    12    17    19    1
    13    18    19    1
    14    17    20    1
    15    24    25    1
    16    25    27   ar
    17    25    28   ar
    18    15    18    1
    19    17    16    1
    20     5     6   ar
    21     6     7   ar
    22     7     8   ar
    23     8     9   ar
    24     9    10   ar
    25    10     5   ar
    26    20    21   ar
    27    21    22   ar
    28    22    23   ar
    29    23    26   ar
    30    26    24   ar
    31    24    20   ar
