@<TRIPOS>MOLECULE
No_880-gen_results/8p0m/2024-11-26-14-13-15/
 26 28 0 0 0
SMALL
GASTEIGER

@<TRIPOS>ATOM
      1 C         -28.0162   -0.8135   28.8779 C.3     1  UNL1        0.0991
      2 C         -27.0636   -0.1189   28.6079 C.ar    1  UNL1       -0.0064
      3 C         -25.7647   -0.3897   29.0360 C.ar    1  UNL1       -0.0067
      4 C         -24.5517    0.4058   28.7646 C.ar    1  UNL1        0.0033
      5 C         -24.6957    1.4480   27.7988 C.ar    1  UNL1        0.0714
      6 C         -25.9755    1.7250   27.3077 C.ar    1  UNL1        0.0036
      7 C         -27.0718    1.0134   27.6535 C.ar    1  UNL1       -0.0027
      8 N         -28.6247   -0.5797   30.0969 N.3     1  UNL1       -0.2690
      9 C         -23.4943    2.1676   27.4757 C.3     1  UNL1        0.4186
     10 F         -22.4715    1.7960   27.1395 F       1  UNL1       -0.1659
     11 C         -29.6392   -1.3283   30.6468 C.3     1  UNL1        0.0724
     12 C         -30.1217   -1.0094   31.9395 C.3     1  UNL1        0.0174
     13 C         -28.1936    0.4499   31.0244 C.3     1  UNL1        0.0724
     14 C         -28.6372    0.7365   32.2116 C.3     1  UNL1        0.0174
     15 C         -29.6439   -0.0072   32.7319 C.3     1  UNL1        0.0029
     16 F         -23.2550    3.1707   28.4508 F       1  UNL1       -0.1659
     17 F         -23.8447    3.1540   26.4473 F       1  UNL1       -0.1659
     18 C         -25.4810   -1.4576   30.0536 C.2     1  UNL1       -0.0221
     19 C         -24.3952   -2.2531   29.8872 C.2     1  UNL1       -0.0046
     20 C         -25.5000   -1.0415   31.5258 C.3     1  UNL1        0.0310
     21 C         -28.3560    1.4476   27.0784 C.ar    1  UNL1       -0.0003
     22 C         -28.4408    2.0130   25.9451 C.ar    1  UNL1       -0.0000
     23 C         -29.6579    2.2238   25.3288 C.ar    1  UNL1       -0.0000
     24 C         -30.8305    1.8525   25.9448 C.ar    1  UNL1       -0.0000
     25 C         -30.7430    1.1944   27.1712 C.ar    1  UNL1       -0.0000
     26 C         -29.5200    0.9345   27.7485 C.ar    1  UNL1       -0.0000
@<TRIPOS>BOND
     1     1     8    1
     2     5     9    1
     3     9    10    1
     4     8    11    1
     5     8    13    1
     6    12    15    1
     7    14    15    1
     8     9    16    1
     9     9    17    1
    10     3    18    1
    11    18    19    2
    12    18    20    1
    13     7    21    1
    14     1     2    1
    15    11    12    1
    16    14    13    1
    17     2     3   ar
    18     3     4   ar
    19     4     5   ar
    20     5     6   ar
    21     6     7   ar
    22     7     2   ar
    23    21    22   ar
    24    22    23   ar
    25    23    24   ar
    26    24    25   ar
    27    25    26   ar
    28    26    21   ar
