@<TRIPOS>MOLECULE
No_881-gen_results/8p0m/2024-11-26-14-13-15/
 17 17 0 0 0
SMALL
GASTEIGER

@<TRIPOS>ATOM
      1 C         -28.0162   -0.8135   28.8779 C.ar    1  UNL1       -0.0023
      2 C         -28.4690   -0.7850   29.8287 C.ar    1  UNL1       -0.0003
      3 C         -28.1960    0.3478   28.0550 C.ar    1  UNL1        0.0052
      4 C         -29.0191    1.3501   28.3782 C.ar    1  UNL1       -0.0023
      5 C         -29.4107    0.1803   30.3782 C.ar    1  UNL1       -0.0000
      6 C         -29.6059    1.2495   29.6193 C.ar    1  UNL1       -0.0003
      7 C         -27.4478    0.3799   26.7122 C.3     1  UNL1        0.2012
      8 P         -25.7370    0.4126   26.7598 P.3     1  UNL1        0.3890
      9 O         -25.2313    0.5076   25.4381 O.2     1  UNL1       -0.2537
     10 O         -25.2971   -0.9148   27.4104 O.3     1  UNL1       -0.1383
     11 O         -25.2982    1.6287   27.5789 O.3     1  UNL1       -0.2887
     12 C         -24.6307    1.7901   28.4450 C.3     1  UNL1        0.1869
     13 N         -28.0280    0.3117   25.5643 N.3     1  UNL1       -0.2034
     14 C         -23.2468    1.6820   28.5013 C.3     1  UNL1        0.2145
     15 O         -22.6677    0.8984   29.4282 O.3     1  UNL1       -0.2176
     16 C         -29.1951    0.9267   25.1439 C.3     1  UNL1        0.0898
     17 C         -29.7059    1.9102   25.9351 C.3     1  UNL1        0.0203
@<TRIPOS>BOND
     1     3     7    1
     2     7     8    1
     3     8     9    2
     4     8    10    1
     5     8    11    1
     6    11    12    1
     7     7    13    1
     8    12    14    1
     9    14    15    1
    10    13    16    1
    11    16    17    1
    12     1     2   ar
    13     2     5   ar
    14     5     6   ar
    15     6     4   ar
    16     4     3   ar
    17     3     1   ar
