@<TRIPOS>MOLECULE
No_882-gen_results/8p0m/2024-11-26-14-13-15/
 13 14 0 0 0
SMALL
GASTEIGER

@<TRIPOS>ATOM
      1 C         -28.0162   -0.8135   28.8779 C.ar    1  UNL1        0.0146
      2 C         -28.4690   -0.7850   29.8287 C.ar    1  UNL1        0.0497
      3 C         -26.5455   -0.8762   28.8500 C.ar    1  UNL1        0.0013
      4 C         -25.8041   -1.0324   30.0571 C.ar    1  UNL1        0.0001
      5 C         -27.9437   -0.9869   31.2075 C.ar    1  UNL1        0.0146
      6 C         -26.5825   -1.0386   31.2231 C.ar    1  UNL1        0.0013
      7 N         -29.9648   -0.7353   29.8902 N.pl3   1  UNL1       -0.2819
      8 C         -30.5344   -0.0309   29.0060 C.3     1  UNL1        0.0932
      9 C         -31.8526   -0.4023   28.7249 C.3     1  UNL1        0.0216
     10 C         -30.7345   -1.5680   30.7138 C.3     1  UNL1        0.2374
     11 F         -30.0338   -2.2534   31.6295 F       1  UNL1       -0.2148
     12 C         -32.0257   -1.6348   30.5557 C.3     1  UNL1        0.0567
     13 C         -32.6684   -1.0247   29.5907 C.3     1  UNL1        0.0064
@<TRIPOS>BOND
     1     2     7    1
     2     7     8    1
     3     7    10    1
     4    10    11    1
     5    10    12    1
     6     9    13    1
     7    12    13    1
     8     8     9    1
     9     1     2   ar
    10     2     5   ar
    11     5     6   ar
    12     6     4   ar
    13     4     3   ar
    14     3     1   ar
