@<TRIPOS>MOLECULE
No_883-gen_results/8p0m/2024-11-26-14-13-15/
 21 23 0 0 0
SMALL
GASTEIGER

@<TRIPOS>ATOM
      1 C         -28.0162   -0.8135   28.8779 C.ar    1  UNL1        0.0046
      2 C         -27.0636   -0.1189   28.6079 C.ar    1  UNL1        0.0001
      3 C         -25.7647   -0.3897   29.0360 C.ar    1  UNL1        0.0000
      4 C         -25.5296   -1.5302   29.9014 C.ar    1  UNL1        0.0001
      5 C         -26.6577   -2.2915   30.2035 C.ar    1  UNL1        0.0046
      6 C         -27.8548   -1.9555   29.7630 C.ar    1  UNL1        0.0554
      7 C         -24.5441    0.4126   28.7379 C.ar    1  UNL1        0.0000
      8 C         -24.4731    1.2065   27.7114 C.ar    1  UNL1        0.0000
      9 C         -23.2779    1.8420   27.3661 C.ar    1  UNL1        0.0000
     10 C         -22.0928    1.6644   28.0344 C.ar    1  UNL1        0.0000
     11 C         -23.2044    0.0605   29.2613 C.ar    1  UNL1        0.0000
     12 C         -22.0480    0.7114   28.9693 C.ar    1  UNL1        0.0000
     13 C         -29.0141   -2.7897   30.1841 C.2     1  UNL1        0.2690
     14 N         -28.8717   -4.0884   30.4940 N.am    1  UNL1       -0.1754
     15 C         -29.9029   -4.9804   30.3271 C.ar    1  UNL1        0.0737
     16 C         -30.7271   -4.8698   29.2611 C.ar    1  UNL1        0.0166
     17 C         -31.0480   -5.9282   28.5203 C.ar    1  UNL1        0.0013
     18 C         -31.5799   -7.0520   29.2108 C.ar    1  UNL1        0.0001
     19 C         -30.9985   -7.2241   30.5443 C.ar    1  UNL1        0.0013
     20 C         -30.0012   -6.2342   31.0734 C.ar    1  UNL1        0.0166
     21 O         -30.0450   -2.1734   30.5859 O.2     1  UNL1       -0.2680
@<TRIPOS>BOND
     1     3     7    1
     2     6    13    1
     3    13    14   am
     4    14    15    1
     5    13    21    2
     6     7     8   ar
     7     8     9   ar
     8     9    10   ar
     9    10    12   ar
    10    12    11   ar
    11    11     7   ar
    12     1     2   ar
    13     2     3   ar
    14     3     4   ar
    15     4     5   ar
    16     5     6   ar
    17     6     1   ar
    18    15    16   ar
    19    16    17   ar
    20    17    18   ar
    21    18    19   ar
    22    19    20   ar
    23    20    15   ar
