@<TRIPOS>MOLECULE
No_884-gen_results/8p0m/2024-11-26-14-13-15/
 18 20 0 0 0
SMALL
GASTEIGER

@<TRIPOS>ATOM
      1 O         -28.1229   -1.3353   28.4874 O.2     1  UNL1       -0.2696
      2 C         -27.4806   -0.4044   28.7094 C.2     1  UNL1        0.2522
      3 C         -26.3804   -0.0867   27.9394 C.ar    1  UNL1        0.0463
      4 N         -27.6664    0.4468   29.8988 N.am    1  UNL1       -0.2537
      5 C         -25.1773   -0.4388   28.3946 C.ar    1  UNL1       -0.0137
      6 C         -26.5259    0.6036   26.6867 C.ar    1  UNL1       -0.0178
      7 C         -23.9372    0.0372   27.6524 C.ar    1  UNL1       -0.0038
      8 C         -25.3818    0.9698   25.9434 C.ar    1  UNL1       -0.0041
      9 C         -24.1031    0.7250   26.4412 C.ar    1  UNL1       -0.0006
     10 C         -28.7588    0.1102   30.7851 C.3     1  UNL1        0.1203
     11 C         -26.8485    1.5208   30.1933 C.ar    1  UNL1        0.0505
     12 C         -27.1731    2.5424   30.3599 C.ar    1  UNL1        0.0146
     13 C         -26.2504    3.5279   30.7712 C.ar    1  UNL1        0.0013
     14 C         -24.8621    3.2182   30.7115 C.ar    1  UNL1       -0.0002
     15 C         -24.4850    1.9599   30.4513 C.ar    1  UNL1       -0.0027
     16 C         -25.4511    1.0778   30.2436 C.ar    1  UNL1       -0.0041
     17 C         -25.0021    0.1915   29.9697 C.3     1  UNL1        0.0540
     18 C         -27.8375    0.8569   26.1537 C.3     1  UNL1        0.0312
@<TRIPOS>BOND
     1     1     2    2
     2     2     3    1
     3     2     4   am
     4     4    10    1
     5     4    11    1
     6     5    17    1
     7    16    17    1
     8     6    18    1
     9    11    12   ar
    10    12    13   ar
    11    13    14   ar
    12    14    15   ar
    13    15    16   ar
    14    16    11   ar
    15     3     5   ar
    16     5     7   ar
    17     7     9   ar
    18     9     8   ar
    19     8     6   ar
    20     6     3   ar
