@<TRIPOS>MOLECULE
No_885-gen_results/8p0m/2024-11-26-14-13-15/
 10 11 0 0 0
SMALL
GASTEIGER

@<TRIPOS>ATOM
      1 C         -28.0162   -0.8135   28.8779 C.ar    1  UNL1        0.0000
      2 C         -28.4690   -0.7850   29.8287 C.ar    1  UNL1        0.0000
      3 C         -27.2166   -0.0832   27.9639 C.ar    1  UNL1        0.0000
      4 C         -27.0905    1.2695   28.4177 C.ar    1  UNL1        0.0000
      5 C         -27.6655    1.5758   29.6941 C.ar    1  UNL1        0.0000
      6 C         -28.3335    0.6031   30.4319 C.ar    1  UNL1        0.0000
      7 C         -26.3583    2.2788   27.6965 C.ar    1  UNL1        0.0000
      8 C         -25.8439    2.1616   26.6256 C.ar    1  UNL1        0.0000
      9 C         -25.7385    0.8923   25.9700 C.ar    1  UNL1        0.0000
     10 C         -26.5225   -0.1890   26.6885 C.ar    1  UNL1        0.0000
@<TRIPOS>BOND
     1     4     7   ar
     2     7     8   ar
     3     8     9   ar
     4     9    10   ar
     5    10     3   ar
     6     1     2   ar
     7     2     6   ar
     8     6     5   ar
     9     5     4   ar
    10     4     3   ar
    11     3     1   ar
