@<TRIPOS>MOLECULE
No_888-gen_results/8p0m/2024-11-26-14-13-15/
 20 22 0 0 0
SMALL
GASTEIGER

@<TRIPOS>ATOM
      1 C         -28.0162   -0.8135   28.8779 C.ar    1  UNL1        0.0045
      2 C         -28.4690   -0.7850   29.8287 C.ar    1  UNL1        0.0536
      3 C         -26.5042   -0.7777   28.8766 C.ar    1  UNL1        0.0001
      4 C         -25.8103   -0.8531   30.1028 C.ar    1  UNL1        0.0000
      5 C         -27.9906   -0.8916   31.2257 C.ar    1  UNL1        0.0045
      6 C         -26.6042   -0.8676   31.2652 C.ar    1  UNL1        0.0001
      7 C         -30.0739   -0.8360   29.8615 C.2     1  UNL1        0.2490
      8 N         -30.6454   -0.1837   28.9598 N.am    1  UNL1       -0.2757
      9 C         -31.7432   -0.5600   28.3299 C.3     1  UNL1        0.0937
     10 C         -32.1609   -0.4849   27.4211 C.3     1  UNL1        0.0219
     11 C         -31.4129    0.3589   26.4237 C.3     1  UNL1        0.0078
     12 C         -30.2861    0.9797   26.8857 C.3     1  UNL1        0.0422
     13 C         -29.4534    1.8617   26.1443 C.ar    1  UNL1       -0.0208
     14 C         -29.8278    0.5856   28.1234 C.3     1  UNL1        0.0980
     15 O         -30.5917   -1.1243   30.9624 O.2     1  UNL1       -0.2699
     16 C         -29.1704    1.7602   24.9666 C.ar    1  UNL1       -0.0042
     17 C         -28.2023    1.5813   24.4934 C.ar    1  UNL1       -0.0003
     18 C         -26.9098    1.9565   25.2799 C.ar    1  UNL1       -0.0000
     19 C         -27.0670    2.5665   26.4210 C.ar    1  UNL1       -0.0003
     20 C         -28.3825    2.2617   27.1005 C.ar    1  UNL1       -0.0042
@<TRIPOS>BOND
     1     2     7    1
     2     7     8   am
     3     8     9    1
     4    10    11    1
     5    12    13    1
     6     8    14    1
     7    12    14    1
     8     7    15    2
     9     9    10    1
    10    11    12    1
    11     1     2   ar
    12     2     5   ar
    13     5     6   ar
    14     6     4   ar
    15     4     3   ar
    16     3     1   ar
    17    13    16   ar
    18    16    17   ar
    19    17    18   ar
    20    18    19   ar
    21    19    20   ar
    22    20    13   ar
