@<TRIPOS>MOLECULE
No_889-gen_results/8p0m/2024-11-26-14-13-15/
 25 28 0 0 0
SMALL
GASTEIGER

@<TRIPOS>ATOM
      1 C         -28.0162   -0.8135   28.8779 C.ar    1  UNL1       -0.0038
      2 C         -28.4690   -0.7850   29.8287 C.ar    1  UNL1       -0.0003
      3 C         -28.1816    0.4277   28.1134 C.ar    1  UNL1       -0.0141
      4 C         -28.9841    1.4155   28.5154 C.ar    1  UNL1       -0.0037
      5 C         -29.3802    0.1384   30.4612 C.ar    1  UNL1       -0.0000
      6 C         -29.5415    1.2736   29.7242 C.ar    1  UNL1       -0.0003
      7 C         -27.4586    0.4934   26.7701 C.3     1  UNL1        0.0956
      8 C         -26.0264    0.3840   26.7617 C.ar    1  UNL1       -0.0139
      9 C         -25.3680    0.5743   25.5142 C.ar    1  UNL1       -0.0038
     10 C         -25.2446    0.0154   27.8765 C.ar    1  UNL1        0.0028
     11 C         -23.8432    0.1341   27.8106 C.ar    1  UNL1        0.0795
     12 C         -23.9328    0.7455   25.4847 C.ar    1  UNL1       -0.0001
     13 C         -23.2198    0.5504   26.6201 C.ar    1  UNL1        0.0066
     14 C         -28.2349    0.5856   25.6273 C.3     1  UNL1        0.2348
     15 F         -28.3252   -0.2840   24.9405 F       1  UNL1       -0.2153
     16 N         -27.7900    1.8364   24.9600 N.3     1  UNL1       -0.0937
     17 C         -29.7321    1.0781   25.9359 C.ar    1  UNL1        0.0244
     18 C         -30.6130    0.9868   24.9842 C.ar    1  UNL1       -0.0003
     19 C         -31.9318    1.3000   25.1452 C.ar    1  UNL1       -0.0002
     20 C         -32.3731    1.6788   26.4060 C.ar    1  UNL1       -0.0000
     21 C         -31.4715    1.8271   27.4241 C.ar    1  UNL1       -0.0002
     22 C         -30.1280    1.5029   27.2120 C.ar    1  UNL1       -0.0004
     23 C         -22.9563   -0.0847   28.9798 C.2     1  UNL1        0.3877
     24 O         -23.2949   -0.6934   29.8685 O.co2   1  UNL1       -0.2406
     25 O         -21.6896    0.3417   28.8349 O.co2   1  UNL1       -0.2406
@<TRIPOS>BOND
     1     3     7    1
     2     7    14    1
     3    14    15    1
     4    14    16    1
     5    14    17    1
     6     4    22    1
     7    11    23    1
     8    23    24   ar
     9    23    25   ar
    10     7     8    1
    11    17    18   ar
    12    18    19   ar
    13    19    20   ar
    14    20    21   ar
    15    21    22   ar
    16    22    17   ar
    17     8     9   ar
    18     9    12   ar
    19    12    13   ar
    20    13    11   ar
    21    11    10   ar
    22    10     8   ar
    23     1     2   ar
    24     2     5   ar
    25     5     6   ar
    26     6     4   ar
    27     4     3   ar
    28     3     1   ar
