@<TRIPOS>MOLECULE
No_890-gen_results/8p0m/2024-11-26-14-13-15/
 17 18 0 0 0
SMALL
GASTEIGER

@<TRIPOS>ATOM
      1 C         -28.0162   -0.8135   28.8779 C.ar    1  UNL1       -0.0037
      2 C         -28.4690   -0.7850   29.8287 C.ar    1  UNL1       -0.0003
      3 C         -27.0871    0.2903   28.6377 C.ar    1  UNL1       -0.0102
      4 C         -26.8317    1.2487   29.5869 C.ar    1  UNL1       -0.0037
      5 C         -28.3914    0.0801   31.0065 C.ar    1  UNL1       -0.0000
      6 C         -27.4940    1.1521   30.7841 C.ar    1  UNL1       -0.0003
      7 C         -26.3172    0.3994   27.3653 C.3     1  UNL1        0.1396
      8 C         -24.9405    0.2550   27.5028 C.ar    1  UNL1       -0.0102
      9 C         -24.2773   -0.0733   28.6806 C.ar    1  UNL1       -0.0037
     10 C         -23.1298    0.4250   29.0471 C.ar    1  UNL1       -0.0003
     11 C         -22.3500    1.0721   27.9668 C.ar    1  UNL1       -0.0000
     12 C         -23.0164    1.5173   26.8178 C.ar    1  UNL1       -0.0003
     13 C         -24.2980    1.2279   26.6200 C.ar    1  UNL1       -0.0037
     14 C         -26.9892    0.2939   26.1659 C.3     1  UNL1        0.4048
     15 F         -27.1460    1.5031   25.7961 F       1  UNL1       -0.1693
     16 F         -26.2479   -0.3705   25.3937 F       1  UNL1       -0.1693
     17 F         -28.2323   -0.1949   26.2468 F       1  UNL1       -0.1693
@<TRIPOS>BOND
     1     3     7    1
     2     7    14    1
     3    14    15    1
     4    14    16    1
     5    14    17    1
     6     7     8    1
     7     8     9   ar
     8     9    10   ar
     9    10    11   ar
    10    11    12   ar
    11    12    13   ar
    12    13     8   ar
    13     1     2   ar
    14     2     5   ar
    15     5     6   ar
    16     6     4   ar
    17     4     3   ar
    18     3     1   ar
