@<TRIPOS>MOLECULE
No_891-gen_results/8p0m/2024-11-26-14-13-15/
 20 22 0 0 0
SMALL
GASTEIGER

@<TRIPOS>ATOM
      1 C         -28.0162   -0.8135   28.8779 C.3     1  UNL1        0.1173
      2 C         -27.0636   -0.1189   28.6079 C.ar    1  UNL1       -0.0065
      3 C         -27.0010    0.6913   27.4910 C.ar    1  UNL1       -0.0030
      4 C         -25.8548    1.4825   27.0830 C.ar    1  UNL1        0.0036
      5 C         -24.6901    1.4526   27.8807 C.ar    1  UNL1        0.0711
      6 C         -24.7379    0.6010   29.0416 C.ar    1  UNL1       -0.0007
      7 C         -25.8234   -0.1688   29.3887 C.ar    1  UNL1       -0.0246
      8 N         -29.2150   -0.1726   29.0132 N.am    1  UNL1       -0.2006
      9 C         -30.2463   -0.7736   29.6388 C.2     1  UNL1        0.2721
     10 C         -23.5190    2.2034   27.5550 C.3     1  UNL1        0.4186
     11 F         -23.6198    2.9624   26.6621 F       1  UNL1       -0.1659
     12 F         -22.9780    2.8899   28.5956 F       1  UNL1       -0.1659
     13 F         -22.4392    1.3445   27.2699 F       1  UNL1       -0.1659
     14 C         -29.9992   -1.9199   30.3481 C.3     1  UNL1        0.2291
     15 C         -28.7285   -2.5275   30.3835 C.3     1  UNL1        0.0445
     16 C         -27.7067   -1.8460   29.8460 C.3     1  UNL1        0.0276
     17 O         -31.4060   -0.2992   29.3838 O.2     1  UNL1       -0.2706
     18 C         -26.3408   -2.2862   30.0179 C.3     1  UNL1        0.0068
     19 C         -25.5068   -1.2876   30.1704 C.3     1  UNL1        0.0261
     20 O         -31.0717   -2.5582   30.8939 O.3     1  UNL1       -0.2132
@<TRIPOS>BOND
     1     1     2    1
     2     1     8    1
     3     8     9   am
     4     5    10    1
     5    10    11    1
     6    10    12    1
     7    10    13    1
     8     9    14    1
     9     1    16    1
    10    15    16    1
    11     9    17    2
    12    16    18    1
    13     7    19    1
    14    18    19    1
    15    14    20    1
    16    15    14    1
    17     2     3   ar
    18     3     4   ar
    19     4     5   ar
    20     5     6   ar
    21     6     7   ar
    22     7     2   ar
