@<TRIPOS>MOLECULE
No_892-gen_results/8p0m/2024-11-26-14-13-15/
 22 22 0 0 0
SMALL
GASTEIGER

@<TRIPOS>ATOM
      1 C         -28.0162   -0.8135   28.8779 C.3     1  UNL1        0.0879
      2 C         -27.0636   -0.1189   28.6079 C.3     1  UNL1        0.3303
      3 CL        -26.9528    1.3495   28.8384 Cl      1  UNL1       -0.0469
      4 C         -28.3373   -0.6768   30.3443 C.3     1  UNL1        0.0334
      5 C         -29.3166   -1.2911   30.8396 C.ar    1  UNL1       -0.0218
      6 C         -29.9748   -2.2898   30.0427 C.ar    1  UNL1        0.0003
      7 C         -31.0247   -3.0760   30.7146 C.ar    1  UNL1        0.0536
      8 C         -31.2614   -2.8843   31.8300 C.ar    1  UNL1        0.0045
      9 C         -30.7112   -1.9939   32.7524 C.ar    1  UNL1       -0.0002
     10 C         -29.6837   -1.2276   32.2609 C.ar    1  UNL1       -0.0043
     11 F         -25.7868   -0.6933   28.9734 F       1  UNL1       -0.1867
     12 F         -26.8727   -0.2875   27.1478 F       1  UNL1       -0.1867
     13 C         -31.6596   -4.0805   29.8122 C.2     1  UNL1        0.2528
     14 O         -31.2567   -5.1999   29.6489 O.2     1  UNL1       -0.2696
     15 N         -32.6470   -3.6724   28.9319 N.am    1  UNL1       -0.2522
     16 C         -33.2252   -4.5326   27.9690 C.3     1  UNL1        0.1204
     17 C         -33.2207   -2.3242   28.9917 C.2     1  UNL1        0.0678
     18 C         -33.0024   -1.5125   28.0647 C.2     1  UNL1        0.0162
     19 C         -32.9198   -1.6769   26.7982 C.2     1  UNL1        0.0013
     20 C         -33.2154   -0.6700   25.8934 C.2     1  UNL1        0.0000
     21 C         -33.0919    0.6543   26.2442 C.2     1  UNL1        0.0000
     22 C         -33.1073    0.9626   27.6210 C.2     1  UNL1        0.0000
@<TRIPOS>BOND
     1     1     2    1
     2     2     3    1
     3     1     4    1
     4     2    11    1
     5     2    12    1
     6     7    13    1
     7    13    14    2
     8    13    15   am
     9    15    16    1
    10    15    17    1
    11    17    18    2
    12    18    19    1
    13    19    20    2
    14    20    21    1
    15    21    22    2
    16     4     5    1
    17     5     6   ar
    18     6     7   ar
    19     7     8   ar
    20     8     9   ar
    21     9    10   ar
    22    10     5   ar
