@<TRIPOS>MOLECULE
No_893-gen_results/8p0m/2024-11-26-14-13-15/
 13 14 0 0 0
SMALL
GASTEIGER

@<TRIPOS>ATOM
      1 C         -28.0162   -0.8135   28.8779 C.ar    1  UNL1        0.0000
      2 C         -27.0636   -0.1190   28.6079 C.ar    1  UNL1        0.0000
      3 C         -26.9287    1.1713   29.0083 C.ar    1  UNL1        0.0002
      4 C         -27.9560    1.7411   29.7840 C.ar    1  UNL1        0.0000
      5 C         -29.0569   -0.3271   29.7466 C.ar    1  UNL1        0.0000
      6 C         -28.9828    0.9722   30.1516 C.ar    1  UNL1        0.0000
      7 C         -25.8907   -0.6263   27.7857 C.ar    1  UNL1        0.0002
      8 C         -24.5686   -0.1994   28.1996 C.ar    1  UNL1        0.0066
      9 C         -24.3830    1.1808   28.3462 C.ar    1  UNL1        0.0798
     10 C         -25.6030    1.8144   29.0598 C.ar    1  UNL1        0.0066
     11 C         -23.1198    1.7971   28.3702 C.2     1  UNL1        0.3878
     12 O         -22.5463    2.1775   29.3303 O.co2   1  UNL1       -0.2406
     13 O         -22.5736    1.9726   27.1244 O.co2   1  UNL1       -0.2406
@<TRIPOS>BOND
     1     9    11    1
     2    11    12   ar
     3    11    13   ar
     4     1     2   ar
     5     3     4   ar
     6     4     6   ar
     7     6     5   ar
     8     5     1   ar
     9     2     3   ar
    10     3    10   ar
    11    10     9   ar
    12     9     8   ar
    13     8     7   ar
    14     7     2   ar
