@<TRIPOS>MOLECULE
No_894-gen_results/8p0m/2024-11-26-14-13-15/
 18 19 0 0 0
SMALL
GASTEIGER

@<TRIPOS>ATOM
      1 O         -28.1229   -1.3353   28.4874 O.2     1  UNL1       -0.2723
      2 C         -27.4806   -0.4044   28.7094 C.2     1  UNL1        0.2533
      3 C         -26.3804   -0.0867   27.9394 C.3     1  UNL1        0.1226
      4 N         -27.8993    0.6459   29.6321 N.am    1  UNL1       -0.1787
      5 C         -25.1243   -0.5319   28.3714 C.ar    1  UNL1       -0.0097
      6 C         -24.8017   -1.7099   28.7916 C.ar    1  UNL1       -0.0035
      7 C         -23.4705   -2.1424   29.1412 C.ar    1  UNL1       -0.0003
      8 C         -22.4762   -1.2148   28.9743 C.ar    1  UNL1       -0.0000
      9 C         -22.6752    0.0939   28.5057 C.ar    1  UNL1       -0.0003
     10 C         -24.0344    0.4457   28.1999 C.ar    1  UNL1       -0.0035
     11 C         -29.0291    0.3960   30.5087 C.ar    1  UNL1        0.0734
     12 C         -29.5175    1.2810   30.9282 C.ar    1  UNL1        0.0166
     13 C         -30.7085    1.2237   31.8464 C.ar    1  UNL1        0.0013
     14 C         -31.1996   -0.0790   32.0886 C.ar    1  UNL1        0.0001
     15 C         -30.5650   -1.1678   31.4898 C.ar    1  UNL1        0.0013
     16 C         -29.4466   -0.9837   30.7392 C.ar    1  UNL1        0.0166
     17 C         -26.5756    0.5283   26.6511 C.2     1  UNL1       -0.0129
     18 C         -26.2481   -0.0468   25.5165 C.2     1  UNL1       -0.0041
@<TRIPOS>BOND
     1     1     2    2
     2     2     3    1
     3     2     4   am
     4     3     5    1
     5     4    11    1
     6     3    17    1
     7    17    18    2
     8    11    12   ar
     9    12    13   ar
    10    13    14   ar
    11    14    15   ar
    12    15    16   ar
    13    16    11   ar
    14     5     6   ar
    15     6     7   ar
    16     7     8   ar
    17     8     9   ar
    18     9    10   ar
    19    10     5   ar
