@<TRIPOS>MOLECULE
No_895-gen_results/8p0m/2024-11-26-14-13-15/
 20 21 0 0 0
SMALL
GASTEIGER

@<TRIPOS>ATOM
      1 C         -28.0162   -0.8135   28.8779 C.ar    1  UNL1        0.1663
      2 C         -27.0636   -0.1190   28.6079 C.ar    1  UNL1        0.0392
      3 C         -25.7923   -0.4302   29.0761 C.ar    1  UNL1        0.0033
      4 C         -25.5756   -1.5654   29.9363 C.ar    1  UNL1        0.0025
      5 C         -26.7354   -2.3004   30.2173 C.ar    1  UNL1        0.0328
      6 C         -27.9184   -1.9537   29.7629 C.ar    1  UNL1        0.1738
      7 F         -28.9649   -2.6957   30.0722 F       1  UNL1       -0.2010
      8 C         -24.5349    0.3596   28.8024 C.ar    1  UNL1        0.0031
      9 C         -23.3564    0.0095   29.1902 C.ar    1  UNL1        0.0002
     10 C         -22.1810    0.7788   28.8104 C.ar    1  UNL1        0.0031
     11 C         -22.3132    1.7458   27.7943 C.ar    1  UNL1        0.0369
     12 C         -24.7221    1.5754   27.9908 C.ar    1  UNL1        0.0369
     13 C         -23.7124    2.2259   27.6290 C.ar    1  UNL1        0.1387
     14 O         -23.7802    3.3226   26.7780 O.3     1  UNL1       -0.4714
     15 C         -24.6043    3.8677   26.4056 C.3     1  UNL1        0.2525
     16 O         -29.2959   -0.5241   28.4809 O.3     1  UNL1       -0.4684
     17 C         -29.6910    0.7926   28.4398 C.3     1  UNL1        0.2316
     18 C         -29.8505    1.2673   27.1327 C.2     1  UNL1        0.0161
     19 C         -30.2478    0.6569   26.1523 C.2     1  UNL1       -0.0267
     20 C         -30.2908    1.0787   24.8007 C.3     1  UNL1        0.0305
@<TRIPOS>BOND
     1     6     7    1
     2     3     8    1
     3    13    14    1
     4    14    15    1
     5     1    16    1
     6    16    17    1
     7    17    18    1
     8    18    19    2
     9    19    20    1
    10     1     2   ar
    11     2     3   ar
    12     3     4   ar
    13     4     5   ar
    14     5     6   ar
    15     6     1   ar
    16     8     9   ar
    17     9    10   ar
    18    10    11   ar
    19    11    13   ar
    20    13    12   ar
    21    12     8   ar
