@<TRIPOS>MOLECULE
No_896-gen_results/8p0m/2024-11-26-14-13-15/
 15 16 0 0 0
SMALL
GASTEIGER

@<TRIPOS>ATOM
      1 C         -28.0162   -0.8135   28.8779 C.ar    1  UNL1       -0.0000
      2 C         -27.0636   -0.1189   28.6079 C.ar    1  UNL1       -0.0003
      3 C         -26.8756    1.1325   28.9134 C.ar    1  UNL1       -0.0025
      4 C         -25.6883    1.9515   28.5672 C.2     1  UNL1       -0.0042
      5 C         -24.6394    1.2834   27.8753 C.2     1  UNL1        0.0774
      6 C         -23.4486    1.9589   27.5372 C.2     1  UNL1        0.0188
      7 C         -29.0929   -0.1958   29.6763 C.ar    1  UNL1       -0.0000
      8 C         -29.0425    1.0855   30.0171 C.ar    1  UNL1       -0.0000
      9 C         -27.9077    1.8155   29.6664 C.ar    1  UNL1       -0.0003
     10 C         -25.9825    3.2766   27.8349 C.3     1  UNL1        0.0326
     11 C         -22.2737    1.2579   27.3183 C.2     1  UNL1        0.0016
     12 C         -21.8340    0.5657   28.3815 C.2     1  UNL1        0.0016
     13 C         -22.7755   -0.3923   29.0106 C.2     1  UNL1        0.0206
     14 C         -23.7983   -0.3951   28.8860 C.2     1  UNL1        0.0988
     15 N         -24.6181    0.0435   27.9776 N.2     1  UNL1       -0.2442
@<TRIPOS>BOND
     1     3     4    1
     2     4     5    2
     3     5     6    1
     4     4    10    1
     5     6    11    2
     6    11    12    1
     7    12    13    2
     8    13    14    1
     9     5    15    1
    10    14    15    2
    11     1     2   ar
    12     2     3   ar
    13     3     9   ar
    14     9     8   ar
    15     8     7   ar
    16     7     1   ar
