@<TRIPOS>MOLECULE
No_897-gen_results/8p0m/2024-11-26-14-13-15/
 13 13 0 0 0
SMALL
GASTEIGER

@<TRIPOS>ATOM
      1 C         -28.0162   -0.8135   28.8779 C.ar    1  UNL1        0.0012
      2 C         -28.4690   -0.7850   29.8287 C.ar    1  UNL1        0.0000
      3 C         -28.1960    0.3478   28.0550 C.ar    1  UNL1        0.0136
      4 C         -29.0191    1.3501   28.3782 C.ar    1  UNL1        0.0012
      5 C         -29.6249    1.2683   29.6012 C.ar    1  UNL1        0.0000
      6 C         -29.3821    0.1816   30.4004 C.ar    1  UNL1        0.0000
      7 C         -27.4591    0.3787   26.7048 C.2     1  UNL1        0.0593
      8 N         -26.2285    0.3306   26.7945 N.2     1  UNL1       -0.2485
      9 C         -28.0687    0.5552   25.4911 C.3     1  UNL1        0.0521
     10 C         -25.3520    0.2704   27.9008 C.2     1  UNL1        0.0939
     11 C         -24.1347    0.9439   27.8476 C.2     1  UNL1       -0.0055
     12 C         -23.8341    1.8559   26.9091 C.3     1  UNL1        0.0277
     13 C         -24.7072    2.3380   26.0130 C.3     1  UNL1        0.0051
@<TRIPOS>BOND
     1     3     7    1
     2     7     8    2
     3     7     9    1
     4     8    10    1
     5    10    11    2
     6    11    12    1
     7    12    13    1
     8     1     2   ar
     9     2     6   ar
    10     6     5   ar
    11     5     4   ar
    12     4     3   ar
    13     3     1   ar
