@<TRIPOS>MOLECULE
No_898-gen_results/8p0m/2024-11-26-14-13-15/
 35 37 0 0 0
SMALL
GASTEIGER

@<TRIPOS>ATOM
      1 CL        -28.1493   -0.8198   28.9079 Cl      1  UNL1       -0.0852
      2 C         -28.5324   -0.0471   29.7727 C.2     1  UNL1        0.0552
      3 C         -29.7006    0.0350   30.2420 C.2     1  UNL1        0.0880
      4 C         -27.4574    0.8974   30.3816 C.3     1  UNL1        0.0560
      5 C         -26.1303    0.9457   29.9571 C.2     1  UNL1       -0.0248
      6 C         -25.3731    1.0557   29.0080 C.2     1  UNL1       -0.0182
      7 C         -23.9446    0.9766   28.9515 C.ar    1  UNL1       -0.0037
      8 C         -23.0954    1.2063   27.8266 C.ar    1  UNL1       -0.0003
      9 C         -21.6905    1.2113   27.9268 C.ar    1  UNL1       -0.0000
     10 C         -21.1236    0.3515   28.8728 C.ar    1  UNL1       -0.0000
     11 C         -21.9256   -0.3026   29.8179 C.ar    1  UNL1       -0.0000
     12 C         -23.3225   -0.0043   29.8898 C.ar    1  UNL1       -0.0003
     13 C         -26.0307    1.4577   27.7192 C.3     1  UNL1        0.0664
     14 C         -26.3144    2.7656   27.5381 C.ar    1  UNL1       -0.0141
     15 C         -25.9144    3.7343   28.4725 C.ar    1  UNL1        0.0029
     16 C         -26.1783    5.1448   28.1968 C.ar    1  UNL1        0.0795
     17 C         -26.8480    5.4028   27.0192 C.ar    1  UNL1        0.0066
     18 C         -27.3177    4.4601   26.1636 C.ar    1  UNL1       -0.0001
     19 C         -26.9958    3.1740   26.3961 C.ar    1  UNL1       -0.0036
     20 N         -30.4940   -0.6896   30.3722 N.pl3   1  UNL1       -0.2238
     21 C         -30.1473   -2.0163   30.2948 C.3     1  UNL1        0.2258
     22 C         -26.2499    0.4743   26.7999 C.ar    1  UNL1       -0.0135
     23 C         -31.2378   -3.0710   29.9534 C.2     1  UNL1        0.3864
     24 O         -30.7447   -4.2215   29.7324 O.co2   1  UNL1       -0.2437
     25 C         -25.4006    0.1584   25.7827 C.ar    1  UNL1       -0.0036
     26 C         -25.7951   -0.5528   24.6047 C.ar    1  UNL1        0.0006
     27 C         -27.1976   -0.6999   24.4418 C.ar    1  UNL1        0.0114
     28 C         -28.1370   -0.0488   25.2190 C.ar    1  UNL1        0.0574
     29 C         -27.6942    0.5319   26.4544 C.ar    1  UNL1        0.0078
     30 CL        -29.7556   -0.2756   24.8872 Cl      1  UNL1       -0.0823
     31 C         -25.7296    6.1694   29.1425 C.2     1  UNL1        0.3877
     32 O         -25.1847    7.2329   28.7081 O.co2   1  UNL1       -0.2406
     33 O         -25.6816    5.9455   30.4268 O.co2   1  UNL1       -0.2406
     34 O         -32.3733   -2.9290   30.1696 O.co2   1  UNL1       -0.2437
     35 C         -27.9033    1.9934   31.2821 C.3     1  UNL1        0.0103
@<TRIPOS>BOND
     1     1     2    1
     2     2     3    2
     3     2     4    1
     4     4     5    1
     5     5     6    2
     6     6     7    1
     7     6    13    1
     8     3    20    1
     9    20    21    1
    10    13    22    1
    11    21    23    1
    12    23    24   ar
    13    28    30    1
    14    16    31    1
    15    31    32   ar
    16    31    33   ar
    17    23    34   ar
    18     4    35    1
    19    13    14    1
    20    14    15   ar
    21    15    16   ar
    22    16    17   ar
    23    17    18   ar
    24    18    19   ar
    25    19    14   ar
    26    22    25   ar
    27    25    26   ar
    28    26    27   ar
    29    27    28   ar
    30    28    29   ar
    31    29    22   ar
    32     7     8   ar
    33     8     9   ar
    34     9    10   ar
    35    10    11   ar
    36    11    12   ar
    37    12     7   ar
