@<TRIPOS>MOLECULE
No_899-gen_results/8p0m/2024-11-26-14-13-15/
 17 18 0 0 0
SMALL
GASTEIGER

@<TRIPOS>ATOM
      1 C         -28.0162   -0.8135   28.8779 C.ar    1  UNL1        0.0045
      2 C         -27.0636   -0.1189   28.6079 C.ar    1  UNL1        0.0001
      3 C         -25.7923   -0.4302   29.0761 C.ar    1  UNL1        0.0000
      4 C         -25.5756   -1.5654   29.9363 C.ar    1  UNL1        0.0001
      5 C         -26.7354   -2.3004   30.2173 C.ar    1  UNL1        0.0045
      6 C         -27.9184   -1.9537   29.7629 C.ar    1  UNL1        0.0536
      7 C         -27.1057    1.1023   27.7593 C.ar    1  UNL1        0.0000
      8 C         -26.7157    2.2350   27.9945 C.ar    1  UNL1        0.0000
      9 C         -26.6929    3.3459   27.0337 C.ar    1  UNL1        0.0000
     10 C         -27.1962    3.0779   25.7437 C.ar    1  UNL1        0.0000
     11 C         -27.5814    0.8882   26.3714 C.ar    1  UNL1        0.0000
     12 C         -27.6132    1.8443   25.4645 C.ar    1  UNL1        0.0000
     13 C         -29.0617   -2.7801   30.2115 C.2     1  UNL1        0.2491
     14 N         -29.5089   -2.6032   31.1878 N.am    1  UNL1       -0.2726
     15 C         -30.4871   -3.3783   31.7977 C.3     1  UNL1        0.1152
     16 O         -29.2486   -3.8185   29.5624 O.2     1  UNL1       -0.2699
     17 C         -29.2628   -1.3353   32.0502 C.3     1  UNL1        0.1152
@<TRIPOS>BOND
     1     2     7    1
     2     6    13    1
     3    13    14   am
     4    14    15    1
     5    13    16    2
     6    14    17    1
     7     7     8   ar
     8     8     9   ar
     9     9    10   ar
    10    10    12   ar
    11    12    11   ar
    12    11     7   ar
    13     1     2   ar
    14     2     3   ar
    15     3     4   ar
    16     4     5   ar
    17     5     6   ar
    18     6     1   ar
