@<TRIPOS>MOLECULE
No_9-gen_results/8p0m/2024-11-26-14-13-15/
 30 34 0 0 0
SMALL
GASTEIGER

@<TRIPOS>ATOM
      1 C         -28.0162   -0.8135   28.8779 C.ar    1  UNL1        0.0150
      2 C         -27.0636   -0.1189   28.6079 C.ar    1  UNL1        0.0516
      3 C         -26.9716    0.7139   27.5060 C.ar    1  UNL1        0.0150
      4 C         -28.1053    0.7744   26.6421 C.ar    1  UNL1        0.0079
      5 C         -29.2008    0.1044   27.0527 C.ar    1  UNL1        0.0799
      6 C         -29.2096   -0.6029   28.1853 C.ar    1  UNL1        0.0079
      7 C         -30.3702    0.2264   26.1604 C.2     1  UNL1        0.3878
      8 O         -31.2210   -0.4630   26.3096 O.co2   1  UNL1       -0.2406
      9 O         -30.3688    1.0652   25.1324 O.co2   1  UNL1       -0.2406
     10 N         -25.7916   -0.2131   29.3834 N.pl3   1  UNL1       -0.2872
     11 C         -24.6660   -0.6320   28.8965 C.2     1  UNL1        0.0608
     12 C         -23.4944   -0.6984   29.6771 C.2     1  UNL1       -0.0083
     13 C         -23.8891   -0.3130   30.9399 C.3     1  UNL1        0.0478
     14 C         -25.5003    0.0168   30.7864 C.3     1  UNL1        0.0856
     15 C         -26.3054    0.4768   31.7733 C.3     1  UNL1        0.0409
     16 C         -26.1402    1.7386   32.1955 C.ar    1  UNL1       -0.0248
     17 C         -25.4822    2.7572   31.5796 C.ar    1  UNL1       -0.0045
     18 C         -25.3269    4.0896   32.0857 C.ar    1  UNL1       -0.0003
     19 C         -25.8204    4.4306   33.3140 C.ar    1  UNL1       -0.0003
     20 C         -26.5845    3.4945   34.0036 C.ar    1  UNL1       -0.0046
     21 C         -26.7088    2.2110   33.5214 C.ar    1  UNL1       -0.0260
     22 C         -27.2613   -0.4425   32.3221 C.3     1  UNL1        0.0083
     23 C         -28.5550   -0.4570   32.1364 C.3     1  UNL1        0.0006
     24 C         -29.3419   -0.4391   33.0502 C.3     1  UNL1        0.0026
     25 C         -29.0148   -1.1076   34.2952 C.3     1  UNL1        0.0329
     26 C         -27.6736   -1.0939   34.6364 C.3     1  UNL1        0.1522
     27 C         -26.8362   -0.1847   33.9117 C.3     1  UNL1        0.0325
     28 C         -27.1525    1.0260   34.3598 C.3     1  UNL1        0.0285
     29 C         -25.4118   -0.7289   34.1802 C.3     1  UNL1        0.0029
     30 O         -27.4356   -1.1080   36.0157 O.3     1  UNL1       -0.2231
@<TRIPOS>BOND
     1     5     7    1
     2     7     8   ar
     3     7     9   ar
     4     2    10    1
     5    10    11    1
     6    11    12    2
     7    12    13    1
     8    10    14    1
     9    13    14    1
    10    14    15    1
    11    15    16    1
    12    15    22    1
    13    22    23    1
    14    24    25    1
    15    22    27    1
    16    26    27    1
    17    21    28    1
    18    27    28    1
    19    27    29    1
    20    26    30    1
    21    23    24    1
    22    25    26    1
    23     1     2   ar
    24     2     3   ar
    25     3     4   ar
    26     4     5   ar
    27     5     6   ar
    28     6     1   ar
    29    16    17   ar
    30    17    18   ar
    31    18    19   ar
    32    19    20   ar
    33    20    21   ar
    34    21    16   ar
