@<TRIPOS>MOLECULE
No_900-gen_results/8p0m/2024-11-26-14-13-15/
 17 19 0 0 0
SMALL
GASTEIGER

@<TRIPOS>ATOM
      1 O         -28.1229   -1.3353   28.4874 O.2     1  UNL1       -0.2726
      2 C         -27.0637   -0.8242   28.8687 C.2     1  UNL1        0.2494
      3 C         -26.4017   -0.0623   28.6224 C.3     1  UNL1        0.1223
      4 N         -26.5721   -1.5844   30.1172 N.am    1  UNL1       -0.2000
      5 C         -25.0209    0.3562   29.0444 C.ar    1  UNL1       -0.0120
      6 C         -24.1656    1.3501   28.5601 C.ar    1  UNL1       -0.0037
      7 C         -22.8678    1.5680   29.0842 C.ar    1  UNL1       -0.0003
      8 C         -22.4025    0.5422   29.9297 C.ar    1  UNL1       -0.0003
      9 C         -23.1712   -0.4519   30.4557 C.ar    1  UNL1       -0.0028
     10 C         -24.4365   -0.6003   29.9597 C.ar    1  UNL1       -0.0038
     11 C         -25.3147   -1.5706   30.5527 C.3     1  UNL1        0.1412
     12 C         -26.9909    0.8326   27.5276 C.ar    1  UNL1       -0.0097
     13 C         -27.2491    0.5003   26.4628 C.ar    1  UNL1       -0.0035
     14 C         -27.7774    1.3423   25.4424 C.ar    1  UNL1       -0.0003
     15 C         -27.8857    2.7620   25.7249 C.ar    1  UNL1       -0.0000
     16 C         -27.4009    3.2502   26.9413 C.ar    1  UNL1       -0.0003
     17 C         -26.9350    2.3650   27.8406 C.ar    1  UNL1       -0.0035
@<TRIPOS>BOND
     1     1     2    2
     2     2     3    1
     3     2     4   am
     4     3     5    1
     5     4    11    1
     6    10    11    1
     7     3    12    1
     8    12    13   ar
     9    13    14   ar
    10    14    15   ar
    11    15    16   ar
    12    16    17   ar
    13    17    12   ar
    14     5     6   ar
    15     6     7   ar
    16     7     8   ar
    17     8     9   ar
    18     9    10   ar
    19    10     5   ar
