@<TRIPOS>MOLECULE
No_901-gen_results/8p0m/2024-11-26-14-13-15/
 35 38 0 0 0
SMALL
GASTEIGER

@<TRIPOS>ATOM
      1 O         -28.1229   -1.3353   28.4874 O.2     1  UNL1       -0.2698
      2 C         -27.4806   -0.4044   28.7094 C.2     1  UNL1        0.2512
      3 C         -26.3804   -0.0867   27.9394 C.ar    1  UNL1        0.0810
      4 N         -27.6664    0.4468   29.8988 N.am    1  UNL1       -0.2751
      5 C         -25.1773   -0.4388   28.3946 C.ar    1  UNL1        0.1445
      6 C         -23.9281   -0.2469   27.6677 C.ar    1  UNL1        0.0298
      7 C         -24.0115    0.7683   26.6848 C.ar    1  UNL1        0.0023
      8 C         -25.2436    1.2341   26.2435 C.ar    1  UNL1        0.0003
      9 C         -26.3955    0.8712   26.8685 C.ar    1  UNL1        0.0066
     10 C         -28.7606    0.1154   30.7716 C.3     1  UNL1        0.0977
     11 C         -26.8564    1.5271   30.2014 C.3     1  UNL1        0.1049
     12 C         -26.3606    1.6712   31.1605 C.3     1  UNL1        0.1235
     13 C         -27.2448    1.6336   32.4398 C.3     1  UNL1        0.0187
     14 C         -28.1748    0.3881   32.2424 C.3     1  UNL1        0.0378
     15 C         -27.6370    1.3593   26.2943 C.ar    1  UNL1        0.0002
     16 C         -28.0320    2.5567   26.7440 C.ar    1  UNL1        0.0005
     17 C         -29.2881    3.0875   26.3721 C.ar    1  UNL1        0.0067
     18 C         -28.4534    0.5679   25.6060 C.ar    1  UNL1        0.0005
     19 C         -29.7035    0.9954   25.1839 C.ar    1  UNL1        0.0067
     20 C         -30.1019    2.2900   25.5332 C.ar    1  UNL1        0.0346
     21 F         -25.0183   -1.3481   29.3848 F       1  UNL1       -0.2040
     22 C         -25.0113    2.3096   31.5617 C.2     1  UNL1        0.3660
     23 O         -24.6715    3.2516   31.7453 O.co2   1  UNL1       -0.2456
     24 O         -24.0186    1.2620   31.2704 O.co2   1  UNL1       -0.2456
     25 BR        -31.7385    2.9100   24.8492 Br      1  UNL1       -0.0490
     26 C         -29.3927    0.5671   33.2220 C.ar    1  UNL1       -0.0210
     27 C         -30.2398    1.4467   33.1000 C.ar    1  UNL1       -0.0042
     28 C         -31.3252    1.5812   33.9948 C.ar    1  UNL1       -0.0001
     29 C         -31.4412    0.6120   35.0174 C.ar    1  UNL1        0.0066
     30 C         -30.5128   -0.3945   35.1206 C.ar    1  UNL1        0.0795
     31 C         -29.4219   -0.4865   34.2553 C.ar    1  UNL1        0.0023
     32 C         -27.3225   -0.8956   32.6098 C.3     1  UNL1        0.0061
     33 C         -30.6330   -1.3931   36.2241 C.2     1  UNL1        0.3877
     34 O         -30.4921   -2.4857   36.0888 O.co2   1  UNL1       -0.2406
     35 O         -30.9051   -0.8664   37.4166 O.co2   1  UNL1       -0.2406
@<TRIPOS>BOND
     1     1     2    2
     2     2     3    1
     3     2     4   am
     4     4    10    1
     5     4    11    1
     6    12    13    1
     7    10    14    1
     8    13    14    1
     9     9    15    1
    10     5    21    1
    11    12    22    1
    12    22    23   ar
    13    22    24   ar
    14    20    25    1
    15    14    26    1
    16    14    32    1
    17    30    33    1
    18    33    34   ar
    19    33    35   ar
    20    12    11    1
    21    15    16   ar
    22    16    17   ar
    23    17    20   ar
    24    20    19   ar
    25    19    18   ar
    26    18    15   ar
    27     3     5   ar
    28     5     6   ar
    29     6     7   ar
    30     7     8   ar
    31     8     9   ar
    32     9     3   ar
    33    26    27   ar
    34    27    28   ar
    35    28    29   ar
    36    29    30   ar
    37    30    31   ar
    38    31    26   ar
