@<TRIPOS>MOLECULE
No_902-gen_results/8p0m/2024-11-26-14-13-15/
 24 25 0 0 0
SMALL
GASTEIGER

@<TRIPOS>ATOM
      1 C         -28.0162   -0.8135   28.8779 C.ar    1  UNL1        0.0113
      2 C         -27.0636   -0.1189   28.6079 C.ar    1  UNL1        0.0714
      3 C         -26.9287    1.1713   29.0083 C.ar    1  UNL1        0.0008
      4 C         -27.9560    1.7411   29.7840 C.ar    1  UNL1       -0.0071
      5 C         -29.0569   -0.3271   29.7466 C.ar    1  UNL1        0.0900
      6 C         -28.9828    0.9722   30.1516 C.ar    1  UNL1        0.0603
      7 C         -25.9387   -0.8037   27.9016 C.3     1  UNL1        0.4186
      8 F         -25.8774   -1.8238   28.0511 F       1  UNL1       -0.1659
      9 F         -24.6418   -0.1398   28.1880 F       1  UNL1       -0.1659
     10 F         -25.9983   -0.3678   26.4940 F       1  UNL1       -0.1659
     11 CL        -30.2288    1.4559   31.2442 Cl      1  UNL1       -0.0823
     12 C         -27.7793    3.1784   30.1713 C.3     1  UNL1        0.0535
     13 C         -27.0987    3.4058   31.2758 C.ar    1  UNL1       -0.0176
     14 C         -26.1836    3.9097   31.5776 C.ar    1  UNL1       -0.0039
     15 C         -25.3380    4.1096   32.4748 C.ar    1  UNL1       -0.0001
     16 C         -25.6335    3.4358   33.7046 C.ar    1  UNL1        0.0066
     17 C         -26.7806    2.6254   33.6482 C.ar    1  UNL1        0.0795
     18 C         -27.5192    2.5280   32.4758 C.ar    1  UNL1        0.0026
     19 C         -27.1883    1.8618   34.8654 C.2     1  UNL1        0.3877
     20 O         -28.0947    2.2106   35.4957 O.co2   1  UNL1       -0.2406
     21 O         -26.4918    0.7875   35.0591 O.co2   1  UNL1       -0.2406
     22 C         -30.1874   -1.2254   30.1124 C.2     1  UNL1        0.3886
     23 O         -30.2228   -1.7411   31.1543 O.co2   1  UNL1       -0.2405
     24 O         -31.0838   -1.2844   29.2278 O.co2   1  UNL1       -0.2405
@<TRIPOS>BOND
     1     2     7    1
     2     7     8    1
     3     7     9    1
     4     7    10    1
     5     6    11    1
     6     4    12    1
     7    12    13    1
     8    17    19    1
     9    19    20   ar
    10    19    21   ar
    11     5    22    1
    12    22    23   ar
    13    22    24   ar
    14    13    14   ar
    15    14    15   ar
    16    15    16   ar
    17    16    17   ar
    18    17    18   ar
    19    18    13   ar
    20     1     2   ar
    21     2     3   ar
    22     3     4   ar
    23     4     6   ar
    24     6     5   ar
    25     5     1   ar
