@<TRIPOS>MOLECULE
No_904-gen_results/8p0m/2024-11-26-14-13-15/
 18 19 0 0 0
SMALL
GASTEIGER

@<TRIPOS>ATOM
      1 C         -28.0162   -0.8135   28.8779 C.2     1  UNL1        0.0684
      2 C         -27.0636   -0.1189   28.6079 C.2     1  UNL1       -0.0188
      3 C         -26.9716    0.7139   27.5060 C.3     1  UNL1        0.0247
      4 C         -25.8205    1.4909   27.1160 C.3     1  UNL1        0.0255
      5 C         -24.6562    1.4242   27.9180 C.3     1  UNL1        0.1582
      6 C         -24.6847    0.5901   29.0659 C.2     1  UNL1        0.1794
      7 C         -25.8099   -0.1265   29.3338 C.3     1  UNL1        0.1557
      8 C         -29.2186   -0.0422   29.3127 C.3     1  UNL1        0.4180
      9 F         -30.0835   -0.8956   29.6667 F       1  UNL1       -0.1659
     10 F         -28.9946    0.7190   30.3302 F       1  UNL1       -0.1659
     11 F         -29.6600    0.6038   28.2395 F       1  UNL1       -0.1659
     12 C         -23.4950    2.2481   27.6245 C.2     1  UNL1        0.3236
     13 O         -22.5795    2.2577   28.4947 O.2     1  UNL1       -0.2496
     14 O         -23.3626    2.8044   26.4845 O.3     1  UNL1       -0.4482
     15 CL        -25.7178   -1.1239   30.7191 Cl      1  UNL1       -0.1025
     16 C         -25.9302    2.3399   25.9636 C.3     1  UNL1        0.0487
     17 C         -24.3719    2.6579   25.5314 C.3     1  UNL1        0.2085
     18 O         -23.6690    0.5321   29.8793 O.2     1  UNL1       -0.2939
@<TRIPOS>BOND
     1     1     2    2
     2     2     3    1
     3     3     4    1
     4     4     5    1
     5     5     6    1
     6     2     7    1
     7     6     7    1
     8     1     8    1
     9     8     9    1
    10     8    10    1
    11     8    11    1
    12     5    12    1
    13    12    13    2
    14    12    14    1
    15     7    15    1
    16     4    16    1
    17    14    17    1
    18    16    17    1
    19     6    18    2
