@<TRIPOS>MOLECULE
No_905-gen_results/8p0m/2024-11-26-14-13-15/
 35 36 0 0 0
SMALL
GASTEIGER

@<TRIPOS>ATOM
      1 C         -28.0162   -0.8135   28.8779 C.ar    1  UNL1        0.0104
      2 C         -28.4690   -0.7850   29.8287 C.ar    1  UNL1        0.0798
      3 C         -27.0871    0.2903   28.6377 C.ar    1  UNL1        0.0717
      4 C         -26.2516    0.4114   27.4223 C.3     1  UNL1        0.4186
      5 C         -28.3913    0.1041   30.9805 C.ar    1  UNL1        0.0104
      6 C         -27.5332    1.1666   30.7866 C.ar    1  UNL1        0.0458
      7 C         -26.8281    1.2557   29.6454 C.ar    1  UNL1        0.0077
      8 F         -26.2894   -0.3208   26.7008 F       1  UNL1       -0.1659
      9 F         -26.4501    1.7036   26.8785 F       1  UNL1       -0.1659
     10 F         -24.8206    0.5392   27.7857 F       1  UNL1       -0.1659
     11 C         -29.4616   -2.0181   30.2134 C.2     1  UNL1        0.3877
     12 O         -30.4886   -1.8749   29.8085 O.co2   1  UNL1       -0.2406
     13 O         -28.9037   -3.1893   30.5526 O.co2   1  UNL1       -0.2406
     14 C         -27.3161    2.1916   31.8350 C.2     1  UNL1        0.2184
     15 N         -27.1093    2.1246   32.8777 N.2     1  UNL1       -0.2371
     16 F         -26.9880    3.2383   31.2969 F       1  UNL1       -0.1836
     17 C         -27.0547    1.0411   33.6591 C.3     1  UNL1        0.1498
     18 C         -25.8151    0.4249   33.8054 C.2     1  UNL1        0.0022
     19 C         -27.6583    1.2337   35.0554 C.ar    1  UNL1        0.0042
     20 C         -28.8419    0.5253   35.2844 C.ar    1  UNL1        0.0011
     21 C         -29.7951    0.8402   35.8785 C.ar    1  UNL1        0.0372
     22 C         -29.6113    1.9333   36.9024 C.ar    1  UNL1        0.1448
     23 C         -28.4350    2.6550   36.8411 C.ar    1  UNL1        0.0372
     24 C         -27.4805    2.4023   35.8432 C.ar    1  UNL1        0.0011
     25 C         -25.2489   -0.4486   32.8336 C.2     1  UNL1       -0.0023
     26 C         -23.9671   -0.9182   32.8959 C.2     1  UNL1       -0.0003
     27 C         -23.3408   -1.2120   31.7189 C.2     1  UNL1       -0.0003
     28 C         -24.1298   -1.3035   30.4588 C.2     1  UNL1       -0.0046
     29 C         -24.4134   -2.2832   29.9859 C.2     1  UNL1       -0.0258
     30 C         -25.0033   -2.4168   28.5653 C.3     1  UNL1        0.0307
     31 O         -30.5816    2.1955   37.8354 O.3     1  UNL1       -0.4578
     32 C         -31.4776    2.6980   37.8903 C.2     1  UNL1        0.1228
     33 C         -32.2181    3.0299   38.7353 C.2     1  UNL1        0.0357
     34 C         -32.0778    3.2270   36.5397 C.3     1  UNL1        0.0645
     35 C         -33.2874    3.8782   36.4227 C.3     1  UNL1        0.0084
@<TRIPOS>BOND
     1     3     4    1
     2     4     8    1
     3     4     9    1
     4     4    10    1
     5     2    11    1
     6    11    12   ar
     7    11    13   ar
     8     6    14    1
     9    14    15    2
    10    14    16    1
    11    15    17    1
    12    17    18    1
    13    17    19    1
    14    18    25    2
    15    25    26    1
    16    26    27    2
    17    27    28    1
    18    28    29    2
    19    29    30    1
    20    22    31    1
    21    31    32    1
    22    32    33    2
    23    32    34    1
    24    34    35    1
    25     1     2   ar
    26     2     5   ar
    27     5     6   ar
    28     6     7   ar
    29     7     3   ar
    30     3     1   ar
    31    19    20   ar
    32    20    21   ar
    33    21    22   ar
    34    22    23   ar
    35    23    24   ar
    36    24    19   ar
