@<TRIPOS>MOLECULE
No_906-gen_results/8p0m/2024-11-26-14-13-15/
 6 5 0 0 0
SMALL
GASTEIGER

@<TRIPOS>ATOM
      1 CL        -28.1493   -0.8198   28.9079 Cl      1  UNL1       -0.0709
      2 C         -27.8339    0.4961   29.0598 C.3     1  UNL1        0.3056
      3 F         -27.7903    1.1418   28.0451 F       1  UNL1       -0.2131
      4 C         -27.4491    1.1313   30.2750 C.3     1  UNL1        0.3660
      5 F         -27.6748    0.4317   31.2272 F       1  UNL1       -0.1938
      6 F         -28.1087    2.2871   30.4453 F       1  UNL1       -0.1938
@<TRIPOS>BOND
     1     1     2    1
     2     2     3    1
     3     2     4    1
     4     4     5    1
     5     4     6    1
