@<TRIPOS>MOLECULE
No_908-gen_results/8p0m/2024-11-26-14-13-15/
 10 10 0 0 0
SMALL
GASTEIGER

@<TRIPOS>ATOM
      1 C         -28.0162   -0.8135   28.8779 C.ar    1  UNL1       -0.0001
      2 C         -28.4690   -0.7850   29.8287 C.ar    1  UNL1       -0.0000
      3 C         -26.5455   -0.8762   28.8500 C.ar    1  UNL1        0.0039
      4 C         -25.8041   -1.0324   30.0571 C.ar    1  UNL1        0.0714
      5 C         -27.9437   -0.9869   31.2075 C.ar    1  UNL1       -0.0001
      6 C         -24.4008   -1.0969   30.0965 C.3     1  UNL1        0.4186
      7 C         -26.5612   -1.0746   31.2270 C.ar    1  UNL1        0.0039
      8 F         -24.0011   -1.8351   30.8568 F       1  UNL1       -0.1659
      9 F         -23.8897    0.1544   30.4301 F       1  UNL1       -0.1659
     10 F         -23.8233   -1.2998   28.8678 F       1  UNL1       -0.1659
@<TRIPOS>BOND
     1     4     6    1
     2     6     8    1
     3     6     9    1
     4     6    10    1
     5     1     2   ar
     6     2     5   ar
     7     5     7   ar
     8     7     4   ar
     9     4     3   ar
    10     3     1   ar
