@<TRIPOS>MOLECULE
No_91-gen_results/8p0m/2024-11-26-14-13-15/
 26 29 0 0 0
SMALL
GASTEIGER

@<TRIPOS>ATOM
      1 C         -28.0162   -0.8135   28.8779 C.ar    1  UNL1       -0.0042
      2 C         -28.4690   -0.7850   29.8287 C.ar    1  UNL1       -0.0003
      3 C         -28.1960    0.3478   28.0550 C.ar    1  UNL1       -0.0217
      4 C         -29.0191    1.3501   28.3782 C.ar    1  UNL1       -0.0258
      5 C         -29.6249    1.2683   29.6012 C.ar    1  UNL1       -0.0046
      6 C         -29.3821    0.1816   30.4004 C.ar    1  UNL1       -0.0003
      7 C         -27.4591    0.3787   26.7048 C.3     1  UNL1        0.0523
      8 C         -26.1349    0.3565   26.8183 C.ar    1  UNL1       -0.0178
      9 C         -25.3867    0.0256   27.9208 C.ar    1  UNL1       -0.0039
     10 C         -23.9775    0.0236   27.9125 C.ar    1  UNL1       -0.0003
     11 C         -23.2127   -0.3711   29.0874 C.ar    1  UNL1       -0.0000
     12 C         -21.8409   -0.0878   29.1559 C.ar    1  UNL1       -0.0000
     13 C         -21.2546    0.7653   28.1996 C.ar    1  UNL1       -0.0000
     14 C         -22.0890    1.4072   27.2475 C.ar    1  UNL1       -0.0000
     15 C         -23.4181    1.0760   27.1777 C.ar    1  UNL1       -0.0000
     16 C         -24.2089    1.7284   26.1767 C.ar    1  UNL1       -0.0003
     17 C         -25.5371    1.8197   26.2761 C.ar    1  UNL1       -0.0039
     18 C         -29.2919    2.4588   27.5182 C.3     1  UNL1        0.0264
     19 C         -28.6145    3.6189   27.7037 C.3     1  UNL1        0.0307
     20 C         -30.1688    2.2720   26.4353 C.3     1  UNL1        0.0050
     21 C         -27.7097    3.8801   28.6525 C.ar    1  UNL1       -0.0219
     22 C         -27.5106    3.2039   29.8102 C.ar    1  UNL1       -0.0043
     23 C         -26.4111    3.5989   30.7020 C.ar    1  UNL1       -0.0003
     24 C         -25.6190    4.5576   30.2581 C.ar    1  UNL1       -0.0000
     25 C         -25.6750    5.2490   29.0717 C.ar    1  UNL1       -0.0003
     26 C         -26.7361    4.8961   28.2693 C.ar    1  UNL1       -0.0043
@<TRIPOS>BOND
     1     3     7    1
     2     7     8    1
     3     4    18    1
     4    18    19    1
     5    18    20    1
     6    19    21    1
     7     8     9   ar
     8     9    10   ar
     9    15    16   ar
    10    16    17   ar
    11    17     8   ar
    12     1     2   ar
    13     2     6   ar
    14     6     5   ar
    15     5     4   ar
    16     4     3   ar
    17     3     1   ar
    18    10    11   ar
    19    11    12   ar
    20    12    13   ar
    21    13    14   ar
    22    14    15   ar
    23    15    10   ar
    24    21    22   ar
    25    22    23   ar
    26    23    24   ar
    27    24    25   ar
    28    25    26   ar
    29    26    21   ar
