@<TRIPOS>MOLECULE
No_911-gen_results/8p0m/2024-11-26-14-13-15/
 14 14 0 0 0
SMALL
GASTEIGER

@<TRIPOS>ATOM
      1 C         -28.0162   -0.8135   28.8779 C.ar    1  UNL1        0.0694
      2 C         -27.0636   -0.1190   28.6079 C.ar    1  UNL1        0.0819
      3 C         -27.0010    0.6913   27.4910 C.ar    1  UNL1        0.1080
      4 C         -28.1373    0.7363   26.6350 C.ar    1  UNL1        0.2114
      5 C         -29.2360    0.0765   27.0690 C.ar    1  UNL1        0.0956
      6 C         -30.3815    0.2048   26.2662 C.2     1  UNL1        0.2680
      7 C         -29.1803   -0.6422   28.1830 C.ar    1  UNL1        0.0201
      8 N         -30.9641    1.1697   26.0469 N.am    1  UNL1       -0.1997
      9 O         -30.9001   -0.9051   25.7472 O.2     1  UNL1       -0.2683
     10 C         -32.1874    1.4166   25.2066 C.3     1  UNL1        0.1388
     11 CL        -28.0200   -1.7982   30.3495 Cl      1  UNL1       -0.0813
     12 CL        -25.5313    1.5213   27.0408 Cl      1  UNL1       -0.0780
     13 CL        -25.4760   -0.2053   29.5840 Cl      1  UNL1       -0.0804
     14 O         -27.8448    1.4740   25.5340 O.3     1  UNL1       -0.2855
@<TRIPOS>BOND
     1     5     6    1
     2     6     8   am
     3     6     9    2
     4     8    10    1
     5     1    11    1
     6     3    12    1
     7     2    13    1
     8     4    14    1
     9     1     2   ar
    10     2     3   ar
    11     3     4   ar
    12     4     5   ar
    13     5     7   ar
    14     7     1   ar
