@<TRIPOS>MOLECULE
No_912-gen_results/8p0m/2024-11-26-14-13-15/
 19 21 0 0 0
SMALL
GASTEIGER

@<TRIPOS>ATOM
      1 C         -28.0162   -0.8135   28.8779 C.ar    1  UNL1        0.0810
      2 C         -27.0636   -0.1189   28.6079 C.ar    1  UNL1        0.0063
      3 C         -27.0010    0.6913   27.4910 C.ar    1  UNL1       -0.0028
      4 C         -28.1373    0.7363   26.6350 C.ar    1  UNL1       -0.0085
      5 C         -29.2360    0.0765   27.0690 C.ar    1  UNL1        0.0477
      6 C         -29.2177   -0.6429   28.1747 C.ar    1  UNL1        0.0211
      7 N         -30.3516    0.1564   26.2430 N.pl3   1  UNL1       -0.2871
      8 C         -31.4313   -0.4312   26.5996 C.ar    1  UNL1        0.0516
      9 C         -32.1635   -1.1434   25.6764 C.ar    1  UNL1        0.0148
     10 C         -30.2592    0.6581   24.9349 C.3     1  UNL1        0.0959
     11 C         -29.2791    1.4571   24.5697 C.3     1  UNL1        0.0265
     12 C         -28.0564    1.4955   25.4128 C.3     1  UNL1        0.0294
     13 C         -33.2242   -1.9710   26.1243 C.ar    1  UNL1        0.0013
     14 C         -33.6276   -2.0184   27.4234 C.ar    1  UNL1        0.0001
     15 C         -32.9274   -1.2796   28.3280 C.ar    1  UNL1        0.0013
     16 C         -31.8253   -0.5314   27.9957 C.ar    1  UNL1        0.0148
     17 C         -28.0967   -1.6277   30.1830 C.2     1  UNL1        0.3878
     18 O         -27.1668   -2.2330   30.4704 O.co2   1  UNL1       -0.2406
     19 O         -29.2190   -1.7531   30.8001 O.co2   1  UNL1       -0.2406
@<TRIPOS>BOND
     1     5     7    1
     2     7     8    1
     3     7    10    1
     4     4    12    1
     5    11    12    1
     6     1    17    1
     7    17    18   ar
     8    17    19   ar
     9    11    10    1
    10     1     2   ar
    11     2     3   ar
    12     3     4   ar
    13     4     5   ar
    14     5     6   ar
    15     6     1   ar
    16     8     9   ar
    17     9    13   ar
    18    13    14   ar
    19    14    15   ar
    20    15    16   ar
    21    16     8   ar
