@<TRIPOS>MOLECULE
No_913-gen_results/8p0m/2024-11-26-14-13-15/
 14 15 0 0 0
SMALL
GASTEIGER

@<TRIPOS>ATOM
      1 C         -28.0162   -0.8135   28.8779 C.ar    1  UNL1        0.0039
      2 C         -28.4690   -0.7850   29.8287 C.ar    1  UNL1       -0.0001
      3 C         -28.1960    0.3478   28.0550 C.ar    1  UNL1       -0.0000
      4 C         -27.4421    0.5100   26.7946 C.ar    1  UNL1       -0.0000
      5 C         -26.1689   -0.0794   26.6787 C.ar    1  UNL1       -0.0001
      6 C         -25.7312   -0.9607   27.6875 C.ar    1  UNL1        0.0039
      7 C         -26.5043   -1.2222   28.7582 C.ar    1  UNL1        0.0714
      8 C         -29.6530   -0.2892   30.1660 C.ar    1  UNL1       -0.0000
      9 C         -30.0958    0.7019   29.2325 C.ar    1  UNL1       -0.0000
     10 C         -29.3946    1.0067   28.0841 C.ar    1  UNL1       -0.0000
     11 C         -25.9323   -2.2672   29.7020 C.3     1  UNL1        0.4186
     12 F         -25.2394   -1.8109   30.5237 F       1  UNL1       -0.1659
     13 F         -25.3126   -3.2832   29.0524 F       1  UNL1       -0.1659
     14 F         -27.0002   -2.9643   30.3534 F       1  UNL1       -0.1659
@<TRIPOS>BOND
     1     7    11    1
     2    11    12    1
     3    11    13    1
     4    11    14    1
     5     1     2   ar
     6     2     8   ar
     7     8     9   ar
     8     9    10   ar
     9    10     3   ar
    10     1     3   ar
    11     3     4   ar
    12     4     5   ar
    13     5     6   ar
    14     6     7   ar
    15     7     1   ar
