@<TRIPOS>MOLECULE
No_914-gen_results/8p0m/2024-11-26-14-13-15/
 28 28 0 0 0
SMALL
GASTEIGER

@<TRIPOS>ATOM
      1 C         -28.0162   -0.8135   28.8779 C.3     1  UNL1        0.0818
      2 C         -27.0636   -0.1189   28.6079 C.ar    1  UNL1       -0.0178
      3 C         -26.8756    1.1325   28.9134 C.ar    1  UNL1        0.0020
      4 C         -25.6883    1.9515   28.5672 C.ar    1  UNL1        0.0718
      5 C         -24.6394    1.2834   27.8753 C.ar    1  UNL1       -0.0087
      6 C         -24.8068   -0.0513   27.6040 C.ar    1  UNL1       -0.0039
      7 C         -25.9019   -0.7670   27.9511 C.ar    1  UNL1       -0.0044
      8 C         -29.2125   -0.1153   29.1222 C.3     1  UNL1        0.2720
      9 C         -30.3508   -0.8179   29.5782 C.2     1  UNL1        0.4044
     10 C         -23.4184    1.9805   27.5117 C.3     1  UNL1        0.0853
     11 P         -22.0734    2.0065   28.3566 P.3     1  UNL1        0.1216
     12 O         -21.9666    0.4470   28.7757 O.3     1  UNL1       -0.3569
     13 O         -20.9189    2.1209   27.4521 O.2     1  UNL1       -0.4598
     14 O         -22.2003    2.7582   29.5346 O.3     1  UNL1       -0.3569
     15 O         -31.4059   -0.7446   29.0072 O.co2   1  UNL1       -0.2416
     16 O         -30.1653   -1.9473   30.3350 O.co2   1  UNL1       -0.2416
     17 O         -29.6012    0.7415   28.1049 O.2     1  UNL1       -0.4643
     18 C         -25.5964    3.3720   28.9180 C.2     1  UNL1        0.3414
     19 O         -25.8380    4.1293   28.0432 O.2     1  UNL1       -0.2449
     20 O         -25.5076    3.6607   30.1692 O.3     1  UNL1       -0.4329
     21 C         -25.9062    4.8400   30.6826 C.3     1  UNL1        0.3215
     22 C         -25.4183    5.0732   31.9814 C.2     1  UNL1        0.4086
     23 O         -26.1833    5.5359   32.7900 O.co2   1  UNL1       -0.2415
     24 O         -24.2246    4.6599   32.3567 O.co2   1  UNL1       -0.2415
     25 C         -29.4671    2.0646   28.1322 C.2     1  UNL1        0.1729
     26 C         -29.4374    2.7785   26.9187 C.2     1  UNL1        0.0401
     27 C         -29.2922    2.1527   25.8105 C.2     1  UNL1        0.0032
     28 C         -29.1110    2.9076   24.6206 C.2     1  UNL1        0.0001
@<TRIPOS>BOND
     1     1     8    1
     2     8     9    1
     3     5    10    1
     4    10    11    1
     5    11    12    1
     6    11    13    2
     7    11    14    1
     8     9    15   ar
     9     9    16   ar
    10     8    17    1
    11     4    18    1
    12    18    19    2
    13    18    20    1
    14    20    21    1
    15    21    22    1
    16    22    23   ar
    17    22    24   ar
    18    17    25    1
    19    25    26    2
    20    26    27    1
    21    27    28    2
    22     1     2    1
    23     2     3   ar
    24     3     4   ar
    25     4     5   ar
    26     5     6   ar
    27     6     7   ar
    28     7     2   ar
