@<TRIPOS>MOLECULE
No_915-gen_results/8p0m/2024-11-26-14-13-15/
 16 17 0 0 0
SMALL
GASTEIGER

@<TRIPOS>ATOM
      1 C         -28.0162   -0.8135   28.8779 C.ar    1  UNL1       -0.0043
      2 C         -27.0636   -0.1190   28.6079 C.ar    1  UNL1       -0.0222
      3 C         -26.9287    1.1713   29.0083 C.ar    1  UNL1       -0.0043
      4 C         -27.9560    1.7411   29.7840 C.ar    1  UNL1       -0.0003
      5 C         -29.0569   -0.3271   29.7466 C.ar    1  UNL1       -0.0003
      6 C         -28.9828    0.9722   30.1516 C.ar    1  UNL1       -0.0000
      7 C         -25.8907   -0.6263   27.7857 C.3     1  UNL1        0.0267
      8 C         -24.7182   -1.0610   28.6129 C.3     1  UNL1        0.0081
      9 C         -23.5950   -0.2827   28.8125 C.3     1  UNL1        0.0190
     10 C         -23.3621    0.9930   28.2774 C.2     1  UNL1       -0.0402
     11 C         -22.1122    1.6091   28.3143 C.2     1  UNL1       -0.0085
     12 C         -21.9246    2.8072   27.6231 C.2     1  UNL1       -0.0049
     13 C         -23.0905    3.1531   26.8150 C.2     1  UNL1       -0.0218
     14 C         -24.1755    1.7013   27.2796 C.3     1  UNL1        0.0480
     15 C         -24.8020   -2.2869   29.3428 C.3     1  UNL1        0.0007
     16 C         -22.4512   -0.9295   29.3563 C.3     1  UNL1        0.0044
@<TRIPOS>BOND
     1     2     7    1
     2     7     8    1
     3     8     9    1
     4     9    10    1
     5    10    11    2
     6    11    12    1
     7    12    13    2
     8    10    14    1
     9    13    14    1
    10     8    15    1
    11     9    16    1
    12     1     2   ar
    13     2     3   ar
    14     3     4   ar
    15     4     6   ar
    16     6     5   ar
    17     5     1   ar
