@<TRIPOS>MOLECULE
No_916-gen_results/8p0m/2024-11-26-14-13-15/
 29 31 0 0 0
SMALL
GASTEIGER

@<TRIPOS>ATOM
      1 C         -28.0162   -0.8135   28.8779 C.ar    1  UNL1        0.0048
      2 C         -27.0636   -0.1189   28.6079 C.ar    1  UNL1        0.0065
      3 C         -25.7923   -0.4302   29.0761 C.ar    1  UNL1        0.0002
      4 C         -25.5756   -1.5654   29.9363 C.ar    1  UNL1        0.0001
      5 C         -26.7354   -2.3004   30.2173 C.ar    1  UNL1        0.0046
      6 C         -27.9184   -1.9537   29.7629 C.ar    1  UNL1        0.0555
      7 C         -26.8968    1.1016   27.7052 C.ar    1  UNL1        0.0797
      8 C         -25.8554    1.5416   27.2307 C.ar    1  UNL1        0.0104
      9 C         -24.5492    1.1632   27.8487 C.ar    1  UNL1        0.0716
     10 C         -24.4993    0.1126   28.6990 C.ar    1  UNL1        0.0039
     11 C         -23.2850    1.8564   27.4001 C.3     1  UNL1        0.4186
     12 F         -23.0355    1.8326   26.1907 F       1  UNL1       -0.1659
     13 F         -22.1792    1.3614   28.1025 F       1  UNL1       -0.1659
     14 F         -23.4369    3.2236   27.7657 F       1  UNL1       -0.1659
     15 C         -29.1077   -2.7272   30.1958 C.2     1  UNL1        0.2716
     16 N         -29.0291   -4.0350   30.4748 N.am    1  UNL1       -0.1371
     17 O         -30.2384   -2.2091   30.2546 O.2     1  UNL1       -0.2679
     18 C         -30.0858   -4.9326   30.8037 C.2     1  UNL1        0.2716
     19 C         -30.8857   -5.2543   29.7520 C.ar    1  UNL1        0.0555
     20 C         -30.6318   -5.0753   28.5408 C.ar    1  UNL1        0.0054
     21 C         -31.3840   -5.6591   27.4682 C.ar    1  UNL1        0.0115
     22 C         -32.5003   -6.4158   27.6852 C.ar    1  UNL1        0.0577
     23 C         -32.7764   -6.6568   29.0598 C.ar    1  UNL1        0.0115
     24 C         -31.9795   -6.1855   30.0877 C.ar    1  UNL1        0.0054
     25 O         -30.0944   -5.3193   32.0086 O.2     1  UNL1       -0.2679
     26 C         -28.2484    1.5650   27.1211 C.2     1  UNL1        0.3877
     27 O         -28.9242    2.3229   27.6860 O.co2   1  UNL1       -0.2406
     28 O         -28.4092    1.2568   25.8759 O.co2   1  UNL1       -0.2406
     29 CL        -33.4440   -6.9695   26.4571 Cl      1  UNL1       -0.0822
@<TRIPOS>BOND
     1     9    11    1
     2    11    12    1
     3    11    13    1
     4    11    14    1
     5     6    15    1
     6    15    16   am
     7    15    17    2
     8    16    18   am
     9    18    19    1
    10    18    25    2
    11     7    26    1
    12    26    27   ar
    13    26    28   ar
    14    22    29    1
    15     1     2   ar
    16     3     4   ar
    17     4     5   ar
    18     5     6   ar
    19     6     1   ar
    20     2     3   ar
    21     3    10   ar
    22    10     9   ar
    23     9     8   ar
    24     8     7   ar
    25     7     2   ar
    26    19    20   ar
    27    20    21   ar
    28    21    22   ar
    29    22    23   ar
    30    23    24   ar
    31    24    19   ar
