@<TRIPOS>MOLECULE
No_917-gen_results/8p0m/2024-11-26-14-13-15/
 15 16 0 0 0
SMALL
GASTEIGER

@<TRIPOS>ATOM
      1 N         -28.0544   -1.0498   28.7246 N.pl3   1  UNL1       -0.2372
      2 C         -26.9659   -0.4722   28.7709 C.ar    1  UNL1        0.0653
      3 C         -26.5486    0.3876   27.8311 C.ar    1  UNL1        0.0161
      4 C         -25.2228    0.8526   27.7033 C.ar    1  UNL1        0.0013
      5 C         -24.2464    0.4683   28.6950 C.ar    1  UNL1        0.0001
      6 C         -22.8972    0.8594   28.6515 C.ar    1  UNL1        0.0000
      7 C         -25.9403   -1.0255   29.7362 C.ar    1  UNL1        0.0161
      8 C         -24.5811   -0.5251   29.7156 C.ar    1  UNL1        0.0013
      9 C         -22.5205    1.7795   27.5847 C.ar    1  UNL1        0.0000
     10 C         -23.4595    2.2897   26.7027 C.ar    1  UNL1        0.0000
     11 C         -24.7996    1.8138   26.7378 C.ar    1  UNL1        0.0000
     12 C         -29.0368   -0.4803   29.6069 C.3     1  UNL1        0.1186
     13 C         -30.3347   -1.0732   29.5636 C.3     1  UNL1        0.0722
     14 C         -31.2244   -0.5016   28.5629 C.2     1  UNL1        0.0975
     15 N         -32.0999    0.0406   28.9765 N.2     1  UNL1       -0.1514
@<TRIPOS>BOND
     1     1     2    1
     2     1    12    1
     3    12    13    1
     4    13    14    1
     5    14    15    2
     6     2     3   ar
     7     3     4   ar
     8     5     8   ar
     9     8     7   ar
    10     7     2   ar
    11     4     5   ar
    12     5     6   ar
    13     6     9   ar
    14     9    10   ar
    15    10    11   ar
    16    11     4   ar
