@<TRIPOS>MOLECULE
No_918-gen_results/8p0m/2024-11-26-14-13-15/
 26 27 0 0 0
SMALL
GASTEIGER

@<TRIPOS>ATOM
      1 C         -28.0162   -0.8135   28.8779 C.3     1  UNL1        0.1225
      2 C         -27.0636   -0.1189   28.6079 C.ar    1  UNL1       -0.0023
      3 C         -26.9287    1.1713   29.0083 C.ar    1  UNL1       -0.0028
      4 C         -25.7702    2.0341   28.6884 C.ar    1  UNL1        0.0009
      5 C         -24.7141    1.4431   27.9188 C.ar    1  UNL1        0.0436
      6 C         -24.6669    0.3608   27.7694 C.ar    1  UNL1        0.0009
      7 C         -25.8568   -0.6337   27.9784 C.ar    1  UNL1       -0.0028
      8 N         -29.1771   -0.3120   28.9657 N.pl3   1  UNL1       -0.2478
      9 C         -30.1660   -0.9128   29.7452 C.3     1  UNL1        0.4078
     10 F         -29.9040   -2.0623   29.9466 F       1  UNL1       -0.1760
     11 O         -31.4488   -0.7996   29.1994 O.3     1  UNL1       -0.1597
     12 C         -30.1503   -0.1534   31.1685 C.3     1  UNL1        0.4714
     13 C         -23.4874    2.3404   27.7248 C.3     1  UNL1        0.3410
     14 F         -23.6259    3.3575   27.1824 F       1  UNL1       -0.1933
     15 F         -22.2874    1.8685   27.7596 F       1  UNL1       -0.1933
     16 F         -29.7640   -0.9113   32.0567 F       1  UNL1       -0.1637
     17 F         -31.4303    0.2115   31.4376 F       1  UNL1       -0.1637
     18 F         -29.4185    0.9447   31.0645 F       1  UNL1       -0.1637
     19 C         -29.6021    0.6622   27.9775 C.ar    1  UNL1        0.0945
     20 C         -29.7933    1.9481   28.3466 C.ar    1  UNL1        0.0181
     21 C         -30.4939    2.7262   27.7880 C.ar    1  UNL1        0.0048
     22 C         -31.3030    2.4557   26.8411 C.ar    1  UNL1        0.0455
     23 C         -31.1490    1.1343   26.2867 C.ar    1  UNL1        0.2355
     24 C         -30.6704    0.1449   27.1709 C.ar    1  UNL1        0.2475
     25 O         -30.4687   -0.9973   26.4876 O.3     1  UNL1       -0.2818
     26 O         -32.3328    0.7369   25.5156 O.3     1  UNL1       -0.2831
@<TRIPOS>BOND
     1     1     2    1
     2     1     8    1
     3     8     9    1
     4     9    10    1
     5     9    11    1
     6     9    12    1
     7     5    13    1
     8    13    14    1
     9    13    15    1
    10    12    16    1
    11    12    17    1
    12    12    18    1
    13     8    19    1
    14    24    25    1
    15    23    26    1
    16     2     3   ar
    17     3     4   ar
    18     4     5   ar
    19     5     6   ar
    20     6     7   ar
    21     7     2   ar
    22    19    20   ar
    23    20    21   ar
    24    21    22   ar
    25    22    23   ar
    26    23    24   ar
    27    24    19   ar
