@<TRIPOS>MOLECULE
No_92-gen_results/8p0m/2024-11-26-14-13-15/
 30 33 0 0 0
SMALL
GASTEIGER

@<TRIPOS>ATOM
      1 C         -28.0162   -0.8135   28.8779 C.ar    1  UNL1        0.0046
      2 C         -27.0636   -0.1190   28.6079 C.ar    1  UNL1        0.0001
      3 C         -25.7647   -0.3897   29.0360 C.ar    1  UNL1        0.0000
      4 C         -25.5296   -1.5302   29.9014 C.ar    1  UNL1        0.0001
      5 C         -26.6577   -2.2915   30.2035 C.ar    1  UNL1        0.0046
      6 C         -27.8548   -1.9555   29.7630 C.ar    1  UNL1        0.0551
      7 C         -24.5441    0.4126   28.7379 C.ar    1  UNL1        0.0000
      8 C         -23.3231    0.0476   29.0499 C.ar    1  UNL1        0.0000
      9 C         -22.1997    0.8411   28.7194 C.ar    1  UNL1        0.0000
     10 C         -22.3632    1.8394   27.7172 C.ar    1  UNL1        0.0000
     11 C         -24.6043    1.5165   27.8119 C.ar    1  UNL1        0.0000
     12 C         -23.5582    2.1898   27.3588 C.ar    1  UNL1        0.0000
     13 C         -29.0212   -2.7832   30.1825 C.2     1  UNL1        0.2672
     14 N         -30.1633   -2.3284   30.1920 N.am    1  UNL1       -0.1693
     15 O         -28.8042   -3.9744   30.6053 O.2     1  UNL1       -0.2683
     16 C         -31.3670   -3.1036   30.5686 C.3     1  UNL1        0.2303
     17 C         -32.3894   -2.5119   30.8292 C.ar    1  UNL1        0.0261
     18 C         -33.1665   -2.8045   31.7379 C.ar    1  UNL1       -0.0001
     19 C         -34.3179   -2.0185   32.2101 C.ar    1  UNL1       -0.0002
     20 C         -34.6285   -0.9020   31.4329 C.ar    1  UNL1       -0.0000
     21 C         -33.8506   -0.5425   30.3847 C.ar    1  UNL1       -0.0002
     22 C         -32.6910   -1.2315   30.1036 C.ar    1  UNL1       -0.0001
     23 C         -34.1156    0.7298   29.6288 C.ar    1  UNL1       -0.0000
     24 C         -34.5407    1.7481   30.1376 C.ar    1  UNL1       -0.0000
     25 C         -33.7709    0.6211   28.2057 C.ar    1  UNL1       -0.0000
     26 C         -34.8355    2.9076   29.3316 C.ar    1  UNL1       -0.0000
     27 C         -34.0657    1.7915   27.4445 C.ar    1  UNL1       -0.0000
     28 C         -34.5593    2.8903   28.0142 C.ar    1  UNL1        0.0000
     29 F         -30.9512   -3.9493   31.4534 F       1  UNL1       -0.2131
     30 C         -31.6751   -4.0236   29.3243 C.3     1  UNL1        0.0631
@<TRIPOS>BOND
     1     3     7    1
     2     6    13    1
     3    13    14   am
     4    13    15    2
     5    14    16    1
     6    16    17    1
     7    21    23    1
     8    16    29    1
     9    16    30    1
    10     7     8   ar
    11     8     9   ar
    12     9    10   ar
    13    10    12   ar
    14    12    11   ar
    15    11     7   ar
    16     1     2   ar
    17     2     3   ar
    18     3     4   ar
    19     4     5   ar
    20     5     6   ar
    21     6     1   ar
    22    17    18   ar
    23    18    19   ar
    24    19    20   ar
    25    20    21   ar
    26    21    22   ar
    27    22    17   ar
    28    23    24   ar
    29    24    26   ar
    30    26    28   ar
    31    28    27   ar
    32    27    25   ar
    33    25    23   ar
