@<TRIPOS>MOLECULE
No_921-gen_results/8p0m/2024-11-26-14-13-15/
 15 16 0 0 0
SMALL
GASTEIGER

@<TRIPOS>ATOM
      1 C         -28.0162   -0.8135   28.8779 C.ar    1  UNL1        0.0002
      2 C         -27.0636   -0.1189   28.6079 C.ar    1  UNL1        0.0000
      3 C         -25.7923   -0.4302   29.0761 C.ar    1  UNL1        0.0000
      4 C         -25.2700   -0.0487   30.0123 C.ar    1  UNL1        0.0000
      5 C         -29.2965   -0.1838   28.9398 C.ar    1  UNL1        0.0066
      6 C         -29.5648    0.8003   28.0352 C.ar    1  UNL1        0.0798
      7 C         -28.4695    1.4413   27.4238 C.ar    1  UNL1        0.0066
      8 C         -27.1368    1.0792   27.7975 C.ar    1  UNL1        0.0002
      9 C         -24.0789   -0.0482   30.4668 C.ar    1  UNL1        0.0000
     10 C         -23.0706   -0.7956   29.7216 C.ar    1  UNL1        0.0000
     11 C         -23.5146   -1.2736   28.5552 C.ar    1  UNL1        0.0000
     12 C         -24.8140   -1.1247   28.1330 C.ar    1  UNL1        0.0000
     13 C         -30.9041    1.2984   27.7859 C.2     1  UNL1        0.3878
     14 O         -31.3119    1.7450   26.8277 O.co2   1  UNL1       -0.2406
     15 O         -31.6869    1.4496   28.8740 O.co2   1  UNL1       -0.2406
@<TRIPOS>BOND
     1     2     3    1
     2     6    13    1
     3    13    14   ar
     4    13    15   ar
     5     1     2   ar
     6     2     8   ar
     7     8     7   ar
     8     7     6   ar
     9     6     5   ar
    10     5     1   ar
    11     3     4   ar
    12     4     9   ar
    13     9    10   ar
    14    10    11   ar
    15    11    12   ar
    16    12     3   ar
