@<TRIPOS>MOLECULE
No_923-gen_results/8p0m/2024-11-26-14-13-15/
 10 10 0 0 0
SMALL
GASTEIGER

@<TRIPOS>ATOM
      1 C         -28.0162   -0.8135   28.8779 C.ar    1  UNL1        0.0074
      2 C         -28.4690   -0.7850   29.8287 C.ar    1  UNL1        0.0798
      3 C         -26.5042   -0.7777   28.8766 C.ar    1  UNL1        0.0116
      4 C         -25.8103   -0.8531   30.1028 C.ar    1  UNL1        0.0577
      5 C         -27.9906   -0.8916   31.2257 C.ar    1  UNL1        0.0074
      6 C         -26.6042   -0.8676   31.2652 C.ar    1  UNL1        0.0116
      7 CL        -24.1648   -0.7915   30.1717 Cl      1  UNL1       -0.0822
      8 C         -30.0988   -0.8363   29.8511 C.2     1  UNL1        0.3878
      9 O         -30.7434   -1.6668   30.1991 O.co2   1  UNL1       -0.2406
     10 O         -30.6393    0.3494   29.6520 O.co2   1  UNL1       -0.2406
@<TRIPOS>BOND
     1     4     7    1
     2     2     8    1
     3     8     9   ar
     4     8    10   ar
     5     1     2   ar
     6     2     5   ar
     7     5     6   ar
     8     6     4   ar
     9     4     3   ar
    10     3     1   ar
