@<TRIPOS>MOLECULE
No_924-gen_results/8p0m/2024-11-26-14-13-15/
 14 15 0 0 0
SMALL
GASTEIGER

@<TRIPOS>ATOM
      1 C         -28.0162   -0.8135   28.8779 C.ar    1  UNL1        0.0180
      2 C         -27.0636   -0.1189   28.6079 C.ar    1  UNL1       -0.0010
      3 C         -27.0010    0.6913   27.4910 C.ar    1  UNL1        0.0010
      4 C         -28.1373    0.7363   26.6350 C.ar    1  UNL1        0.0142
      5 C         -29.2360    0.0765   27.0690 C.ar    1  UNL1        0.0436
      6 C         -29.2177   -0.6429   28.1747 C.ar    1  UNL1       -0.0094
      7 N         -30.3516    0.1564   26.2430 N.pl3   1  UNL1       -0.3060
      8 C         -31.4313   -0.4312   26.5996 C.3     1  UNL1        0.0912
      9 C         -31.5398   -1.0043   27.8472 C.3     1  UNL1        0.0261
     10 C         -30.4352   -1.2124   28.6022 C.3     1  UNL1        0.0292
     11 C         -27.9491   -1.6373   30.1655 C.3     1  UNL1        0.2388
     12 BR        -27.0078   -1.8650   30.7423 Br      1  UNL1       -0.0380
     13 F         -29.2339   -1.5360   30.6475 F       1  UNL1       -0.2198
     14 C         -30.3115    0.9034   24.9809 C.3     1  UNL1        0.1122
@<TRIPOS>BOND
     1     5     7    1
     2     7     8    1
     3     6    10    1
     4     9    10    1
     5     1    11    1
     6    11    12    1
     7    11    13    1
     8     7    14    1
     9     9     8    1
    10     1     2   ar
    11     2     3   ar
    12     3     4   ar
    13     4     5   ar
    14     5     6   ar
    15     6     1   ar
