@<TRIPOS>MOLECULE
No_925-gen_results/8p0m/2024-11-26-14-13-15/
 9 9 0 0 0
SMALL
GASTEIGER

@<TRIPOS>ATOM
      1 O         -28.1229   -1.3353   28.4874 O.2     1  UNL1       -0.2733
      2 C         -27.4806   -0.4044   28.7094 C.2     1  UNL1        0.2431
      3 C         -27.1904    0.2460   29.5268 C.3     1  UNL1        0.0784
      4 N         -26.6021   -0.1576   27.5515 N.am    1  UNL1       -0.1728
      5 C         -25.6421    0.9031   27.5822 C.3     1  UNL1        0.2555
      6 C         -25.5004    1.6142   28.7368 C.3     1  UNL1        0.0588
      7 C         -26.2553    1.3158   29.8133 C.3     1  UNL1        0.0138
      8 C         -27.9755   -0.2056   30.8166 C.3     1  UNL1        0.0096
      9 F         -24.9483    1.1156   26.4791 F       1  UNL1       -0.2132
@<TRIPOS>BOND
     1     1     2    2
     2     2     3    1
     3     2     4   am
     4     4     5    1
     5     5     6    1
     6     3     7    1
     7     6     7    1
     8     3     8    1
     9     5     9    1
