@<TRIPOS>MOLECULE
No_928-gen_results/8p0m/2024-11-26-14-13-15/
 28 30 0 0 0
SMALL
GASTEIGER

@<TRIPOS>ATOM
      1 C         -28.0162   -0.8135   28.8779 C.ar    1  UNL1        0.0375
      2 C         -27.0636   -0.1190   28.6079 C.ar    1  UNL1        0.0031
      3 C         -25.7923   -0.4302   29.0761 C.ar    1  UNL1        0.0002
      4 C         -25.5756   -1.5654   29.9363 C.ar    1  UNL1        0.0031
      5 C         -26.7354   -2.3004   30.2173 C.ar    1  UNL1        0.0375
      6 C         -27.9184   -1.9537   29.7629 C.ar    1  UNL1        0.1455
      7 O         -29.0001   -2.7012   30.1151 O.3     1  UNL1       -0.4492
      8 C         -24.5290    0.3490   28.7998 C.ar    1  UNL1        0.0000
      9 C         -23.3442    0.0060   29.1658 C.ar    1  UNL1        0.0000
     10 C         -22.1783    0.7811   28.7783 C.ar    1  UNL1        0.0000
     11 C         -22.3217    1.7499   27.7727 C.ar    1  UNL1        0.0000
     12 C         -24.6102    1.3558   27.7479 C.ar    1  UNL1        0.0000
     13 C         -23.5148    2.0341   27.3068 C.ar    1  UNL1        0.0000
     14 C         -30.1256   -2.1340   30.5841 C.2     1  UNL1        0.1957
     15 C         -31.1953   -2.7166   30.1353 C.2     1  UNL1        0.1385
     16 C         -31.1822   -3.9861   29.6791 C.3     1  UNL1        0.3576
     17 F         -29.9837   -4.3464   29.5057 F       1  UNL1       -0.1917
     18 F         -32.0819   -4.5171   28.9032 F       1  UNL1       -0.1917
     19 N         -32.0613   -1.8783   29.2064 N.pl3   1  UNL1       -0.2463
     20 C         -32.0865   -1.9077   27.9769 C.ar    1  UNL1        0.1392
     21 C         -32.7198   -0.8065   27.2448 C.ar    1  UNL1        0.0350
     22 C         -32.3982   -0.5407   26.0210 C.ar    1  UNL1        0.0045
     23 C         -31.6167   -1.4477   25.2452 C.ar    1  UNL1        0.0208
     24 C         -31.2686   -2.6588   25.8078 C.ar    1  UNL1        0.1003
     25 N         -31.3693   -2.7332   27.1755 N.ar    1  UNL1       -0.2285
     26 C         -33.0035   -0.8775   29.9138 C.2     1  UNL1        0.0662
     27 C         -34.2799   -1.2267   30.1428 C.2     1  UNL1       -0.0094
     28 C         -35.1121   -0.3100   30.6673 C.3     1  UNL1        0.0321
@<TRIPOS>BOND
     1     6     7    1
     2     3     8    1
     3     7    14    1
     4    14    15    2
     5    15    16    1
     6    16    17    1
     7    16    18    1
     8    15    19    1
     9    19    20    1
    10    19    26    1
    11    26    27    2
    12    27    28    1
    13     1     2   ar
    14     2     3   ar
    15     3     4   ar
    16     4     5   ar
    17     5     6   ar
    18     6     1   ar
    19    20    21   ar
    20    21    22   ar
    21    22    23   ar
    22    23    24   ar
    23    24    25   ar
    24    25    20   ar
    25     8     9   ar
    26     9    10   ar
    27    10    11   ar
    28    11    13   ar
    29    13    12   ar
    30    12     8   ar
