@<TRIPOS>MOLECULE
No_929-gen_results/8p0m/2024-11-26-14-13-15/
 25 27 0 0 0
SMALL
GASTEIGER

@<TRIPOS>ATOM
      1 C         -28.0162   -0.8135   28.8779 C.ar    1  UNL1        0.0111
      2 C         -28.4690   -0.7850   29.8287 C.ar    1  UNL1        0.0577
      3 C         -26.5455   -0.8762   28.8500 C.ar    1  UNL1       -0.0031
      4 C         -25.8041   -1.0324   30.0571 C.ar    1  UNL1       -0.0177
      5 C         -27.9437   -0.9869   31.2075 C.ar    1  UNL1        0.0111
      6 C         -26.5825   -1.0386   31.2231 C.ar    1  UNL1       -0.0031
      7 CL        -30.2809   -0.7232   29.8834 Cl      1  UNL1       -0.0822
      8 C         -24.3690   -1.1185   30.0640 C.3     1  UNL1        0.0526
      9 C         -23.5954   -0.5553   29.0940 C.ar    1  UNL1       -0.0176
     10 C         -22.1333   -0.5992   29.2607 C.ar    1  UNL1       -0.0039
     11 C         -24.1205    0.2186   28.0688 C.ar    1  UNL1        0.0006
     12 C         -23.2377    1.1256   27.3603 C.ar    1  UNL1        0.0552
     13 C         -21.3124    0.1911   28.4682 C.ar    1  UNL1       -0.0002
     14 C         -21.8167    1.0486   27.5767 C.ar    1  UNL1        0.0046
     15 C         -23.5785    2.1352   26.3022 C.2     1  UNL1        0.2715
     16 N         -24.7790    2.6743   26.4554 N.am    1  UNL1       -0.1371
     17 O         -22.7359    2.6843   25.5867 O.2     1  UNL1       -0.2679
     18 C         -25.8783    2.3207   27.2763 C.2     1  UNL1        0.2716
     19 C         -27.1398    2.6877   26.7468 C.ar    1  UNL1        0.0555
     20 C         -27.9916    3.2952   27.6358 C.ar    1  UNL1        0.0046
     21 C         -29.3238    3.5432   27.3221 C.ar    1  UNL1        0.0001
     22 C         -29.6934    3.2830   25.9707 C.ar    1  UNL1        0.0000
     23 C         -28.8394    2.7338   25.0623 C.ar    1  UNL1        0.0001
     24 C         -27.5537    2.4511   25.4632 C.ar    1  UNL1        0.0046
     25 O         -25.7240    1.9731   28.4303 O.2     1  UNL1       -0.2679
@<TRIPOS>BOND
     1     2     7    1
     2     4     8    1
     3    12    15    1
     4    15    16   am
     5    15    17    2
     6    16    18   am
     7    18    19    1
     8    18    25    2
     9     8     9    1
    10     9    10   ar
    11    10    13   ar
    12    13    14   ar
    13    14    12   ar
    14    12    11   ar
    15    11     9   ar
    16     1     2   ar
    17     2     5   ar
    18     5     6   ar
    19     6     4   ar
    20     4     3   ar
    21     3     1   ar
    22    19    20   ar
    23    20    21   ar
    24    21    22   ar
    25    22    23   ar
    26    23    24   ar
    27    24    19   ar
