@<TRIPOS>MOLECULE
No_93-gen_results/8p0m/2024-11-26-14-13-15/
 35 39 0 0 0
SMALL
GASTEIGER

@<TRIPOS>ATOM
      1 C         -28.0162   -0.8135   28.8779 C.3     1  UNL1        0.1176
      2 C         -27.0636   -0.1190   28.6079 C.ar    1  UNL1       -0.0024
      3 C         -25.7923   -0.4302   29.0761 C.ar    1  UNL1       -0.0025
      4 C         -24.5456    0.3494   28.8225 C.ar    1  UNL1        0.0043
      5 C         -24.6586    1.4196   27.8878 C.ar    1  UNL1        0.0566
      6 C         -25.9471    1.6811   27.3792 C.ar    1  UNL1        0.0043
      7 C         -27.0439    0.9739   27.6871 C.ar    1  UNL1       -0.0025
      8 N         -29.1882   -0.1472   29.0918 N.pl3   1  UNL1       -0.3056
      9 C         -29.7585    0.5259   28.4632 C.2     1  UNL1        0.0602
     10 C         -31.1091    0.9118   28.8334 C.2     1  UNL1        0.0298
     11 C         -30.1030   -0.8208   30.0985 C.3     1  UNL1        0.0623
     12 C         -31.9370    1.8686   28.2853 C.ar    1  UNL1        0.1631
     13 C         -31.2651   -0.0465   29.9165 C.3     1  UNL1        0.0489
     14 C         -23.4666    2.1670   27.5877 C.2     1  UNL1        0.2842
     15 N         -23.4991    3.1433   26.8059 N.am    1  UNL1       -0.0837
     16 O         -22.2939    1.7580   27.9742 O.2     1  UNL1       -0.2667
     17 N         -31.7535    2.2618   27.1559 N.ar    1  UNL1       -0.2051
     18 N         -32.9298    2.3341   29.0274 N.ar    1  UNL1       -0.2051
     19 C         -33.7791    3.2926   28.5269 C.ar    1  UNL1        0.2017
     20 C         -32.5454    3.2470   26.5350 C.ar    1  UNL1        0.2017
     21 N         -33.5655    3.7424   27.3086 N.ar    1  UNL1       -0.2018
     22 C         -30.1774   -2.2085   30.0505 C.3     1  UNL1        0.0188
     23 C         -29.4485   -0.3331   31.4921 C.3     1  UNL1        0.0185
     24 C         -30.9530   -2.8417   31.1730 C.3     1  UNL1        0.0056
     25 C         -30.2036   -2.6909   32.3904 C.3     1  UNL1        0.0004
     26 C         -30.1165   -1.1024   32.6610 C.3     1  UNL1        0.0017
     27 C         -31.7541   -3.9286   30.9468 C.3     1  UNL1        0.0221
     28 C         -32.6604   -3.9616   30.0886 C.2     1  UNL1       -0.0265
     29 C         -33.4060   -5.0488   29.7469 C.2     1  UNL1       -0.0049
     30 C         -31.5565   -5.1914   31.6245 C.3     1  UNL1        0.0043
     31 C         -30.3504   -5.3420   32.5422 C.3     1  UNL1        0.0003
     32 C         -30.1632   -3.7429   33.3621 C.3     1  UNL1        0.0000
     33 C         -34.3688   -4.9780   28.7877 C.2     1  UNL1       -0.0049
     34 C         -34.5542   -3.8085   28.0906 C.2     1  UNL1       -0.0258
     35 C         -33.8276   -2.6559   28.3545 C.3     1  UNL1        0.0307
@<TRIPOS>BOND
     1     1     2    1
     2     1     8    1
     3     8     9    1
     4     9    10    2
     5     8    11    1
     6    10    12    1
     7    10    13    1
     8    11    13    1
     9     5    14    1
    10    14    15   am
    11    14    16    2
    12    11    22    1
    13    11    23    1
    14    22    24    1
    15    24    25    1
    16    23    26    1
    17    25    26    1
    18    24    27    1
    19    27    28    1
    20    28    29    2
    21    27    30    1
    22    30    31    1
    23    25    32    1
    24    31    32    1
    25    29    33    1
    26    33    34    2
    27    34    35    1
    28     2     3   ar
    29     3     4   ar
    30     4     5   ar
    31     5     6   ar
    32     6     7   ar
    33     7     2   ar
    34    12    17   ar
    35    17    20   ar
    36    20    21   ar
    37    21    19   ar
    38    19    18   ar
    39    18    12   ar
