@<TRIPOS>MOLECULE
No_931-gen_results/8p0m/2024-11-26-14-13-15/
 35 39 0 0 0
SMALL
GASTEIGER

@<TRIPOS>ATOM
      1 N         -28.0544   -1.0498   28.7246 N.ar    1  UNL1       -0.2273
      2 C         -28.6544   -0.5669   29.5076 C.ar    1  UNL1        0.1548
      3 C         -28.1376    0.1595   30.5233 C.ar    1  UNL1        0.0335
      4 C         -26.9903    0.4867   30.5289 C.ar    1  UNL1        0.0043
      5 C         -26.6486   -0.7802   28.6829 C.ar    1  UNL1        0.1004
      6 C         -26.0398   -0.0024   29.6129 C.ar    1  UNL1        0.0222
      7 N         -29.9742   -1.0118   29.3490 N.am    1  UNL1       -0.1527
      8 C         -30.9416   -0.2918   28.7234 C.2     1  UNL1        0.3260
      9 C         -32.1070   -0.9653   28.3786 C.2     1  UNL1        0.3247
     10 O         -30.6741    0.8386   28.3227 O.2     1  UNL1       -0.2629
     11 O         -32.2329   -1.4496   27.2516 O.2     1  UNL1       -0.2629
     12 N         -33.0858   -1.1768   29.2845 N.am    1  UNL1       -0.1715
     13 C         -33.0195   -0.6655   30.6382 C.ar    1  UNL1        0.0738
     14 C         -32.9590    0.5606   30.7967 C.ar    1  UNL1        0.0166
     15 C         -32.9502    1.1307   32.1540 C.ar    1  UNL1        0.0013
     16 C         -33.1595    0.1876   33.1941 C.ar    1  UNL1        0.0001
     17 C         -33.2287   -1.6468   31.6368 C.ar    1  UNL1        0.0166
     18 C         -33.2739   -1.1252   32.9381 C.ar    1  UNL1        0.0013
     19 C         -24.6093    0.2420   29.6079 C.ar    1  UNL1        0.0355
     20 C         -24.1290    1.5086   29.8493 C.ar    1  UNL1        0.1385
     21 C         -23.6718   -0.7787   29.4578 C.ar    1  UNL1        0.0031
     22 C         -22.2974   -0.4649   29.3136 C.ar    1  UNL1        0.0002
     23 C         -22.7416    1.8485   29.7396 C.ar    1  UNL1        0.0369
     24 C         -21.8314    0.7956   29.4800 C.ar    1  UNL1        0.0031
     25 C         -29.1393    0.7569   31.6426 C.ar    1  UNL1        0.0028
     26 C         -28.8362    0.9940   32.7411 C.ar    1  UNL1        0.0001
     27 C         -27.5966    0.5539   33.2580 C.ar    1  UNL1        0.0000
     28 C         -27.2289    0.7952   34.5626 C.ar    1  UNL1        0.0000
     29 C         -25.9600    0.3456   34.8731 C.ar    1  UNL1        0.0000
     30 C         -25.0431   -0.1879   33.9682 C.ar    1  UNL1        0.0000
     31 C         -25.4668   -0.3381   32.6787 C.ar    1  UNL1        0.0000
     32 C         -26.7200    0.0227   32.3336 C.ar    1  UNL1        0.0001
     33 O         -24.9503    2.5684   30.1219 O.3     1  UNL1       -0.4755
     34 C         -25.1198    3.1471   31.2133 C.3     1  UNL1        0.2055
     35 C         -26.0681    4.3028   31.2875 C.3     1  UNL1        0.0512
@<TRIPOS>BOND
     1     2     7    1
     2     7     8   am
     3     8     9    1
     4     8    10    2
     5     9    11    2
     6     9    12   am
     7    12    13    1
     8     6    19    1
     9    20    33    1
    10    33    34    1
    11    34    35    1
    12     4    32   ar
    13    27    26   ar
    14    26    25   ar
    15    25     3   ar
    16     1     2   ar
    17     2     3   ar
    18     3     4   ar
    19     4     6   ar
    20     6     5   ar
    21     5     1   ar
    22    19    20   ar
    23    20    23   ar
    24    23    24   ar
    25    24    22   ar
    26    22    21   ar
    27    21    19   ar
    28    27    28   ar
    29    28    29   ar
    30    29    30   ar
    31    30    31   ar
    32    31    32   ar
    33    32    27   ar
    34    13    14   ar
    35    14    15   ar
    36    15    16   ar
    37    16    18   ar
    38    18    17   ar
    39    17    13   ar
