@<TRIPOS>MOLECULE
No_932-gen_results/8p0m/2024-11-26-14-13-15/
 17 18 0 0 0
SMALL
GASTEIGER

@<TRIPOS>ATOM
      1 C         -28.0162   -0.8135   28.8779 C.ar    1  UNL1        0.0293
      2 C         -28.4690   -0.7850   29.8287 C.ar    1  UNL1        0.1401
      3 C         -26.5455   -0.8762   28.8500 C.ar    1  UNL1       -0.0016
      4 C         -25.8041   -1.0324   30.0571 C.ar    1  UNL1       -0.0176
      5 C         -27.9437   -0.9869   31.2075 C.ar    1  UNL1        0.0293
      6 C         -26.5825   -1.0386   31.2231 C.ar    1  UNL1       -0.0016
      7 F         -29.9086   -0.7397   29.8642 F       1  UNL1       -0.2042
      8 C         -24.3767   -1.0979   30.0689 C.3     1  UNL1        0.0526
      9 C         -23.5963   -0.5404   29.1043 C.ar    1  UNL1       -0.0181
     10 C         -22.1327   -0.5733   29.2662 C.ar    1  UNL1       -0.0040
     11 C         -24.1221    0.2265   28.0697 C.ar    1  UNL1       -0.0082
     12 C         -23.2398    1.1151   27.3443 C.ar    1  UNL1       -0.0228
     13 C         -21.3170    0.2337   28.4712 C.ar    1  UNL1       -0.0006
     14 C         -23.7262    2.0107   26.3123 C.3     1  UNL1        0.0223
     15 C         -21.7998    1.0793   27.6054 C.ar    1  UNL1       -0.0043
     16 C         -23.6191    3.3576   26.4334 C.3     1  UNL1        0.0047
     17 C         -24.3663    1.3006   25.2574 C.3     1  UNL1        0.0047
@<TRIPOS>BOND
     1     2     7    1
     2     4     8    1
     3    12    14    1
     4    14    16    1
     5    14    17    1
     6     8     9    1
     7     9    10   ar
     8    10    13   ar
     9    13    15   ar
    10    15    12   ar
    11    12    11   ar
    12    11     9   ar
    13     1     2   ar
    14     2     5   ar
    15     5     6   ar
    16     6     4   ar
    17     4     3   ar
    18     3     1   ar
