@<TRIPOS>MOLECULE
No_933-gen_results/8p0m/2024-11-26-14-13-15/
 14 15 0 0 0
SMALL
GASTEIGER

@<TRIPOS>ATOM
      1 C         -28.0162   -0.8135   28.8779 C.ar    1  UNL1        0.1965
      2 C         -27.0636   -0.1189   28.6079 C.ar    1  UNL1        0.0390
      3 C         -27.0010    0.6913   27.4910 C.ar    1  UNL1        0.0040
      4 C         -28.1373    0.7363   26.6350 C.ar    1  UNL1        0.0116
      5 C         -29.2360    0.0765   27.0690 C.ar    1  UNL1        0.0609
      6 C         -29.2177   -0.6429   28.1747 C.ar    1  UNL1        0.0534
      7 O         -28.0326   -1.5744   30.0419 O.3     1  UNL1       -0.2865
      8 CL        -30.6143    0.1621   26.0733 Cl      1  UNL1       -0.0821
      9 C         -25.6993   -0.1972   29.4279 C.ar    1  UNL1        0.0031
     10 C         -25.2702    0.4111   30.1768 C.ar    1  UNL1        0.0001
     11 C         -24.2173    0.7359   30.6496 C.ar    1  UNL1        0.0000
     12 C         -23.1544    0.4597   30.2256 C.ar    1  UNL1        0.0000
     13 C         -23.2337   -0.6055   29.1631 C.ar    1  UNL1        0.0000
     14 C         -24.3849   -0.4496   28.2609 C.ar    1  UNL1        0.0001
@<TRIPOS>BOND
     1     1     7    1
     2     5     8    1
     3     2     9    1
     4     1     2   ar
     5     2     3   ar
     6     3     4   ar
     7     4     5   ar
     8     5     6   ar
     9     6     1   ar
    10     9    10   ar
    11    10    11   ar
    12    11    12   ar
    13    12    13   ar
    14    13    14   ar
    15    14     9   ar
