@<TRIPOS>MOLECULE
No_936-gen_results/8p0m/2024-11-26-14-13-15/
 13 14 0 0 0
SMALL
GASTEIGER

@<TRIPOS>ATOM
      1 C         -28.0162   -0.8135   28.8779 C.ar    1  UNL1        0.0022
      2 C         -28.4690   -0.7850   29.8287 C.ar    1  UNL1        0.0001
      3 C         -26.5042   -0.7777   28.8766 C.ar    1  UNL1        0.0001
      4 C         -25.7622   -0.0022   27.9705 C.ar    1  UNL1        0.0000
      5 C         -29.9993   -0.7599   29.8953 C.ar    1  UNL1        0.0023
      6 C         -24.9658    0.7968   28.2217 C.ar    1  UNL1        0.0000
      7 C         -23.9358    0.5547   29.2899 C.ar    1  UNL1        0.0000
      8 C         -24.4572   -0.4513   30.2247 C.ar    1  UNL1        0.0000
      9 C         -25.7142   -1.0578   30.0962 C.ar    1  UNL1        0.0000
     10 C         -30.5689   -0.5881   28.6854 C.ar    1  UNL1        0.0296
     11 C         -29.8646   -0.3510   27.5829 C.ar    1  UNL1        0.1401
     12 C         -28.5182   -0.3159   27.6740 C.ar    1  UNL1        0.0296
     13 F         -30.4140   -0.0544   26.4105 F       1  UNL1       -0.2042
@<TRIPOS>BOND
     1     1     3    1
     2    11    13    1
     3     3     4   ar
     4     4     6   ar
     5     6     7   ar
     6     7     8   ar
     7     8     9   ar
     8     9     3   ar
     9     1     2   ar
    10     2     5   ar
    11     5    10   ar
    12    10    11   ar
    13    11    12   ar
    14    12     1   ar
