@<TRIPOS>MOLECULE
No_937-gen_results/8p0m/2024-11-26-14-13-15/
 13 13 0 0 0
SMALL
GASTEIGER

@<TRIPOS>ATOM
      1 C         -28.0162   -0.8135   28.8779 C.3     1  UNL1        0.0327
      2 C         -27.0636   -0.1189   28.6079 C.ar    1  UNL1       -0.0218
      3 C         -26.9716    0.7139   27.5060 C.ar    1  UNL1       -0.0041
      4 C         -25.8206    1.4910   27.1160 C.ar    1  UNL1        0.0043
      5 C         -24.6562    1.4242   27.9180 C.ar    1  UNL1        0.0566
      6 C         -24.6847    0.5901   29.0659 C.ar    1  UNL1        0.0043
      7 C         -25.8099   -0.1265   29.3338 C.ar    1  UNL1       -0.0041
      8 C         -28.6943   -0.4734   30.1587 C.3     1  UNL1        0.0536
      9 C         -29.7865   -1.3251   30.6371 C.2     1  UNL1        0.0960
     10 C         -23.4524    2.1889   27.6083 C.2     1  UNL1        0.2842
     11 N         -22.4948    2.1957   28.5198 N.am    1  UNL1       -0.0837
     12 O         -23.3146    2.6940   26.4514 O.2     1  UNL1       -0.2667
     13 N         -30.0356   -2.2645   30.0579 N.2     1  UNL1       -0.1514
@<TRIPOS>BOND
     1     1     8    1
     2     8     9    1
     3     5    10    1
     4    10    11   am
     5    10    12    2
     6     9    13    2
     7     1     2    1
     8     2     3   ar
     9     3     4   ar
    10     4     5   ar
    11     5     6   ar
    12     6     7   ar
    13     7     2   ar
