@<TRIPOS>MOLECULE
No_938-gen_results/8p0m/2024-11-26-14-13-15/
 19 21 0 0 0
SMALL
GASTEIGER

@<TRIPOS>ATOM
      1 C         -28.0162   -0.8135   28.8779 C.ar    1  UNL1       -0.0000
      2 C         -28.4690   -0.7850   29.8287 C.ar    1  UNL1       -0.0000
      3 C         -27.0871    0.2903   28.6377 C.ar    1  UNL1       -0.0003
      4 C         -26.8317    1.2487   29.5869 C.ar    1  UNL1       -0.0000
      5 C         -28.3914    0.0801   31.0065 C.ar    1  UNL1       -0.0000
      6 C         -27.4940    1.1521   30.7841 C.ar    1  UNL1       -0.0000
      7 C         -26.3109    0.3918   27.3640 C.ar    1  UNL1       -0.0040
      8 C         -24.9686    0.2477   27.4806 C.ar    1  UNL1       -0.0218
      9 C         -26.9237    0.5760   26.1378 C.ar    1  UNL1       -0.0003
     10 C         -28.2756    0.6826   25.9801 C.ar    1  UNL1       -0.0000
     11 C         -28.7840    0.7118   24.6873 C.ar    1  UNL1       -0.0000
     12 C         -30.1765    0.8329   24.4848 C.ar    1  UNL1       -0.0000
     13 C         -30.9981    0.8550   25.5515 C.ar    1  UNL1        0.0000
     14 C         -30.5177    0.8330   26.8554 C.ar    1  UNL1       -0.0000
     15 C         -29.2028    0.7841   27.0710 C.ar    1  UNL1       -0.0000
     16 C         -26.0630    1.3808   25.3370 C.ar    1  UNL1       -0.0000
     17 C         -24.3455   -0.4651   28.5468 C.3     1  UNL1        0.0310
     18 C         -24.0932    0.6700   26.4251 C.ar    1  UNL1       -0.0043
     19 C         -24.7071    1.1882   25.3043 C.ar    1  UNL1       -0.0003
@<TRIPOS>BOND
     1     3     7    1
     2     9    10    1
     3     8    17    1
     4     7     8   ar
     5     8    18   ar
     6    18    19   ar
     7    19    16   ar
     8    16     9   ar
     9     9     7   ar
    10     1     2   ar
    11     2     5   ar
    12     5     6   ar
    13     6     4   ar
    14     4     3   ar
    15     3     1   ar
    16    10    11   ar
    17    11    12   ar
    18    12    13   ar
    19    13    14   ar
    20    14    15   ar
    21    15    10   ar
