@<TRIPOS>MOLECULE
No_939-gen_results/8p0m/2024-11-26-14-13-15/
 13 14 0 0 0
SMALL
GASTEIGER

@<TRIPOS>ATOM
      1 C         -28.0162   -0.8135   28.8779 C.ar    1  UNL1        0.0114
      2 C         -27.0636   -0.1189   28.6079 C.ar    1  UNL1        0.0009
      3 C         -25.7647   -0.3897   29.0360 C.ar    1  UNL1        0.0001
      4 C         -25.5296   -1.5302   29.9014 C.ar    1  UNL1        0.0009
      5 C         -26.6577   -2.2915   30.2035 C.ar    1  UNL1        0.0114
      6 C         -27.8548   -1.9555   29.7630 C.ar    1  UNL1        0.0577
      7 C         -24.5349    0.4128   28.7431 C.ar    1  UNL1        0.0000
      8 C         -24.4835    1.2431   27.7398 C.ar    1  UNL1        0.0000
      9 C         -23.4717    1.9016   27.3845 C.ar    1  UNL1        0.0000
     10 C         -22.1793    1.7156   27.9288 C.ar    1  UNL1        0.0000
     11 C         -23.2884    0.1334   29.4280 C.ar    1  UNL1        0.0000
     12 C         -22.1044    0.8262   29.0047 C.ar    1  UNL1        0.0000
     13 CL        -29.2002   -2.9207   30.2390 Cl      1  UNL1       -0.0822
@<TRIPOS>BOND
     1     3     7    1
     2     6    13    1
     3     7     8   ar
     4     8     9   ar
     5     9    10   ar
     6    10    12   ar
     7    12    11   ar
     8    11     7   ar
     9     1     2   ar
    10     2     3   ar
    11     3     4   ar
    12     4     5   ar
    13     5     6   ar
    14     6     1   ar
