@<TRIPOS>MOLECULE
No_94-gen_results/8p0m/2024-11-26-14-13-15/
 23 26 0 0 0
SMALL
GASTEIGER

@<TRIPOS>ATOM
      1 O         -28.1229   -1.3353   28.4874 O.2     1  UNL1       -0.2745
      2 C         -27.4806   -0.4044   28.7094 C.2     1  UNL1        0.2296
      3 C         -26.3804   -0.0867   27.9394 C.3     1  UNL1        0.0897
      4 N         -27.8993    0.6459   29.6321 N.am    1  UNL1       -0.2586
      5 C         -25.3739    0.7466   28.5670 C.3     1  UNL1        0.0306
      6 C         -25.8508    1.8817   29.3165 C.3     1  UNL1        0.0245
      7 C         -26.9703    1.5334   30.1657 C.3     1  UNL1        0.0985
      8 C         -29.0967    0.3419   30.3283 C.ar    1  UNL1        0.0538
      9 C         -30.2315    0.7510   29.6182 C.ar    1  UNL1        0.0149
     10 C         -31.3038   -0.0220   29.6553 C.ar    1  UNL1        0.0013
     11 C         -31.3567   -1.0829   30.5488 C.ar    1  UNL1        0.0001
     12 C         -30.2222   -1.5407   31.2354 C.ar    1  UNL1        0.0013
     13 C         -29.0278   -0.7383   31.2113 C.ar    1  UNL1        0.0149
     14 C         -24.3537   -0.0346   29.3878 C.ar    1  UNL1       -0.0031
     15 C         -24.2246   -1.1297   29.6842 C.ar    1  UNL1       -0.0011
     16 C         -23.0901   -1.7711   30.3976 C.ar    1  UNL1        0.0204
     17 C         -22.1622   -0.8020   30.8506 C.ar    1  UNL1        0.0989
     18 C         -23.1806    0.9467   29.8877 C.ar    1  UNL1        0.0946
     19 N         -22.2212    0.4899   30.4008 N.ar    1  UNL1       -0.2426
     20 C         -24.6376    1.5412   27.3640 C.3     1  UNL1        0.0046
     21 C         -24.4858    2.7787   27.2907 C.3     1  UNL1        0.0003
     22 C         -25.1969    3.7281   28.1293 C.3     1  UNL1        0.0001
     23 C         -25.7258    3.2790   29.2534 C.3     1  UNL1        0.0020
@<TRIPOS>BOND
     1     1     2    2
     2     2     3    1
     3     2     4   am
     4     3     5    1
     5     5     6    1
     6     4     7    1
     7     6     7    1
     8     4     8    1
     9     5    14    1
    10     5    20    1
    11    21    22    1
    12     6    23    1
    13    22    23    1
    14    21    20    1
    15    14    15   ar
    16    15    16   ar
    17    16    17   ar
    18    17    19   ar
    19    19    18   ar
    20    18    14   ar
    21     8     9   ar
    22     9    10   ar
    23    10    11   ar
    24    11    12   ar
    25    12    13   ar
    26    13     8   ar
