@<TRIPOS>MOLECULE
No_940-gen_results/8p0m/2024-11-26-14-13-15/
 16 18 0 0 0
SMALL
GASTEIGER

@<TRIPOS>ATOM
      1 C         -28.0162   -0.8135   28.8779 C.ar    1  UNL1       -0.0000
      2 C         -28.4690   -0.7850   29.8287 C.ar    1  UNL1       -0.0000
      3 C         -27.1356    0.2359   28.5352 C.ar    1  UNL1       -0.0000
      4 C         -26.3351    0.2900   27.2835 C.ar    1  UNL1       -0.0003
      5 C         -28.3692    0.1957   30.9236 C.ar    1  UNL1        0.0000
      6 C         -27.5158    1.2655   30.6540 C.ar    1  UNL1        0.0000
      7 C         -26.8411    1.2942   29.4761 C.ar    1  UNL1        0.0000
      8 C         -25.3615    0.7752   26.9671 C.ar    1  UNL1       -0.0035
      9 C         -24.8305    1.7671   28.0166 C.ar    1  UNL1        0.0059
     10 C         -25.5668    2.0017   29.2019 C.ar    1  UNL1        0.0005
     11 C         -23.6197    2.6089   27.6649 C.ar    1  UNL1        0.0345
     12 BR        -22.8788    3.0132   28.8687 Br      1  UNL1       -0.0490
     13 C         -23.1882    2.6115   26.3045 C.ar    1  UNL1        0.0064
     14 C         -23.8286    1.8223   25.2533 C.ar    1  UNL1       -0.0038
     15 C         -24.8527    0.9927   25.6261 C.ar    1  UNL1       -0.0218
     16 C         -25.3592    0.1819   24.5999 C.3     1  UNL1        0.0310
@<TRIPOS>BOND
     1    11    12    1
     2    15    16    1
     3     1     2   ar
     4     2     5   ar
     5     5     6   ar
     6     6     7   ar
     7     3     1   ar
     8     9    11   ar
     9    11    13   ar
    10    13    14   ar
    11    14    15   ar
    12    15     8   ar
    13     3     4   ar
    14     4     8   ar
    15     8     9   ar
    16     9    10   ar
    17    10     7   ar
    18     7     3   ar
