@<TRIPOS>MOLECULE
No_941-gen_results/8p0m/2024-11-26-14-13-15/
 14 14 0 0 0
SMALL
GASTEIGER

@<TRIPOS>ATOM
      1 C         -28.0162   -0.8135   28.8779 C.ar    1  UNL1       -0.0003
      2 C         -28.4690   -0.7850   29.8287 C.ar    1  UNL1       -0.0000
      3 C         -26.5455   -0.8762   28.8500 C.ar    1  UNL1       -0.0039
      4 C         -25.8041   -1.0324   30.0571 C.ar    1  UNL1       -0.0177
      5 C         -26.5373   -1.0386   31.2171 C.ar    1  UNL1       -0.0039
      6 C         -27.8843   -0.9532   31.1862 C.ar    1  UNL1       -0.0003
      7 C         -24.3655   -1.1134   30.0483 C.3     1  UNL1        0.0539
      8 C         -23.6925    0.1188   29.9185 C.2     1  UNL1       -0.0008
      9 C         -23.9863    1.2743   30.4522 C.2     1  UNL1        0.0947
     10 N         -25.0556    1.3753   31.2318 N.2     1  UNL1       -0.2427
     11 C         -25.3589    2.6722   31.7775 C.2     1  UNL1        0.0985
     12 C         -26.3231    2.7877   32.8141 C.2     1  UNL1        0.0161
     13 C         -27.0574    1.7989   33.2344 C.2     1  UNL1       -0.0242
     14 C         -26.5275    0.5621   33.1091 C.3     1  UNL1        0.0307
@<TRIPOS>BOND
     1     4     7    1
     2     7     8    1
     3     8     9    2
     4     9    10    1
     5    10    11    2
     6    11    12    1
     7    12    13    2
     8    13    14    1
     9     1     2   ar
    10     2     6   ar
    11     6     5   ar
    12     5     4   ar
    13     4     3   ar
    14     3     1   ar
