@<TRIPOS>MOLECULE
No_942-gen_results/8p0m/2024-11-26-14-13-15/
 18 19 0 0 0
SMALL
GASTEIGER

@<TRIPOS>ATOM
      1 C         -28.0162   -0.8135   28.8779 C.ar    1  UNL1       -0.0023
      2 C         -27.0636   -0.1189   28.6079 C.ar    1  UNL1       -0.0008
      3 C         -26.9716    0.7139   27.5060 C.ar    1  UNL1       -0.0018
      4 C         -28.1053    0.7744   26.6421 C.ar    1  UNL1        0.0063
      5 C         -29.2041    0.1179   27.0477 C.ar    1  UNL1        0.0798
      6 C         -30.3488    0.2568   26.2203 C.2     1  UNL1        0.3878
      7 C         -29.1817   -0.6758   28.1173 C.ar    1  UNL1        0.0063
      8 O         -30.3285   -0.0553   25.0162 O.co2   1  UNL1       -0.2406
      9 O         -31.5408    0.4942   26.7257 O.co2   1  UNL1       -0.2406
     10 C         -25.6689    1.4187   27.1340 C.2     1  UNL1        0.0077
     11 C         -24.5290    1.0495   27.7204 C.2     1  UNL1        0.0972
     12 C         -24.2813    0.1499   28.7288 C.2     1  UNL1        0.0052
     13 C         -24.9289   -0.4352   29.2653 C.2     1  UNL1       -0.0029
     14 C         -25.8999   -0.5635   29.2311 C.3     1  UNL1        0.1360
     15 C         -23.3076    1.8762   27.2209 C.2     1  UNL1        0.4766
     16 N         -22.1006    1.5716   27.7631 N.pl3   1  UNL1        0.2047
     17 N         -23.4049    2.8425   26.3374 N.pl3   1  UNL1        0.2047
     18 N         -26.2303   -1.6467   30.0445 N.3     1  UNL1       -0.1233
@<TRIPOS>BOND
     1     5     6    1
     2     6     8   ar
     3     6     9   ar
     4     3    10    1
     5    10    11    2
     6    11    12    1
     7    12    13    2
     8     2    14    1
     9    13    14    1
    10    11    15    1
    11    15    16    2
    12    15    17    1
    13    14    18    1
    14     1     2   ar
    15     2     3   ar
    16     3     4   ar
    17     4     5   ar
    18     5     7   ar
    19     7     1   ar
