@<TRIPOS>MOLECULE
No_943-gen_results/8p0m/2024-11-26-14-13-15/
 21 22 0 0 0
SMALL
GASTEIGER

@<TRIPOS>ATOM
      1 C         -28.0162   -0.8135   28.8779 C.3     1  UNL1        0.1211
      2 C         -27.0636   -0.1189   28.6079 C.ar    1  UNL1       -0.0059
      3 C         -26.9716    0.7139   27.5060 C.ar    1  UNL1       -0.0030
      4 C         -25.8205    1.4909   27.1160 C.ar    1  UNL1       -0.0007
      5 C         -24.6562    1.4242   27.9180 C.ar    1  UNL1        0.0255
      6 C         -24.6847    0.5901   29.0659 C.ar    1  UNL1       -0.0007
      7 C         -25.8099   -0.1266   29.3338 C.ar    1  UNL1       -0.0032
      8 CL        -28.7497   -0.6995   30.0375 Cl      1  UNL1       -0.1085
      9 C         -23.4625    2.1949   27.6092 C.3     1  UNL1        0.2619
     10 CL        -22.4203    2.4615   28.7918 Cl      1  UNL1       -0.0719
     11 F         -23.1912    2.6152   26.4672 F       1  UNL1       -0.2143
     12 C         -28.0651    0.7907   26.5464 C.ar    1  UNL1       -0.0003
     13 C         -29.3144    1.2180   27.0165 C.ar    1  UNL1       -0.0001
     14 C         -30.3826    1.2766   26.1441 C.ar    1  UNL1        0.0039
     15 C         -27.9213    0.4663   25.2181 C.ar    1  UNL1       -0.0001
     16 C         -28.9537    0.4933   24.3293 C.ar    1  UNL1        0.0039
     17 C         -30.1861    0.9831   24.7643 C.ar    1  UNL1        0.0714
     18 C         -31.3079    1.0580   23.8427 C.3     1  UNL1        0.4186
     19 F         -32.3745    1.1605   24.5398 F       1  UNL1       -0.1659
     20 F         -31.1512    2.2355   23.0859 F       1  UNL1       -0.1659
     21 F         -31.3196    0.0897   22.9700 F       1  UNL1       -0.1659
@<TRIPOS>BOND
     1     1     8    1
     2     5     9    1
     3     9    10    1
     4     9    11    1
     5     3    12    1
     6    17    18    1
     7    18    19    1
     8    18    20    1
     9    18    21    1
    10     1     2    1
    11    12    13   ar
    12    13    14   ar
    13    14    17   ar
    14    17    16   ar
    15    16    15   ar
    16    15    12   ar
    17     2     3   ar
    18     3     4   ar
    19     4     5   ar
    20     5     6   ar
    21     6     7   ar
    22     7     2   ar
