@<TRIPOS>MOLECULE
No_944-gen_results/8p0m/2024-11-26-14-13-15/
 17 18 0 0 0
SMALL
GASTEIGER

@<TRIPOS>ATOM
      1 C         -28.0162   -0.8135   28.8779 C.ar    1  UNL1        0.0723
      2 C         -27.0636   -0.1189   28.6079 C.ar    1  UNL1        0.0054
      3 C         -26.9716    0.7139   27.5060 C.ar    1  UNL1        0.0184
      4 C         -28.1053    0.7744   26.6421 C.ar    1  UNL1        0.0129
      5 C         -29.2008    0.1044   27.0527 C.ar    1  UNL1        0.0577
      6 C         -28.0219   -1.5899   30.0879 C.3     1  UNL1        0.4186
      7 C         -29.1640   -0.6394   28.1484 C.ar    1  UNL1        0.0152
      8 F         -27.1432   -2.4848   30.1529 F       1  UNL1       -0.1659
      9 F         -29.2320   -2.2818   30.1926 F       1  UNL1       -0.1659
     10 F         -27.9407   -0.9114   31.2448 F       1  UNL1       -0.1659
     11 CL        -30.5777    0.2060   26.0379 Cl      1  UNL1       -0.0823
     12 C         -25.6913    1.4152   27.1370 C.ar    1  UNL1        0.0813
     13 N         -25.4357    2.0040   26.1463 N.ar    1  UNL1       -0.2438
     14 C         -24.1469    2.4959   25.8181 C.ar    1  UNL1        0.0988
     15 C         -23.1276    2.2737   26.8784 C.ar    1  UNL1        0.0207
     16 C         -24.4456    1.2363   27.9821 C.ar    1  UNL1        0.0191
     17 C         -23.3421    1.7331   27.8450 C.ar    1  UNL1        0.0031
@<TRIPOS>BOND
     1     1     6    1
     2     6     8    1
     3     6     9    1
     4     6    10    1
     5     5    11    1
     6     3    12    1
     7    12    13   ar
     8    13    14   ar
     9    14    15   ar
    10    15    17   ar
    11    17    16   ar
    12    16    12   ar
    13     1     2   ar
    14     2     3   ar
    15     3     4   ar
    16     4     5   ar
    17     5     7   ar
    18     7     1   ar
