@<TRIPOS>MOLECULE
No_945-gen_results/8p0m/2024-11-26-14-13-15/
 13 14 0 0 0
SMALL
GASTEIGER

@<TRIPOS>ATOM
      1 C         -28.0162   -0.8135   28.8779 C.ar    1  UNL1       -0.0003
      2 C         -28.4690   -0.7850   29.8287 C.ar    1  UNL1       -0.0000
      3 C         -26.6028   -1.0596   28.5384 C.ar    1  UNL1       -0.0039
      4 C         -25.7969   -1.4490   29.7273 C.ar    1  UNL1       -0.0178
      5 C         -26.4284   -1.5407   30.9833 C.ar    1  UNL1       -0.0039
      6 C         -27.7563   -1.2444   31.0750 C.ar    1  UNL1       -0.0003
      7 C         -24.3921   -1.7399   29.5644 C.3     1  UNL1        0.0526
      8 C         -23.4096   -0.6673   29.6027 C.ar    1  UNL1       -0.0178
      9 C         -22.3093   -0.6666   28.7890 C.ar    1  UNL1       -0.0039
     10 C         -23.7137    0.4411   30.5180 C.ar    1  UNL1       -0.0039
     11 C         -21.4490    0.4587   28.7380 C.ar    1  UNL1       -0.0003
     12 C         -22.9072    1.6790   30.3314 C.ar    1  UNL1       -0.0003
     13 C         -21.7706    1.6242   29.5096 C.ar    1  UNL1       -0.0000
@<TRIPOS>BOND
     1     4     7    1
     2     7     8    1
     3     8     9   ar
     4     9    11   ar
     5    11    13   ar
     6    13    12   ar
     7    12    10   ar
     8    10     8   ar
     9     1     2   ar
    10     2     6   ar
    11     6     5   ar
    12     5     4   ar
    13     4     3   ar
    14     3     1   ar
