@<TRIPOS>MOLECULE
No_946-gen_results/8p0m/2024-11-26-14-13-15/
 18 19 0 0 0
SMALL
GASTEIGER

@<TRIPOS>ATOM
      1 CL        -28.1493   -0.8198   28.9079 Cl      1  UNL1       -0.0822
      2 C         -26.9116   -0.0797   28.9452 C.ar    1  UNL1        0.0599
      3 C         -26.0490   -0.0718   27.8591 C.ar    1  UNL1        0.0228
      4 C         -25.2289    1.0128   27.6200 C.ar    1  UNL1        0.0585
      5 C         -24.7459    1.8002   28.6916 C.ar    1  UNL1        0.0115
      6 C         -25.4578    1.6617   29.8627 C.ar    1  UNL1        0.0032
      7 C         -26.4794    0.7961   30.0040 C.ar    1  UNL1        0.0283
      8 CL        -24.2162    1.0872   26.1981 Cl      1  UNL1       -0.0822
      9 C         -27.2221    0.7617   31.3151 C.ar    1  UNL1        0.0820
     10 N         -27.4339   -0.0610   31.9160 N.ar    1  UNL1       -0.2414
     11 C         -28.2147   -0.1609   33.0591 C.ar    1  UNL1        0.1526
     12 C         -27.7616    2.0893   31.6918 C.ar    1  UNL1        0.0192
     13 C         -28.4912    2.2013   32.8562 C.ar    1  UNL1        0.0030
     14 C         -28.4636   -1.4268   33.7776 C.3     1  UNL1        0.4348
     15 C         -28.6903    0.9869   33.5854 C.ar    1  UNL1        0.0231
     16 F         -29.8655   -1.5594   33.9940 F       1  UNL1       -0.1644
     17 F         -27.8129   -1.4313   34.9162 F       1  UNL1       -0.1644
     18 F         -28.1175   -2.4461   32.9967 F       1  UNL1       -0.1644
@<TRIPOS>BOND
     1     1     2    1
     2     4     8    1
     3     7     9    1
     4    11    14    1
     5    14    16    1
     6    14    17    1
     7    14    18    1
     8     2     3   ar
     9     3     4   ar
    10     4     5   ar
    11     5     6   ar
    12     6     7   ar
    13     7     2   ar
    14     9    10   ar
    15    10    11   ar
    16    11    15   ar
    17    15    13   ar
    18    13    12   ar
    19    12     9   ar
