@<TRIPOS>MOLECULE
No_947-gen_results/8p0m/2024-11-26-14-13-15/
 24 25 0 0 0
SMALL
GASTEIGER

@<TRIPOS>ATOM
      1 C         -28.0162   -0.8135   28.8779 C.ar    1  UNL1        0.0001
      2 C         -28.4690   -0.7850   29.8287 C.ar    1  UNL1        0.0000
      3 C         -28.1816    0.4277   28.1134 C.ar    1  UNL1        0.0000
      4 C         -27.4498    0.6435   26.8500 C.ar    1  UNL1        0.0000
      5 C         -27.8596    1.4573   25.9076 C.ar    1  UNL1        0.0000
      6 C         -28.3080   -1.9885   30.8635 C.ar    1  UNL1        0.0001
      7 C         -27.5277   -3.0190   30.3596 C.ar    1  UNL1        0.0046
      8 C         -26.7389   -2.8481   29.2719 C.ar    1  UNL1        0.0554
      9 C         -26.9091   -1.6576   28.5337 C.ar    1  UNL1        0.0046
     10 C         -28.9559    2.3522   26.0931 C.ar    1  UNL1        0.0000
     11 C         -29.6155    2.2334   27.3096 C.ar    1  UNL1        0.0000
     12 C         -29.2776    1.2382   28.2547 C.ar    1  UNL1        0.0000
     13 C         -25.6894   -3.8220   28.9940 C.2     1  UNL1        0.2709
     14 N         -24.3690   -3.3924   28.8018 N.am    1  UNL1       -0.1474
     15 O         -25.8454   -5.0237   29.1792 O.2     1  UNL1       -0.2679
     16 C         -23.9013   -2.0640   28.8057 C.2     1  UNL1        0.2146
     17 C         -22.7148   -1.7760   29.5427 C.2     1  UNL1        0.0471
     18 C         -22.2071   -0.4390   29.2871 C.2     1  UNL1        0.0037
     19 C         -22.7984    0.4901   28.4440 C.2     1  UNL1        0.0001
     20 F         -24.3754   -1.2237   28.0233 F       1  UNL1       -0.1859
     21 C         -22.2360    1.8498   28.2391 C.2     1  UNL1        0.0000
     22 C         -23.0566    2.6170   27.4379 C.2     1  UNL1        0.0000
     23 C         -24.3419    2.0567   26.9421 C.2     1  UNL1        0.0000
     24 C         -24.6733    0.7861   27.1901 C.2     1  UNL1        0.0000
@<TRIPOS>BOND
     1     8    13    1
     2    13    14   am
     3    13    15    2
     4    14    16    1
     5    16    17    2
     6    17    18    1
     7    18    19    2
     8    16    20    1
     9    19    21    1
    10    21    22    2
    11    22    23    1
    12    23    24    2
    13     3     1    1
    14     3     4   ar
    15     4     5   ar
    16     5    10   ar
    17    10    11   ar
    18    11    12   ar
    19    12     3   ar
    20     1     2   ar
    21     2     6   ar
    22     6     7   ar
    23     7     8   ar
    24     8     9   ar
    25     9     1   ar
