@<TRIPOS>MOLECULE
No_948-gen_results/8p0m/2024-11-26-14-13-15/
 15 16 0 0 0
SMALL
GASTEIGER

@<TRIPOS>ATOM
      1 C         -28.0162   -0.8135   28.8779 C.ar    1  UNL1        0.0943
      2 C         -27.0636   -0.1189   28.6079 C.ar    1  UNL1       -0.0070
      3 C         -26.8756    1.1325   28.9134 C.ar    1  UNL1       -0.0228
      4 C         -25.6883    1.9515   28.5672 C.3     1  UNL1        0.0303
      5 C         -24.6394    1.2834   27.8753 C.3     1  UNL1        0.0283
      6 C         -24.8068   -0.0513   27.6040 C.3     1  UNL1        0.0093
      7 C         -25.9020   -0.7670   27.9511 C.3     1  UNL1        0.0279
      8 N         -28.7202   -0.6024   30.0461 N.ar    1  UNL1       -0.2427
      9 C         -23.6178    2.1689   27.4249 C.2     1  UNL1        0.0214
     10 C         -23.6625    2.8097   26.3142 C.2     1  UNL1       -0.0036
     11 C         -22.2638    1.9154   28.0012 C.3     1  UNL1        0.3371
     12 C         -28.4505    0.0893   30.8118 C.ar    1  UNL1        0.0985
     13 C         -27.5888    1.2772   30.5182 C.ar    1  UNL1        0.0161
     14 F         -22.1637    1.4806   29.1660 F       1  UNL1       -0.1936
     15 F         -21.6216    1.0224   27.1495 F       1  UNL1       -0.1936
@<TRIPOS>BOND
     1     3     4    1
     2     4     5    1
     3     5     6    1
     4     2     7    1
     5     6     7    1
     6     5     9    1
     7     9    10    2
     8     9    11    1
     9    11    14    1
    10    11    15    1
    11     1     2   ar
    12     2     3   ar
    13     3    13   ar
    14    13    12   ar
    15    12     8   ar
    16     8     1   ar
