@<TRIPOS>MOLECULE
No_949-gen_results/8p0m/2024-11-26-14-13-15/
 12 13 0 0 0
SMALL
GASTEIGER

@<TRIPOS>ATOM
      1 C         -28.0162   -0.8135   28.8779 C.ar    1  UNL1        0.0000
      2 C         -27.0636   -0.1189   28.6079 C.ar    1  UNL1        0.0000
      3 C         -26.9287    1.1713   29.0083 C.ar    1  UNL1        0.0000
      4 C         -25.7702    2.0341   28.6884 C.ar    1  UNL1        0.0000
      5 C         -24.7141    1.4431   27.9188 C.ar    1  UNL1        0.0000
      6 C         -23.5566    2.1673   27.5933 C.ar    1  UNL1        0.0000
      7 C         -29.0912   -0.2748   29.7317 C.ar    1  UNL1        0.0000
      8 C         -29.0503    0.9872   30.1426 C.ar    1  UNL1        0.0000
      9 C         -27.9501    1.7660   29.8118 C.ar    1  UNL1        0.0000
     10 C         -26.1254    3.3688   27.9959 C.ar    1  UNL1        0.0000
     11 C         -23.8939    3.4396   26.9576 C.ar    1  UNL1        0.0000
     12 C         -24.9605    4.2024   27.5921 C.ar    1  UNL1        0.0000
@<TRIPOS>BOND
     1     3     4    1
     2     1     2   ar
     3     2     3   ar
     4     3     9   ar
     5     9     8   ar
     6     8     7   ar
     7     7     1   ar
     8     4     5   ar
     9     5     6   ar
    10     6    11   ar
    11    11    12   ar
    12    12    10   ar
    13    10     4   ar
