@<TRIPOS>MOLECULE
No_95-gen_results/8p0m/2024-11-26-14-13-15/
 15 16 0 0 0
SMALL
GASTEIGER

@<TRIPOS>ATOM
      1 C         -28.0162   -0.8135   28.8779 C.2     1  UNL1        0.2690
      2 C         -27.0636   -0.1189   28.6079 C.ar    1  UNL1        0.0554
      3 C         -27.0010    0.6913   27.4910 C.ar    1  UNL1        0.0046
      4 C         -25.8548    1.4825   27.0830 C.ar    1  UNL1        0.0001
      5 C         -24.6901    1.4526   27.8807 C.ar    1  UNL1        0.0000
      6 C         -24.7379    0.6010   29.0416 C.ar    1  UNL1        0.0001
      7 C         -25.8234   -0.1688   29.3887 C.ar    1  UNL1        0.0046
      8 N         -29.2075   -0.1514   29.0660 N.am    1  UNL1       -0.1754
      9 C         -29.7474    0.5548   28.4314 C.ar    1  UNL1        0.0737
     10 C         -30.5112    0.4543   27.7164 C.ar    1  UNL1        0.0166
     11 C         -31.1131    1.4012   26.7379 C.ar    1  UNL1        0.0013
     12 C         -30.6078    2.7189   26.9114 C.ar    1  UNL1        0.0001
     13 C         -29.6330    3.0002   27.7694 C.ar    1  UNL1        0.0013
     14 C         -29.1505    2.0010   28.5175 C.ar    1  UNL1        0.0166
     15 O         -27.9097   -1.9373   29.4154 O.2     1  UNL1       -0.2680
@<TRIPOS>BOND
     1     1     2    1
     2     1     8   am
     3     1    15    2
     4     8     9    1
     5     2     3   ar
     6     3     4   ar
     7     4     5   ar
     8     5     6   ar
     9     6     7   ar
    10     7     2   ar
    11     9    10   ar
    12    10    11   ar
    13    11    12   ar
    14    12    13   ar
    15    13    14   ar
    16    14     9   ar
