@<TRIPOS>MOLECULE
No_950-gen_results/8p0m/2024-11-26-14-13-15/
 12 12 0 0 0
SMALL
GASTEIGER

@<TRIPOS>ATOM
      1 C         -28.0162   -0.8135   28.8779 C.ar    1  UNL1        0.0000
      2 C         -28.4690   -0.7850   29.8287 C.ar    1  UNL1        0.0000
      3 C         -27.1356    0.2359   28.5352 C.ar    1  UNL1        0.0000
      4 C         -26.8745    1.2825   29.3982 C.ar    1  UNL1        0.0000
      5 C         -28.3613    0.1987   30.9244 C.ar    1  UNL1        0.0000
      6 C         -25.9723    2.3852   29.1040 C.2     1  UNL1        0.0000
      7 C         -27.5118    1.2316   30.6323 C.ar    1  UNL1        0.0000
      8 C         -25.2705    2.4577   28.0251 C.2     1  UNL1        0.0000
      9 C         -24.4034    1.5244   27.6157 C.2     1  UNL1        0.0000
     10 C         -23.7788    0.6410   28.5252 C.2     1  UNL1        0.0000
     11 C         -22.8765    0.3454   29.2092 C.2     1  UNL1        0.0000
     12 C         -21.6709    1.1354   29.1170 C.2     1  UNL1        0.0000
@<TRIPOS>BOND
     1     4     6    1
     2     6     8    2
     3     8     9    1
     4     9    10    2
     5    10    11    1
     6    11    12    2
     7     1     2   ar
     8     2     5   ar
     9     5     7   ar
    10     7     4   ar
    11     4     3   ar
    12     3     1   ar
