@<TRIPOS>MOLECULE
No_951-gen_results/8p0m/2024-11-26-14-13-15/
 35 38 0 0 0
SMALL
GASTEIGER

@<TRIPOS>ATOM
      1 C         -28.0162   -0.8135   28.8779 C.3     1  UNL1        0.1417
      2 C         -27.0636   -0.1190   28.6079 C.ar    1  UNL1       -0.0005
      3 C         -25.7923   -0.4302   29.0761 C.ar    1  UNL1       -0.0023
      4 C         -24.5456    0.3494   28.8225 C.ar    1  UNL1        0.0077
      5 C         -24.6586    1.4196   27.8878 C.ar    1  UNL1        0.0975
      6 C         -25.9471    1.6811   27.3792 C.ar    1  UNL1        0.0077
      7 C         -27.0439    0.9739   27.6871 C.ar    1  UNL1       -0.0021
      8 N         -28.6567   -0.5529   30.0960 N.pl3   1  UNL1       -0.1989
      9 C         -29.5646   -0.5256   30.5354 C.ar    1  UNL1        0.2391
     10 N         -30.7357   -0.6878   29.7876 N.ar    1  UNL1       -0.1970
     11 N         -29.8406   -0.4581   31.9414 N.ar    1  UNL1       -0.1967
     12 C         -23.4620    2.1572   27.5794 C.2     1  UNL1        0.4766
     13 N         -22.2726    1.7569   28.0602 N.pl3   1  UNL1        0.2047
     14 N         -23.4191    2.7722   26.3646 N.pl3   1  UNL1        0.2047
     15 C         -32.0587   -0.6889   30.3246 C.ar    1  UNL1        0.1444
     16 C         -31.1189   -0.4329   32.4883 C.ar    1  UNL1        0.1450
     17 C         -32.1947   -0.5588   31.6584 C.ar    1  UNL1        0.0698
     18 N         -33.0394   -0.7864   29.4495 N.am    1  UNL1       -0.2267
     19 C         -32.9967   -0.0827   28.3395 C.3     1  UNL1        0.1031
     20 C         -33.9291   -0.3755   27.3202 C.3     1  UNL1        0.0455
     21 C         -34.0486   -1.6955   29.5946 C.2     1  UNL1        0.3280
     22 O         -34.0675   -2.4432   30.6287 O.2     1  UNL1       -0.2504
     23 N         -35.0096   -1.8922   28.7274 N.am    1  UNL1       -0.1881
     24 C         -35.0329   -1.0652   27.5702 C.3     1  UNL1        0.1186
     25 C         -28.3272    1.3177   27.0737 C.ar    1  UNL1       -0.0002
     26 C         -28.3551    1.7210   25.8316 C.ar    1  UNL1       -0.0000
     27 C         -29.5762    2.0277   25.1389 C.ar    1  UNL1       -0.0000
     28 C         -30.7365    1.8653   25.8429 C.ar    1  UNL1       -0.0000
     29 C         -30.6551    1.4262   27.2324 C.ar    1  UNL1       -0.0000
     30 C         -29.4389    1.1612   27.8157 C.ar    1  UNL1       -0.0000
     31 N         -31.2612   -0.3033   33.8315 N.pl3   1  UNL1       -0.2485
     32 C         -30.2555   -0.0005   34.6350 C.2     1  UNL1        0.0709
     33 C         -32.5626   -0.4957   34.3715 C.2     1  UNL1        0.0709
     34 C         -32.8310   -0.8093   35.4103 C.2     1  UNL1        0.0178
     35 C         -30.5182   -0.2613   36.0779 C.2     1  UNL1        0.0178
@<TRIPOS>BOND
     1     1     2    1
     2     1     8    1
     3     5    12    1
     4    12    13    2
     5    12    14    1
     6    15    18    1
     7    18    19    1
     8    18    21   am
     9    21    22    2
    10    21    23   am
    11    20    24    1
    12     7    25    1
    13    16    31    1
    14    31    32    1
    15    31    33    1
    16    33    34    2
    17    32    35    2
    18     8     9    1
    19    19    20    1
    20    24    23    1
    21     9    10   ar
    22    10    15   ar
    23    15    17   ar
    24    17    16   ar
    25    16    11   ar
    26    11     9   ar
    27     2     3   ar
    28     3     4   ar
    29     4     5   ar
    30     5     6   ar
    31     6     7   ar
    32     7     2   ar
    33    25    26   ar
    34    26    27   ar
    35    27    28   ar
    36    28    29   ar
    37    29    30   ar
    38    30    25   ar
