@<TRIPOS>MOLECULE
No_952-gen_results/8p0m/2024-11-26-14-13-15/
 13 14 0 0 0
SMALL
GASTEIGER

@<TRIPOS>ATOM
      1 C         -28.0162   -0.8135   28.8779 C.ar    1  UNL1       -0.0026
      2 C         -28.4690   -0.7850   29.8287 C.ar    1  UNL1       -0.0003
      3 C         -27.1356    0.2359   28.5352 C.ar    1  UNL1       -0.0016
      4 C         -26.3351    0.2900   27.2835 C.3     1  UNL1        0.1512
      5 C         -28.3692    0.1957   30.9236 C.ar    1  UNL1       -0.0003
      6 C         -27.5158    1.2655   30.6540 C.ar    1  UNL1       -0.0041
      7 C         -26.8411    1.2942   29.4761 C.ar    1  UNL1       -0.0185
      8 N         -25.8079    1.4528   26.9401 N.2     1  UNL1       -0.2687
      9 C         -24.7027    1.9039   27.5729 C.2     1  UNL1        0.0678
     10 C         -24.8844    2.4702   28.9313 C.3     1  UNL1        0.0570
     11 C         -25.7556    2.2611   29.5643 C.3     1  UNL1        0.0712
     12 C         -25.8170    3.0376   30.9143 C.2     1  UNL1        0.1000
     13 N         -26.6241    2.7451   31.8099 N.2     1  UNL1       -0.1511
@<TRIPOS>BOND
     1     3     4    1
     2     4     8    1
     3     8     9    2
     4     9    10    1
     5     7    11    1
     6    10    11    1
     7    11    12    1
     8    12    13    2
     9     1     2   ar
    10     2     5   ar
    11     5     6   ar
    12     6     7   ar
    13     7     3   ar
    14     3     1   ar
