@<TRIPOS>MOLECULE
No_953-gen_results/8p0m/2024-11-26-14-13-15/
 14 15 0 0 0
SMALL
GASTEIGER

@<TRIPOS>ATOM
      1 C         -28.0162   -0.8135   28.8779 C.ar    1  UNL1        0.0115
      2 C         -28.4690   -0.7850   29.8287 C.ar    1  UNL1        0.0577
      3 C         -28.1816    0.4277   28.1134 C.ar    1  UNL1        0.0030
      4 C         -28.9841    1.4155   28.5154 C.ar    1  UNL1        0.0001
      5 C         -29.3802    0.1384   30.4612 C.ar    1  UNL1        0.0114
      6 C         -29.5415    1.2736   29.7242 C.ar    1  UNL1        0.0009
      7 C         -27.4586    0.4934   26.7701 C.ar    1  UNL1        0.0275
      8 C         -27.9200    0.7178   25.7507 C.ar    1  UNL1        0.1401
      9 C         -27.1380    0.6886   24.4860 C.ar    1  UNL1        0.0296
     10 C         -26.0297    0.2239   26.8233 C.ar    1  UNL1        0.0022
     11 C         -25.1759    0.2962   25.7593 C.ar    1  UNL1        0.0001
     12 C         -25.7788    0.4907   24.5616 C.ar    1  UNL1        0.0023
     13 F         -29.2194    0.8993   25.4857 F       1  UNL1       -0.2042
     14 CL        -28.2612   -2.2966   30.8738 Cl      1  UNL1       -0.0822
@<TRIPOS>BOND
     1     3     7    1
     2     8    13    1
     3     2    14    1
     4     1     2   ar
     5     2     5   ar
     6     5     6   ar
     7     6     4   ar
     8     4     3   ar
     9     3     1   ar
    10     7     8   ar
    11     8     9   ar
    12     9    12   ar
    13    12    11   ar
    14    11    10   ar
    15    10     7   ar
