@<TRIPOS>MOLECULE
No_954-gen_results/8p0m/2024-11-26-14-13-15/
 19 19 0 0 0
SMALL
GASTEIGER

@<TRIPOS>ATOM
      1 C         -28.0162   -0.8135   28.8779 C.ar    1  UNL1        0.0573
      2 C         -27.0636   -0.1189   28.6079 C.ar    1  UNL1        0.0044
      3 C         -26.9716    0.7139   27.5060 C.ar    1  UNL1       -0.0016
      4 C         -28.1053    0.7744   26.6421 C.ar    1  UNL1        0.0090
      5 C         -29.2008    0.1044   27.0527 C.ar    1  UNL1        0.1366
      6 C         -28.0219   -1.5899   30.0879 C.2     1  UNL1        0.2649
      7 C         -29.1640   -0.6394   28.1484 C.ar    1  UNL1        0.0339
      8 N         -28.8376   -1.8977   30.7662 N.am    1  UNL1       -0.1998
      9 O         -26.8304   -2.2582   30.3410 O.2     1  UNL1       -0.2684
     10 C         -28.8433   -2.9197   31.8446 C.3     1  UNL1        0.1388
     11 F         -30.2878    0.1950   26.2891 F       1  UNL1       -0.2045
     12 C         -28.0285    1.6827   25.4723 C.3     1  UNL1        0.0465
     13 C         -28.0828    2.9039   25.6386 C.2     1  UNL1       -0.0220
     14 C         -28.0824    1.0383   24.1780 C.3     1  UNL1        0.0095
     15 C         -27.3049    3.6735   26.4996 C.2     1  UNL1       -0.0043
     16 C         -27.4906    5.0362   26.8416 C.2     1  UNL1       -0.0003
     17 C         -26.6569    5.7200   27.7024 C.2     1  UNL1       -0.0000
     18 C         -25.4882    5.0265   28.2010 C.2     1  UNL1       -0.0000
     19 C         -25.1791    3.7578   27.7815 C.2     1  UNL1       -0.0000
@<TRIPOS>BOND
     1     1     6    1
     2     6     8   am
     3     6     9    2
     4     8    10    1
     5     5    11    1
     6     4    12    1
     7    12    13    1
     8    12    14    1
     9    13    15    2
    10    15    16    1
    11    16    17    2
    12    17    18    1
    13    18    19    2
    14     1     2   ar
    15     2     3   ar
    16     3     4   ar
    17     4     5   ar
    18     5     7   ar
    19     7     1   ar
