@<TRIPOS>MOLECULE
No_955-gen_results/8p0m/2024-11-26-14-13-15/
 35 39 0 0 0
SMALL
GASTEIGER

@<TRIPOS>ATOM
      1 C         -28.0162   -0.8135   28.8779 C.ar    1  UNL1        0.0372
      2 C         -28.4690   -0.7850   29.8287 C.ar    1  UNL1        0.1453
      3 C         -26.5042   -0.7777   28.8766 C.ar    1  UNL1       -0.0011
      4 C         -25.8103   -0.8531   30.1028 C.ar    1  UNL1       -0.0217
      5 C         -27.9906   -0.8916   31.2257 C.ar    1  UNL1        0.0372
      6 C         -26.6042   -0.8676   31.2652 C.ar    1  UNL1       -0.0011
      7 O         -29.9342   -0.7549   29.6857 O.3     1  UNL1       -0.4535
      8 C         -30.6124    0.3173   30.1204 C.ar    1  UNL1        0.1453
      9 C         -31.5369    0.7044   29.3871 C.ar    1  UNL1        0.0375
     10 C         -32.2965    1.8990   29.7527 C.ar    1  UNL1        0.0030
     11 C         -31.9405    2.5478   30.9619 C.ar    1  UNL1        0.0002
     12 C         -30.8958    2.0402   31.6995 C.ar    1  UNL1        0.0031
     13 C         -30.1874    0.9716   31.3327 C.ar    1  UNL1        0.0375
     14 C         -24.3856   -0.8915   30.1413 C.3     1  UNL1        0.0307
     15 C         -23.7905    0.3809   29.9311 C.3     1  UNL1        0.0267
     16 C         -23.4862    0.8181   28.6804 C.ar    1  UNL1       -0.0222
     17 C         -24.2521    1.1907   27.8037 C.ar    1  UNL1       -0.0043
     18 C         -23.8115    1.6826   26.5230 C.ar    1  UNL1       -0.0003
     19 C         -22.4341    1.9592   26.3551 C.ar    1  UNL1       -0.0000
     20 C         -21.5592    1.6570   27.3669 C.ar    1  UNL1       -0.0003
     21 C         -22.0106    1.1779   28.5929 C.ar    1  UNL1       -0.0043
     22 C         -23.7556    1.2704   31.1163 C.3     1  UNL1        0.0050
     23 C         -33.4186    2.3456   28.9420 C.ar    1  UNL1        0.0001
     24 C         -33.8949    3.4974   29.0719 C.ar    1  UNL1        0.0000
     25 C         -33.6349    4.2352   30.3080 C.ar    1  UNL1        0.0000
     26 C         -32.6197    3.8169   31.1715 C.ar    1  UNL1        0.0000
     27 C         -34.3252    5.5172   30.5955 C.ar    1  UNL1       -0.0000
     28 C         -33.6065    6.5315   30.8789 C.ar    1  UNL1       -0.0000
     29 C         -35.7131    5.4869   30.4985 C.ar    1  UNL1       -0.0000
     30 C         -34.1483    7.7962   31.1128 C.ar    1  UNL1       -0.0000
     31 C         -36.3389    6.7623   30.7417 C.ar    1  UNL1       -0.0000
     32 C         -35.5645    7.8800   31.0584 C.ar    1  UNL1       -0.0003
     33 C         -36.2341    9.1716   31.3063 C.2     1  UNL1       -0.0046
     34 C         -36.6294    9.9962   30.7830 C.2     1  UNL1       -0.0258
     35 C         -37.1669   11.0722   30.8155 C.3     1  UNL1        0.0307
@<TRIPOS>BOND
     1     2     7    1
     2     7     8    1
     3     4    14    1
     4    14    15    1
     5    15    16    1
     6    15    22    1
     7    25    27    1
     8    32    33    1
     9    33    34    2
    10    34    35    1
    11    27    28   ar
    12    28    30   ar
    13    30    32   ar
    14    32    31   ar
    15    31    29   ar
    16    29    27   ar
    17     1     2   ar
    18     2     5   ar
    19     5     6   ar
    20     6     4   ar
    21     4     3   ar
    22     3     1   ar
    23     8     9   ar
    24     9    10   ar
    25    11    12   ar
    26    12    13   ar
    27    13     8   ar
    28    10    11   ar
    29    11    26   ar
    30    26    25   ar
    31    25    24   ar
    32    24    23   ar
    33    23    10   ar
    34    16    17   ar
    35    17    18   ar
    36    18    19   ar
    37    19    20   ar
    38    20    21   ar
    39    21    16   ar
