@<TRIPOS>MOLECULE
No_956-gen_results/8p0m/2024-11-26-14-13-15/
 25 26 0 0 0
SMALL
GASTEIGER

@<TRIPOS>ATOM
      1 C         -28.0162   -0.8135   28.8779 C.3     1  UNL1        0.1293
      2 C         -27.0636   -0.1189   28.6079 C.ar    1  UNL1       -0.0182
      3 C         -27.0010    0.6913   27.4910 C.ar    1  UNL1       -0.0074
      4 C         -25.8548    1.4825   27.0830 C.ar    1  UNL1       -0.0079
      5 C         -24.6901    1.4526   27.8807 C.ar    1  UNL1        0.0497
      6 C         -24.7379    0.6010   29.0416 C.ar    1  UNL1       -0.0168
      7 C         -25.8234   -0.1688   29.3887 C.ar    1  UNL1       -0.0290
      8 C         -29.2252   -0.0469   29.2805 C.3     1  UNL1        0.4017
      9 F         -29.6809    0.6666   28.4495 F       1  UNL1       -0.1697
     10 F         -30.2672   -0.9607   29.6520 F       1  UNL1       -0.1697
     11 F         -29.0319    0.7259   30.3839 F       1  UNL1       -0.1697
     12 CL        -23.3478    2.3938   27.5509 Cl      1  UNL1       -0.0829
     13 C         -23.4721    0.5556   29.8872 C.3     1  UNL1        0.0194
     14 C         -22.3461    0.0035   29.3158 C.3     1  UNL1        0.0044
     15 C         -23.8805   -0.1277   31.2098 C.3     1  UNL1        0.0044
     16 C         -23.1649    2.0696   30.4053 C.3     1  UNL1        0.0044
     17 C         -24.5993   -1.2241   31.2238 C.3     1  UNL1        0.0050
     18 C         -25.9967   -0.8799   30.6763 C.3     1  UNL1        0.0258
     19 C         -25.9191    2.3034   25.9037 C.3     1  UNL1        0.0531
     20 C         -26.9246    3.1871   25.8275 C.2     1  UNL1       -0.0214
     21 C         -26.9329    4.3642   26.5934 C.2     1  UNL1       -0.0042
     22 C         -28.0948    5.2185   26.5797 C.2     1  UNL1       -0.0003
     23 C         -28.1837    6.3895   27.3364 C.2     1  UNL1       -0.0000
     24 C         -27.0492    6.7172   28.0912 C.2     1  UNL1       -0.0000
     25 C         -25.8937    5.9187   28.1254 C.2     1  UNL1       -0.0000
@<TRIPOS>BOND
     1     1     2    1
     2     1     8    1
     3     8     9    1
     4     8    10    1
     5     8    11    1
     6     5    12    1
     7     6    13    1
     8    13    14    1
     9    13    15    1
    10    13    16    1
    11    15    17    1
    12     7    18    1
    13    17    18    1
    14     4    19    1
    15    19    20    1
    16    20    21    2
    17    21    22    1
    18    22    23    2
    19    23    24    1
    20    24    25    2
    21     2     3   ar
    22     3     4   ar
    23     4     5   ar
    24     5     6   ar
    25     6     7   ar
    26     7     2   ar
