@<TRIPOS>MOLECULE
No_957-gen_results/8p0m/2024-11-26-14-13-15/
 17 17 0 0 0
SMALL
GASTEIGER

@<TRIPOS>ATOM
      1 C         -28.0162   -0.8135   28.8779 C.ar    1  UNL1        0.0038
      2 C         -28.4690   -0.7850   29.8287 C.ar    1  UNL1        0.0795
      3 C         -26.5042   -0.7777   28.8766 C.ar    1  UNL1       -0.0032
      4 C         -25.6540   -0.6597   27.7191 C.3     1  UNL1        0.1238
      5 C         -27.9180   -0.9374   31.1824 C.ar    1  UNL1        0.0066
      6 C         -26.5423   -0.9399   31.2606 C.ar    1  UNL1       -0.0001
      7 C         -25.7832   -0.8935   30.1201 C.ar    1  UNL1       -0.0028
      8 CL        -24.8325    0.6214   27.5153 Cl      1  UNL1       -0.1054
      9 C         -30.0629   -0.8355   29.8971 C.2     1  UNL1        0.3877
     10 O         -30.6896   -0.4016   29.1426 O.co2   1  UNL1       -0.2406
     11 O         -30.6648   -1.4599   30.9540 O.co2   1  UNL1       -0.2406
     12 C         -26.4667   -0.5436   26.5503 C.2     1  UNL1       -0.0077
     13 C         -25.8207   -0.1276   25.3162 C.2     1  UNL1        0.0054
     14 C         -24.6716    0.6035   25.7330 C.3     1  UNL1        0.1827
     15 C         -24.5658    2.0283   25.3221 C.3     1  UNL1        0.0399
     16 F         -23.5897    0.2770   25.1905 F       1  UNL1       -0.2325
     17 C         -25.5099    2.9049   25.9467 C.3     1  UNL1        0.0033
@<TRIPOS>BOND
     1     3     4    1
     2     4     8    1
     3     2     9    1
     4     9    10   ar
     5     9    11   ar
     6     4    12    1
     7    12    13    2
     8    13    14    1
     9    14    15    1
    10    14    16    1
    11    15    17    1
    12     1     2   ar
    13     2     5   ar
    14     5     6   ar
    15     6     7   ar
    16     7     3   ar
    17     3     1   ar
