@<TRIPOS>MOLECULE
No_958-gen_results/8p0m/2024-11-26-14-13-15/
 22 24 0 0 0
SMALL
GASTEIGER

@<TRIPOS>ATOM
      1 C         -28.0162   -0.8135   28.8779 C.ar    1  UNL1        0.0015
      2 C         -28.4690   -0.7850   29.8287 C.ar    1  UNL1        0.0177
      3 C         -26.5042   -0.7777   28.8766 C.ar    1  UNL1        0.0000
      4 C         -25.8103   -0.8531   30.1028 C.ar    1  UNL1        0.0000
      5 C         -27.9906   -0.8916   31.2257 C.ar    1  UNL1        0.0015
      6 C         -26.6042   -0.8676   31.2652 C.ar    1  UNL1        0.0000
      7 C         -30.0417   -0.7687   29.6526 C.ar    1  UNL1        0.0813
      8 N         -30.6973    0.2390   30.2017 N.ar    1  UNL1       -0.2437
      9 C         -31.8654    0.4530   30.1273 C.ar    1  UNL1        0.1034
     10 C         -32.6924   -0.4657   29.4322 C.ar    1  UNL1        0.0742
     11 C         -32.0202   -1.5736   28.8575 C.ar    1  UNL1        0.0074
     12 C         -30.6677   -1.7575   29.0459 C.ar    1  UNL1        0.0193
     13 C         -32.7474   -2.6141   28.0983 C.ar    1  UNL1        0.0002
     14 C         -32.5585   -2.6051   26.7293 C.ar    1  UNL1        0.0000
     15 C         -32.6090   -3.8172   26.0334 C.ar    1  UNL1        0.0000
     16 C         -33.0772   -4.9898   26.6607 C.ar    1  UNL1        0.0000
     17 C         -33.2669   -4.9481   28.0235 C.ar    1  UNL1        0.0000
     18 C         -32.9500   -3.8157   28.7726 C.ar    1  UNL1        0.0000
     19 C         -34.0891   -0.3267   29.2521 C.2     1  UNL1        0.2663
     20 N         -34.6342    0.5992   29.2903 N.am    1  UNL1       -0.1997
     21 O         -34.7454   -1.4403   29.0742 O.2     1  UNL1       -0.2683
     22 C         -36.0829    0.8892   29.2018 C.3     1  UNL1        0.1388
@<TRIPOS>BOND
     1     2     7    1
     2    11    13    1
     3    10    19    1
     4    19    20   am
     5    19    21    2
     6    20    22    1
     7    13    14   ar
     8    14    15   ar
     9    15    16   ar
    10    16    17   ar
    11    17    18   ar
    12    18    13   ar
    13     1     2   ar
    14     2     5   ar
    15     5     6   ar
    16     6     4   ar
    17     4     3   ar
    18     3     1   ar
    19     7     8   ar
    20     8     9   ar
    21     9    10   ar
    22    10    11   ar
    23    11    12   ar
    24    12     7   ar
