@<TRIPOS>MOLECULE
No_959-gen_results/8p0m/2024-11-26-14-13-15/
 11 11 0 0 0
SMALL
GASTEIGER

@<TRIPOS>ATOM
      1 C         -28.0162   -0.8135   28.8779 C.ar    1  UNL1        0.0105
      2 C         -28.4690   -0.7850   29.8287 C.ar    1  UNL1        0.0345
      3 C         -27.0871    0.2903   28.6377 C.ar    1  UNL1        0.0719
      4 C         -26.8317    1.2487   29.5869 C.ar    1  UNL1        0.0039
      5 C         -28.3914    0.0801   31.0065 C.ar    1  UNL1        0.0067
      6 C         -27.4940    1.1521   30.7841 C.ar    1  UNL1        0.0004
      7 C         -26.3172    0.3994   27.3653 C.3     1  UNL1        0.4186
      8 F         -26.9484    0.3460   26.3604 F       1  UNL1       -0.1659
      9 F         -25.6329    1.6514   27.3249 F       1  UNL1       -0.1659
     10 F         -25.2326   -0.4943   27.4191 F       1  UNL1       -0.1659
     11 BR        -29.6134   -2.3884   30.1468 Br      1  UNL1       -0.0490
@<TRIPOS>BOND
     1     3     7    1
     2     7     8    1
     3     7     9    1
     4     7    10    1
     5     2    11    1
     6     1     2   ar
     7     2     5   ar
     8     5     6   ar
     9     6     4   ar
    10     4     3   ar
    11     3     1   ar
