@<TRIPOS>MOLECULE
No_96-gen_results/8p0m/2024-11-26-14-13-15/
 35 36 0 0 0
SMALL
GASTEIGER

@<TRIPOS>ATOM
      1 C         -28.0162   -0.8135   28.8779 C.ar    1  UNL1        0.0361
      2 C         -27.0636   -0.1189   28.6079 C.ar    1  UNL1       -0.0144
      3 C         -26.9287    1.1713   29.0083 C.ar    1  UNL1        0.0058
      4 C         -27.9560    1.7411   29.7840 C.ar    1  UNL1        0.1122
      5 C         -29.0569   -0.3271   29.7466 C.ar    1  UNL1        0.1730
      6 C         -28.9828    0.9722   30.1516 C.ar    1  UNL1        0.1792
      7 C         -25.8815   -0.6260   27.7945 C.3     1  UNL1        0.0527
      8 C         -24.6972   -1.0572   28.6241 C.ar    1  UNL1       -0.0178
      9 C         -24.6429   -2.2546   29.1042 C.ar    1  UNL1       -0.0039
     10 C         -23.6235   -0.1510   28.7890 C.ar    1  UNL1       -0.0039
     11 C         -22.4506   -0.6386   29.5030 C.ar    1  UNL1       -0.0003
     12 C         -23.4348   -2.7398   29.7626 C.ar    1  UNL1       -0.0003
     13 C         -22.3907   -1.8579   29.9589 C.ar    1  UNL1       -0.0000
     14 O         -30.0367    1.4474   30.9419 O.3     1  UNL1       -0.4604
     15 O         -29.8343   -1.2708   30.2653 O.3     1  UNL1       -0.4606
     16 C         -29.3137   -2.3136   30.9121 C.3     1  UNL1        0.3187
     17 C         -29.6732   -3.6019   30.3768 C.2     1  UNL1        0.4084
     18 O         -28.7330   -4.4826   30.4344 O.co2   1  UNL1       -0.2415
     19 O         -30.7421   -3.8088   29.9093 O.co2   1  UNL1       -0.2415
     20 C         -31.2101    1.5151   30.4473 C.3     1  UNL1        0.3187
     21 C         -32.2034    0.9321   31.2120 C.2     1  UNL1        0.4084
     22 O         -33.0610    1.4204   31.4417 O.co2   1  UNL1       -0.2415
     23 O         -31.9841   -0.3604   31.5640 O.co2   1  UNL1       -0.2415
     24 C         -27.8497    3.1613   30.2160 C.2     1  UNL1        0.3443
     25 O         -27.4817    3.8961   29.4802 O.2     1  UNL1       -0.2448
     26 O         -28.1490    3.4162   31.4558 O.3     1  UNL1       -0.4452
     27 C         -27.2494    3.3975   32.4826 C.3     1  UNL1        0.2143
     28 C         -27.1014    2.4144   33.2409 C.3     1  UNL1        0.1106
     29 C         -26.0571    1.4790   32.9724 C.3     1  UNL1        0.0109
     30 C         -26.4261    0.2516   32.4832 C.3     1  UNL1        0.0208
     31 C         -25.5973   -0.7505   33.0642 C.3     1  UNL1        0.1093
     32 N         -24.3390   -0.6710   32.4482 N.3     1  UNL1       -0.1314
     33 C         -26.9733    2.9014   34.8207 C.3     1  UNL1        0.3220
     34 F         -26.8050    1.7775   35.5113 F       1  UNL1       -0.1983
     35 F         -25.9011    3.6147   35.0855 F       1  UNL1       -0.1983
@<TRIPOS>BOND
     1     2     7    1
     2     7     8    1
     3     6    14    1
     4     5    15    1
     5    15    16    1
     6    16    17    1
     7    17    18   ar
     8    17    19   ar
     9    14    20    1
    10    20    21    1
    11    21    22   ar
    12    21    23   ar
    13     4    24    1
    14    24    25    2
    15    24    26    1
    16    26    27    1
    17    27    28    1
    18    28    29    1
    19    29    30    1
    20    30    31    1
    21    31    32    1
    22    28    33    1
    23    33    34    1
    24    33    35    1
    25     1     2   ar
    26     2     3   ar
    27     3     4   ar
    28     4     6   ar
    29     6     5   ar
    30     5     1   ar
    31     8     9   ar
    32     9    12   ar
    33    12    13   ar
    34    13    11   ar
    35    11    10   ar
    36    10     8   ar
