@<TRIPOS>MOLECULE
No_960-gen_results/8p0m/2024-11-26-14-13-15/
 16 16 0 0 0
SMALL
GASTEIGER

@<TRIPOS>ATOM
      1 C         -28.0162   -0.8135   28.8779 C.3     1  UNL1        0.4186
      2 C         -27.0636   -0.1189   28.6079 C.ar    1  UNL1        0.0714
      3 C         -26.9287    1.1713   29.0083 C.ar    1  UNL1        0.0040
      4 C         -25.7702    2.0341   28.6884 C.ar    1  UNL1        0.0045
      5 C         -24.7141    1.4431   27.9188 C.ar    1  UNL1        0.0554
      6 C         -24.8590    0.0783   27.5836 C.ar    1  UNL1        0.0045
      7 C         -25.9647   -0.6606   27.9164 C.ar    1  UNL1        0.0040
      8 F         -27.8152   -2.0223   29.4811 F       1  UNL1       -0.1659
      9 F         -28.8889   -0.2051   29.8349 F       1  UNL1       -0.1659
     10 C         -23.5312    2.1448   27.5547 C.2     1  UNL1        0.2691
     11 N         -22.4528    1.6477   27.0992 N.am    1  UNL1       -0.1727
     12 O         -23.7553    3.3980   27.2208 O.2     1  UNL1       -0.2680
     13 F         -28.8937   -0.8635   27.8206 F       1  UNL1       -0.1659
     14 C         -21.8062    0.6284   27.9152 C.2     1  UNL1        0.1083
     15 C         -20.4405    0.8667   28.3463 C.2     1  UNL1        0.1236
     16 N         -20.1277   -0.3236   29.0191 N.pl3   1  UNL1       -0.1252
@<TRIPOS>BOND
     1     1     2    1
     2     1     8    1
     3     1     9    1
     4     5    10    1
     5    10    11   am
     6    10    12    2
     7     1    13    1
     8    11    14    1
     9    14    15    2
    10    15    16    1
    11     2     3   ar
    12     3     4   ar
    13     4     5   ar
    14     5     6   ar
    15     6     7   ar
    16     7     2   ar
