@<TRIPOS>MOLECULE
No_961-gen_results/8p0m/2024-11-26-14-13-15/
 13 14 0 0 0
SMALL
GASTEIGER

@<TRIPOS>ATOM
      1 C         -28.0162   -0.8135   28.8779 C.ar    1  UNL1        0.0988
      2 C         -27.0636   -0.1189   28.6079 C.ar    1  UNL1        0.0192
      3 C         -26.8756    1.1325   28.9134 C.ar    1  UNL1        0.0028
      4 C         -25.6883    1.9515   28.5672 C.ar    1  UNL1       -0.0030
      5 C         -24.6394    1.2834   27.8753 C.ar    1  UNL1       -0.0074
      6 C         -24.8181   -0.0802   27.6166 C.ar    1  UNL1       -0.0030
      7 C         -25.9311   -0.7717   27.9696 C.ar    1  UNL1        0.0013
      8 N         -28.7345   -0.6152   30.0397 N.ar    1  UNL1       -0.2423
      9 C         -28.6767    0.2206   30.6629 C.ar    1  UNL1        0.0989
     10 C         -27.8566    1.4555   30.4172 C.ar    1  UNL1        0.0207
     11 C         -23.5244    1.9932   27.3532 C.3     1  UNL1        0.1021
     12 CL        -22.2593    2.2112   27.6525 Cl      1  UNL1       -0.1102
     13 C         -24.0078    2.6778   26.0134 C.3     1  UNL1        0.0223
@<TRIPOS>BOND
     1     5    11    1
     2    11    12    1
     3    11    13    1
     4     3     4   ar
     5     4     5   ar
     6     5     6   ar
     7     6     7   ar
     8     7     2   ar
     9     1     2   ar
    10     2     3   ar
    11     3    10   ar
    12    10     9   ar
    13     9     8   ar
    14     8     1   ar
