@<TRIPOS>MOLECULE
No_964-gen_results/8p0m/2024-11-26-14-13-15/
 13 14 0 0 0
SMALL
GASTEIGER

@<TRIPOS>ATOM
      1 C         -28.0162   -0.8135   28.8779 C.3     1  UNL1        0.1328
      2 C         -27.0636   -0.1190   28.6079 C.ar    1  UNL1        0.0004
      3 C         -25.7923   -0.4302   29.0761 C.ar    1  UNL1       -0.0015
      4 C         -24.5456    0.3494   28.8225 C.ar    1  UNL1        0.0111
      5 C         -24.6586    1.4196   27.8878 C.ar    1  UNL1        0.0577
      6 C         -25.9471    1.6811   27.3792 C.ar    1  UNL1        0.0111
      7 C         -27.0439    0.9739   27.6871 C.ar    1  UNL1       -0.0015
      8 N         -29.1882   -0.1472   29.0918 N.ar    1  UNL1       -0.3207
      9 C         -29.7585    0.5259   28.4632 C.ar    1  UNL1        0.0762
     10 C         -31.1091    0.9118   28.8334 C.ar    1  UNL1        0.0202
     11 C         -30.1030   -0.8208   30.0985 C.ar    1  UNL1        0.0762
     12 C         -31.2557   -0.0160   29.9378 C.ar    1  UNL1        0.0202
     13 CL        -23.2760    2.3061   27.5344 Cl      1  UNL1       -0.0822
@<TRIPOS>BOND
     1     1     2    1
     2     1     8    1
     3     8     9   ar
     4     9    10   ar
     5     8    11   ar
     6    10    12   ar
     7    11    12   ar
     8     5    13    1
     9     2     3   ar
    10     3     4   ar
    11     4     5   ar
    12     5     6   ar
    13     6     7   ar
    14     7     2   ar
