@<TRIPOS>MOLECULE
No_965-gen_results/8p0m/2024-11-26-14-13-15/
 15 16 0 0 0
SMALL
GASTEIGER

@<TRIPOS>ATOM
      1 C         -28.0162   -0.8135   28.8779 C.ar    1  UNL1        0.0008
      2 C         -28.4690   -0.7850   29.8287 C.ar    1  UNL1       -0.0000
      3 C         -28.1960    0.3478   28.0550 C.ar    1  UNL1        0.0105
      4 C         -27.4421    0.5100   26.7946 C.ar    1  UNL1        0.0576
      5 C         -27.8427    1.3330   25.8056 C.ar    1  UNL1        0.0114
      6 C         -29.4716    0.1210   30.3515 C.ar    1  UNL1        0.0039
      7 C         -29.7075    1.1848   29.5963 C.ar    1  UNL1        0.0715
      8 C         -29.0356    1.3672   28.4021 C.ar    1  UNL1        0.0047
      9 C         -28.8078    2.3943   26.1524 C.ar    1  UNL1        0.0009
     10 C         -29.3448    2.3671   27.4295 C.ar    1  UNL1        0.0000
     11 CL        -26.1635   -0.5990   26.3934 Cl      1  UNL1       -0.0822
     12 C         -30.6796    2.2382   30.0009 C.3     1  UNL1        0.4186
     13 F         -31.2333    1.9663   31.1282 F       1  UNL1       -0.1659
     14 F         -29.9503    3.3377   30.1123 F       1  UNL1       -0.1659
     15 F         -31.5934    2.3652   29.0341 F       1  UNL1       -0.1659
@<TRIPOS>BOND
     1     4    11    1
     2     7    12    1
     3    12    13    1
     4    12    14    1
     5    12    15    1
     6     3     4   ar
     7     4     5   ar
     8     5     9   ar
     9     9    10   ar
    10    10     8   ar
    11     1     2   ar
    12     2     6   ar
    13     6     7   ar
    14     7     8   ar
    15     8     3   ar
    16     3     1   ar
