@<TRIPOS>MOLECULE
No_966-gen_results/8p0m/2024-11-26-14-13-15/
 24 26 0 0 0
SMALL
GASTEIGER

@<TRIPOS>ATOM
      1 C         -28.0162   -0.8135   28.8779 C.3     1  UNL1        0.1147
      2 C         -27.0636   -0.1189   28.6079 C.ar    1  UNL1       -0.0063
      3 C         -25.7647   -0.3897   29.0360 C.ar    1  UNL1        0.0044
      4 C         -24.5517    0.4058   28.7646 C.ar    1  UNL1       -0.0023
      5 C         -24.6957    1.4480   27.7988 C.ar    1  UNL1       -0.0042
      6 C         -25.9755    1.7250   27.3077 C.ar    1  UNL1       -0.0006
      7 C         -27.0718    1.0134   27.6535 C.ar    1  UNL1       -0.0031
      8 N         -28.6247   -0.5797   30.0969 N.3     1  UNL1       -0.2146
      9 C         -23.4943    2.1676   27.4757 C.2     1  UNL1       -0.0219
     10 C         -23.0498    3.0061   28.3527 C.2     1  UNL1       -0.0046
     11 C         -22.9644    2.0760   26.1303 C.3     1  UNL1        0.0310
     12 C         -28.2114    0.2680   30.8643 C.3     1  UNL1        0.0759
     13 C         -28.4635    0.7912   31.8912 C.3     1  UNL1        0.0175
     14 C         -28.2204    1.6602   32.5289 C.3     1  UNL1        0.0014
     15 C         -26.9974    2.4905   32.1298 C.3     1  UNL1        0.0002
     16 C         -26.4425    2.0026   30.9511 C.3     1  UNL1        0.0041
     17 C         -26.9717    1.0150   30.3552 C.3     1  UNL1        0.0473
     18 C         -26.2127    0.5682   29.5099 C.3     1  UNL1        0.1534
     19 F         -26.3862    1.5685   29.3820 F       1  UNL1       -0.2355
     20 C         -24.9748    2.4238   30.9793 C.3     1  UNL1        0.0001
     21 C         -26.0621   -0.6378   30.6960 C.3     1  UNL1        0.0400
     22 C         -27.7666    1.9385   30.5082 C.3     1  UNL1        0.0217
     23 C         -28.6264    2.7710   29.9482 C.3     1  UNL1        0.0950
     24 CL        -28.7651    2.8189   30.5708 Cl      1  UNL1       -0.1137
@<TRIPOS>BOND
     1     1     8    1
     2     5     9    1
     3     9    10    2
     4     9    11    1
     5    12    13    1
     6    14    15    1
     7    12    17    1
     8    16    17    1
     9     3    18    1
    10    17    18    1
    11    18    19    1
    12    16    20    1
    13    18    21    1
    14    17    22    1
    15    22    23    1
    16    23    24    1
    17     1     2    1
    18     8    12    1
    19    13    14    1
    20    15    16    1
    21     2     3   ar
    22     3     4   ar
    23     4     5   ar
    24     5     6   ar
    25     6     7   ar
    26     7     2   ar
