@<TRIPOS>MOLECULE
No_969-gen_results/8p0m/2024-11-26-14-13-15/
 10 10 0 0 0
SMALL
GASTEIGER

@<TRIPOS>ATOM
      1 C         -28.0162   -0.8135   28.8779 C.ar    1  UNL1       -0.0003
      2 C         -27.0636   -0.1189   28.6079 C.ar    1  UNL1       -0.0031
      3 C         -25.7647   -0.3897   29.0360 C.ar    1  UNL1       -0.0074
      4 C         -25.5296   -1.5302   29.9014 C.ar    1  UNL1       -0.0031
      5 C         -26.6888   -2.2893   30.1810 C.ar    1  UNL1       -0.0003
      6 C         -27.8727   -1.9508   29.7373 C.ar    1  UNL1       -0.0000
      7 C         -24.5491    0.4100   28.7341 C.3     1  UNL1        0.1020
      8 CL        -24.4834    1.2009   27.4125 Cl      1  UNL1       -0.1102
      9 C         -23.3584    0.3598   29.5686 C.3     1  UNL1        0.0207
     10 C         -22.1508    0.4035   28.9326 C.3     1  UNL1        0.0017
@<TRIPOS>BOND
     1     3     7    1
     2     7     8    1
     3     7     9    1
     4     9    10    1
     5     1     2   ar
     6     2     3   ar
     7     3     4   ar
     8     4     5   ar
     9     5     6   ar
    10     6     1   ar
