@<TRIPOS>MOLECULE
No_97-gen_results/8p0m/2024-11-26-14-13-15/
 11 11 0 0 0
SMALL
GASTEIGER

@<TRIPOS>ATOM
      1 C         -28.0162   -0.8135   28.8779 C.ar    1  UNL1       -0.0026
      2 C         -27.0636   -0.1190   28.6079 C.ar    1  UNL1       -0.0027
      3 C         -25.7923   -0.4302   29.0761 C.ar    1  UNL1       -0.0026
      4 C         -25.5756   -1.5654   29.9363 C.ar    1  UNL1       -0.0003
      5 C         -26.7354   -2.3004   30.2173 C.ar    1  UNL1       -0.0000
      6 C         -27.9184   -1.9537   29.7629 C.ar    1  UNL1       -0.0003
      7 C         -27.3243    1.0850   27.8190 C.3     1  UNL1        0.1147
      8 N         -26.3391    1.8438   27.4826 N.pl3   1  UNL1       -0.2336
      9 C         -28.0698    0.7483   26.5365 C.3     1  UNL1        0.0282
     10 C         -25.6838    2.6918   28.3899 C.2     1  UNL1        0.0804
     11 C         -24.4843    3.4258   27.9339 C.2     1  UNL1        0.0188
@<TRIPOS>BOND
     1     2     7    1
     2     7     8    1
     3     7     9    1
     4     8    10    1
     5    10    11    2
     6     1     2   ar
     7     2     3   ar
     8     3     4   ar
     9     4     5   ar
    10     5     6   ar
    11     6     1   ar
