@<TRIPOS>MOLECULE
No_970-gen_results/8p0m/2024-11-26-14-13-15/
 12 13 0 0 0
SMALL
GASTEIGER

@<TRIPOS>ATOM
      1 C         -28.0162   -0.8135   28.8779 C.ar    1  UNL1        0.0000
      2 C         -28.4690   -0.7850   29.8287 C.ar    1  UNL1        0.0000
      3 C         -28.1960    0.3478   28.0550 C.ar    1  UNL1        0.0000
      4 C         -27.4421    0.5100   26.7946 C.ar    1  UNL1        0.0000
      5 C         -27.8427    1.3330   25.8056 C.ar    1  UNL1        0.0000
      6 C         -29.4956    0.1092   30.3452 C.ar    1  UNL1        0.0000
      7 C         -29.7284    1.1870   29.5687 C.ar    1  UNL1        0.0000
      8 C         -29.0420    1.3665   28.3718 C.ar    1  UNL1        0.0000
      9 C         -25.9380    0.8282   27.0228 C.ar    1  UNL1        0.0000
     10 C         -25.1576    1.4383   26.2537 C.ar    1  UNL1        0.0000
     11 C         -25.7246    2.2364   25.1752 C.ar    1  UNL1        0.0000
     12 C         -27.2516    2.1856   25.3284 C.ar    1  UNL1        0.0000
@<TRIPOS>BOND
     1     3     4    1
     2     4     5   ar
     3     5    12   ar
     4    12    11   ar
     5    11    10   ar
     6    10     9   ar
     7     9     4   ar
     8     1     2   ar
     9     2     6   ar
    10     6     7   ar
    11     7     8   ar
    12     8     3   ar
    13     3     1   ar
