@<TRIPOS>MOLECULE
No_971-gen_results/8p0m/2024-11-26-14-13-15/
 35 37 0 0 0
SMALL
GASTEIGER

@<TRIPOS>ATOM
      1 C         -28.0162   -0.8135   28.8779 C.ar    1  UNL1       -0.0010
      2 C         -28.4690   -0.7850   29.8287 C.ar    1  UNL1        0.0421
      3 C         -27.1356    0.2359   28.5352 C.ar    1  UNL1       -0.0218
      4 C         -26.8745    1.2825   29.3982 C.ar    1  UNL1        0.0023
      5 C         -28.3613    0.1987   30.9244 C.ar    1  UNL1        0.0098
      6 C         -27.5277    1.2234   30.6356 C.ar    1  UNL1        0.0796
      7 C         -26.4181    0.0763   27.2578 C.3     1  UNL1        0.0273
      8 C         -25.0141    0.0394   27.3317 C.3     1  UNL1        0.0321
      9 C         -27.0064    0.2951   26.0062 C.3     1  UNL1        0.0125
     10 C         -26.2879    0.1993   24.8537 C.3     1  UNL1        0.0010
     11 C         -24.3404   -0.1643   28.6024 C.ar    1  UNL1       -0.0051
     12 C         -28.3708    0.5626   25.8798 C.3     1  UNL1        0.0446
     13 C         -24.2312   -1.2425   29.1521 C.ar    1  UNL1       -0.0029
     14 C         -23.4919   -1.3860   30.4064 C.ar    1  UNL1       -0.0002
     15 C         -22.9498   -0.2491   30.9815 C.ar    1  UNL1        0.0014
     16 C         -23.7100    0.9947   29.2676 C.ar    1  UNL1        0.0851
     17 N         -23.7627    2.2823   28.6570 N.pl3   1  UNL1       -0.1284
     18 C         -23.0329    0.9274   30.4594 C.ar    1  UNL1        0.0177
     19 C         -29.1270    1.2941   26.7207 C.ar    1  UNL1       -0.0183
     20 C         -28.6870    2.6810   26.8664 C.ar    1  UNL1       -0.0040
     21 C         -30.3180    0.9042   27.3781 C.ar    1  UNL1        0.0006
     22 C         -30.9840    1.7821   28.2292 C.ar    1  UNL1        0.0547
     23 C         -30.6134    3.1189   28.2719 C.ar    1  UNL1        0.0045
     24 C         -29.3750    3.5798   27.7551 C.ar    1  UNL1       -0.0002
     25 C         -29.0926   -0.0776   24.8108 C.2     1  UNL1       -0.0221
     26 C         -27.3285    2.3783   31.6040 C.2     1  UNL1        0.3877
     27 O         -27.9043    2.7094   32.3616 O.co2   1  UNL1       -0.2406
     28 O         -26.0175    2.8240   31.4432 O.co2   1  UNL1       -0.2406
     29 C         -30.0899    0.6090   24.2610 C.2     1  UNL1       -0.0046
     30 C         -32.2167    1.3239   28.8973 C.2     1  UNL1        0.2648
     31 N         -33.3067    1.3259   28.4365 N.am    1  UNL1       -0.1998
     32 O         -32.0264    0.8741   30.1464 O.2     1  UNL1       -0.2684
     33 C         -34.3851    0.7626   28.8070 C.3     1  UNL1        0.1388
     34 C         -29.5333   -1.9259   30.3425 C.2     1  UNL1        0.2341
     35 O         -30.5527   -1.6732   30.6558 O.2     1  UNL1       -0.2831
@<TRIPOS>BOND
     1     3     7    1
     2     7     8    1
     3     7     9    1
     4     9    10    1
     5     8    11    1
     6     9    12    1
     7    16    17    1
     8    12    19    1
     9    12    25    1
    10     6    26    1
    11    26    27   ar
    12    26    28   ar
    13    25    29    2
    14    22    30    1
    15    30    31   am
    16    30    32    2
    17    31    33    1
    18     2    34    1
    19    34    35    2
    20    11    13   ar
    21    13    14   ar
    22    14    15   ar
    23    15    18   ar
    24    18    16   ar
    25    16    11   ar
    26    19    20   ar
    27    20    24   ar
    28    24    23   ar
    29    23    22   ar
    30    22    21   ar
    31    21    19   ar
    32     1     2   ar
    33     2     5   ar
    34     5     6   ar
    35     6     4   ar
    36     4     3   ar
    37     3     1   ar
