@<TRIPOS>MOLECULE
No_972-gen_results/8p0m/2024-11-26-14-13-15/
 35 39 0 0 0
SMALL
GASTEIGER

@<TRIPOS>ATOM
      1 C         -28.0162   -0.8135   28.8779 C.ar    1  UNL1        0.0114
      2 C         -28.4690   -0.7850   29.8287 C.ar    1  UNL1        0.0577
      3 C         -27.0871    0.2903   28.6377 C.ar    1  UNL1        0.0011
      4 C         -26.2516    0.4114   27.4223 C.ar    1  UNL1        0.0016
      5 C         -28.3913    0.1041   30.9805 C.ar    1  UNL1        0.0114
      6 C         -27.5332    1.1666   30.7866 C.ar    1  UNL1        0.0011
      7 C         -26.8281    1.2557   29.6454 C.ar    1  UNL1        0.0063
      8 C         -25.6445    1.6653   27.2215 C.ar    1  UNL1        0.0201
      9 C         -25.3909    2.5603   28.2290 C.ar    1  UNL1        0.0080
     10 C         -26.0984    2.4436   29.4093 C.ar    1  UNL1        0.0757
     11 C         -25.8602    3.5115   30.4219 C.2     1  UNL1        0.3412
     12 O         -26.8756    3.7028   31.1496 O.3     1  UNL1       -0.4454
     13 O         -24.9211    4.3166   30.3404 O.2     1  UNL1       -0.2449
     14 CL        -29.5840   -2.2296   30.2486 Cl      1  UNL1       -0.0822
     15 C         -24.8186    1.7404   25.9734 C.ar    1  UNL1        0.1086
     16 N         -24.9897    1.0010   24.9913 N.ar    1  UNL1       -0.2416
     17 C         -23.7292    2.6907   25.9789 C.ar    1  UNL1        0.1577
     18 F         -23.6313    3.5767   26.8883 F       1  UNL1       -0.2026
     19 C         -22.6943    2.6436   25.0583 C.ar    1  UNL1        0.0328
     20 C         -22.8267    1.5920   24.0732 C.ar    1  UNL1        0.0230
     21 C         -23.9736    0.7742   24.0795 C.ar    1  UNL1        0.0990
     22 C         -26.6665    4.7931   32.0401 C.3     1  UNL1        0.2088
     23 C         -26.5914    4.5322   33.3227 C.3     1  UNL1        0.0473
     24 C         -26.9790    3.2916   33.6955 C.3     1  UNL1        0.0252
     25 C         -27.6840    3.2751   34.9754 C.3     1  UNL1        0.0909
     26 N         -27.2168    3.9166   35.9424 N.pl3   1  UNL1       -0.3077
     27 C         -26.8824    5.3190   35.6679 C.3     1  UNL1        0.0909
     28 C         -26.4215    5.5844   34.4062 C.3     1  UNL1        0.0252
     29 C         -27.9375    3.8889   37.2467 C.ar    1  UNL1        0.0438
     30 C         -27.3941    3.0141   38.0722 C.ar    1  UNL1        0.0142
     31 C         -28.0923    2.5233   39.0202 C.ar    1  UNL1        0.0012
     32 C         -29.3333    3.0447   39.3764 C.ar    1  UNL1       -0.0002
     33 C         -29.8622    3.9658   38.5123 C.ar    1  UNL1       -0.0030
     34 C         -29.1579    4.3765   37.3628 C.ar    1  UNL1       -0.0085
     35 C         -29.7075    5.3258   36.3989 C.3     1  UNL1        0.0323
@<TRIPOS>BOND
     1    10    11    1
     2    11    12    1
     3    11    13    2
     4     2    14    1
     5     8    15    1
     6    17    18    1
     7    12    22    1
     8    22    23    1
     9    23    24    1
    10    24    25    1
    11    25    26    1
    12    26    27    1
    13    23    28    1
    14    27    28    1
    15    26    29    1
    16    34    35    1
    17    15    16   ar
    18    16    21   ar
    19    21    20   ar
    20    20    19   ar
    21    19    17   ar
    22    17    15   ar
    23     1     2   ar
    24     2     5   ar
    25     5     6   ar
    26     6     7   ar
    27     3     1   ar
    28     3     4   ar
    29     4     8   ar
    30     8     9   ar
    31     9    10   ar
    32    10     7   ar
    33     7     3   ar
    34    29    30   ar
    35    30    31   ar
    36    31    32   ar
    37    32    33   ar
    38    33    34   ar
    39    34    29   ar
