@<TRIPOS>MOLECULE
No_974-gen_results/8p0m/2024-11-26-14-13-15/
 19 20 0 0 0
SMALL
GASTEIGER

@<TRIPOS>ATOM
      1 C         -28.0162   -0.8135   28.8779 C.ar    1  UNL1        0.0002
      2 C         -27.0636   -0.1189   28.6079 C.ar    1  UNL1       -0.0000
      3 C         -26.9287    1.1713   29.0083 C.ar    1  UNL1       -0.0001
      4 C         -25.7702    2.0341   28.6884 C.ar    1  UNL1        0.0039
      5 C         -24.7141    1.4431   27.9188 C.ar    1  UNL1        0.0714
      6 C         -24.8590    0.0783   27.5836 C.ar    1  UNL1        0.0039
      7 C         -25.9647   -0.6606   27.9164 C.ar    1  UNL1       -0.0001
      8 C         -28.0422   -1.5426   30.2417 C.ar    1  UNL1        0.0000
      9 C         -29.0635   -2.4584   30.5917 C.ar    1  UNL1        0.0002
     10 C         -30.3213   -2.0364   30.3596 C.ar    1  UNL1        0.0066
     11 C         -30.4813   -1.0555   29.3342 C.ar    1  UNL1        0.0798
     12 C         -29.3912   -0.4346   28.6881 C.ar    1  UNL1        0.0066
     13 C         -23.5102    2.1343   27.5620 C.3     1  UNL1        0.4186
     14 F         -23.3098    2.6885   26.6624 F       1  UNL1       -0.1659
     15 F         -23.0260    2.8450   28.6897 F       1  UNL1       -0.1659
     16 F         -22.4018    1.1073   27.6496 F       1  UNL1       -0.1659
     17 C         -31.8446   -0.7458   28.8275 C.2     1  UNL1        0.3878
     18 O         -32.5612    0.0077   29.3212 O.co2   1  UNL1       -0.2406
     19 O         -32.1231   -1.3899   27.6874 O.co2   1  UNL1       -0.2406
@<TRIPOS>BOND
     1     1     2    1
     2     5    13    1
     3    13    14    1
     4    13    15    1
     5    13    16    1
     6    11    17    1
     7    17    18   ar
     8    17    19   ar
     9     2     3   ar
    10     3     4   ar
    11     4     5   ar
    12     5     6   ar
    13     6     7   ar
    14     7     2   ar
    15     1     8   ar
    16     8     9   ar
    17     9    10   ar
    18    10    11   ar
    19    11    12   ar
    20    12     1   ar
