@<TRIPOS>MOLECULE
No_975-gen_results/8p0m/2024-11-26-14-13-15/
 35 39 0 0 0
SMALL
GASTEIGER

@<TRIPOS>ATOM
      1 C         -28.0162   -0.8135   28.8779 C.ar    1  UNL1       -0.0161
      2 C         -27.0636   -0.1190   28.6079 C.ar    1  UNL1       -0.0041
      3 C         -25.7647   -0.3897   29.0360 C.ar    1  UNL1       -0.0003
      4 C         -25.5296   -1.5302   29.9014 C.ar    1  UNL1        0.0001
      5 C         -26.4408   -2.2130   30.0940 C.ar    1  UNL1        0.0042
      6 C         -27.7549   -1.9968   29.7465 C.ar    1  UNL1        0.0497
      7 C         -24.5585    0.5005   28.7224 C.ar    1  UNL1        0.0003
      8 C         -23.3192    0.1329   28.9979 C.ar    1  UNL1        0.0000
      9 C         -22.1893    0.9297   28.6470 C.ar    1  UNL1        0.0003
     10 C         -22.4182    1.9459   27.6599 C.ar    1  UNL1        0.0074
     11 C         -24.6349    1.5817   27.7705 C.ar    1  UNL1        0.0074
     12 C         -23.7900    2.2032   27.3987 C.ar    1  UNL1        0.0823
     13 C         -28.8977   -2.8590   30.1715 C.2     1  UNL1        0.2489
     14 N         -30.0044   -2.4661   30.3142 N.am    1  UNL1       -0.2753
     15 O         -28.5676   -4.0902   30.5023 O.2     1  UNL1       -0.2699
     16 C         -31.1494   -3.3172   30.7216 C.3     1  UNL1        0.0975
     17 P         -24.0779    3.6532   26.5320 P.3     1  UNL1        0.3924
     18 O         -25.4530    3.7243   26.4385 O.3     1  UNL1       -0.2849
     19 O         -23.5547    3.3924   25.0133 O.2     1  UNL1       -0.2507
     20 O         -24.0420    4.7990   27.3178 O.3     1  UNL1       -0.1363
     21 C         -26.5699    4.2140   26.9474 C.3     1  UNL1        0.1782
     22 C         -27.7578    3.7556   26.5244 C.ar    1  UNL1        0.0078
     23 C         -27.9702    2.6904   25.8262 C.ar    1  UNL1       -0.0018
     24 C         -29.1904    2.1895   25.3169 C.ar    1  UNL1       -0.0002
     25 C         -30.3493    2.9827   25.5901 C.ar    1  UNL1       -0.0000
     26 C         -30.2574    4.1908   26.2985 C.ar    1  UNL1       -0.0002
     27 C         -28.9766    4.6285   26.7523 C.ar    1  UNL1       -0.0018
     28 C         -31.1575   -4.2180   31.3372 C.2     1  UNL1       -0.0113
     29 C         -32.2125   -2.2543   31.1040 C.3     1  UNL1        0.0244
     30 C         -32.3021   -1.1279   30.7007 C.3     1  UNL1        0.0038
     31 C         -31.2046   -0.4395   30.1039 C.3     1  UNL1        0.0202
     32 C         -30.1536   -1.0102   30.0181 C.3     1  UNL1        0.0802
     33 C         -29.0483   -0.3553   29.2990 C.3     1  UNL1        0.0463
     34 C         -31.0902   -5.3093   31.0124 C.2     1  UNL1       -0.0287
     35 C         -30.9854   -6.5986   31.8056 C.3     1  UNL1        0.0304
@<TRIPOS>BOND
     1     3     7    1
     2     6    13    1
     3    13    14   am
     4    13    15    2
     5    14    16    1
     6    12    17    1
     7    17    18    1
     8    17    19    2
     9    17    20    1
    10    18    21    1
    11    16    28    1
    12    16    29    1
    13    30    31    1
    14    14    32    1
    15     1    33    1
    16    32    33    1
    17    28    34    2
    18    34    35    1
    19    21    22    1
    20    29    30    1
    21    31    32    1
    22     1     2   ar
    23     2     3   ar
    24     3     4   ar
    25     4     5   ar
    26     5     6   ar
    27     6     1   ar
    28    22    23   ar
    29    23    24   ar
    30    24    25   ar
    31    25    26   ar
    32    26    27   ar
    33    27    22   ar
    34     7     8   ar
    35     8     9   ar
    36     9    10   ar
    37    10    12   ar
    38    12    11   ar
    39    11     7   ar
