@<TRIPOS>MOLECULE
No_976-gen_results/8p0m/2024-11-26-14-13-15/
 14 15 0 0 0
SMALL
GASTEIGER

@<TRIPOS>ATOM
      1 C         -28.0162   -0.8135   28.8779 C.ar    1  UNL1        0.0045
      2 C         -28.4690   -0.7850   29.8287 C.ar    1  UNL1        0.0536
      3 C         -26.5042   -0.7777   28.8766 C.ar    1  UNL1        0.0001
      4 C         -25.8103   -0.8531   30.1028 C.ar    1  UNL1        0.0000
      5 C         -27.9906   -0.8916   31.2257 C.ar    1  UNL1        0.0045
      6 C         -26.6042   -0.8676   31.2652 C.ar    1  UNL1        0.0001
      7 C         -30.0739   -0.8360   29.8615 C.2     1  UNL1        0.2490
      8 O         -30.6891   -1.6554   30.2229 O.2     1  UNL1       -0.2699
      9 N         -30.6139    0.2846   29.2227 N.am    1  UNL1       -0.2761
     10 C         -32.0200    0.3381   29.0215 C.3     1  UNL1        0.0937
     11 C         -29.8434    1.4262   28.7504 C.3     1  UNL1        0.0937
     12 C         -30.0267    2.0167   27.9025 C.3     1  UNL1        0.0216
     13 C         -32.3490    1.2027   27.8851 C.3     1  UNL1        0.0216
     14 C         -31.4223    2.1778   27.4225 C.3     1  UNL1        0.0035
@<TRIPOS>BOND
     1     2     7    1
     2     7     8    2
     3     7     9   am
     4     9    10    1
     5     9    11    1
     6    12    14    1
     7    13    14    1
     8    10    13    1
     9    12    11    1
    10     1     2   ar
    11     2     5   ar
    12     5     6   ar
    13     6     4   ar
    14     4     3   ar
    15     3     1   ar
