@<TRIPOS>MOLECULE
No_977-gen_results/8p0m/2024-11-26-14-13-15/
 18 19 0 0 0
SMALL
GASTEIGER

@<TRIPOS>ATOM
      1 C         -28.0162   -0.8135   28.8779 C.ar    1  UNL1       -0.0000
      2 C         -27.0636   -0.1190   28.6079 C.ar    1  UNL1       -0.0000
      3 C         -26.8756    1.1325   28.9134 C.ar    1  UNL1       -0.0001
      4 C         -25.6883    1.9515   28.5672 C.ar    1  UNL1        0.0039
      5 C         -24.6394    1.2834   27.8753 C.ar    1  UNL1        0.0714
      6 C         -24.8181   -0.0802   27.6166 C.ar    1  UNL1        0.0039
      7 C         -25.9311   -0.7717   27.9696 C.ar    1  UNL1       -0.0001
      8 C         -28.6536   -0.5272   30.2401 C.ar    1  UNL1       -0.0000
      9 C         -28.8474    0.8243   30.5135 C.ar    1  UNL1       -0.0000
     10 C         -27.6851    1.6562   30.0705 C.ar    1  UNL1       -0.0000
     11 C         -23.4724    1.9593   27.3589 C.3     1  UNL1        0.4186
     12 F         -22.4329    1.4331   27.6631 F       1  UNL1       -0.1659
     13 F         -23.5238    2.2128   26.0426 F       1  UNL1       -0.1659
     14 F         -23.2745    3.2202   27.9572 F       1  UNL1       -0.1659
     15 C         -27.5773    3.0668   30.5133 C.2     1  UNL1       -0.0000
     16 C         -26.6682    3.6993   30.8518 C.2     1  UNL1       -0.0000
     17 C         -26.5009    4.8602   31.3820 C.2     1  UNL1        0.0000
     18 C         -27.5709    5.6991   31.5258 C.2     1  UNL1        0.0000
@<TRIPOS>BOND
     1     5    11    1
     2    11    12    1
     3    11    13    1
     4    11    14    1
     5    10    15    1
     6    15    16    2
     7    16    17    1
     8    17    18    2
     9     3     4   ar
    10     4     5   ar
    11     5     6   ar
    12     6     7   ar
    13     7     2   ar
    14     1     2   ar
    15     2     3   ar
    16     3    10   ar
    17    10     9   ar
    18     9     8   ar
    19     8     1   ar
