@<TRIPOS>MOLECULE
No_978-gen_results/8p0m/2024-11-26-14-13-15/
 18 18 0 0 0
SMALL
GASTEIGER

@<TRIPOS>ATOM
      1 O         -28.1229   -1.3353   28.4874 O.2     1  UNL1       -0.2733
      2 C         -27.4806   -0.4044   28.7094 C.2     1  UNL1        0.2434
      3 C         -27.1904    0.2460   29.5268 C.3     1  UNL1        0.1084
      4 N         -26.6871   -0.0001   27.4423 N.am    1  UNL1       -0.2048
      5 C         -26.3501    1.4331   29.7418 C.3     1  UNL1        0.0247
      6 C         -25.8648    1.0936   27.4148 C.3     1  UNL1        0.1263
      7 C         -25.6589    1.8314   28.5720 C.3     1  UNL1        0.1255
      8 C         -24.7826    2.9683   28.5480 C.2     1  UNL1        0.3661
      9 O         -23.9503    3.1556   27.6719 O.co2   1  UNL1       -0.2456
     10 O         -25.1174    4.0501   29.2660 O.co2   1  UNL1       -0.2456
     11 C         -27.8908   -0.1071   30.9450 C.3     1  UNL1        0.1542
     12 O         -28.7638    0.7744   31.2895 O.3     1  UNL1       -0.3217
     13 C         -29.7741    0.5492   31.9452 C.3     1  UNL1        0.3649
     14 C         -30.5669   -0.1533   31.5282 C.3     1  UNL1        0.4531
     15 F         -30.6735   -0.5217   30.4549 F       1  UNL1       -0.1652
     16 F         -31.9738    0.2159   31.8562 F       1  UNL1       -0.1652
     17 O         -30.3967    1.8630   32.3761 O.3     1  UNL1       -0.1803
     18 F         -30.6100   -1.4670   32.1187 F       1  UNL1       -0.1652
@<TRIPOS>BOND
     1     1     2    2
     2     2     3    1
     3     2     4   am
     4     4     6    1
     5     5     7    1
     6     6     7    1
     7     7     8    1
     8     8     9   ar
     9     8    10   ar
    10     3    11    1
    11    11    12    1
    12    12    13    1
    13    13    14    1
    14    14    15    1
    15    14    16    1
    16    13    17    1
    17    14    18    1
    18     3     5    1
