@<TRIPOS>MOLECULE
No_979-gen_results/8p0m/2024-11-26-14-13-15/
 21 22 0 0 0
SMALL
GASTEIGER

@<TRIPOS>ATOM
      1 C         -28.0162   -0.8135   28.8779 C.ar    1  UNL1        0.0441
      2 C         -27.0636   -0.1190   28.6079 C.ar    1  UNL1        0.1455
      3 C         -25.7923   -0.4302   29.0761 C.ar    1  UNL1        0.0347
      4 C         -24.5456    0.3494   28.8225 C.ar    1  UNL1        0.0059
      5 C         -23.2409    0.0217   29.3323 C.ar    1  UNL1        0.0003
      6 C         -27.8820   -1.8995   29.8633 C.ar    1  UNL1        0.0828
      7 C         -26.6526   -2.3142   30.3138 C.ar    1  UNL1        0.0068
      8 C         -25.5153   -1.5607   29.9787 C.ar    1  UNL1        0.0032
      9 C         -22.1645    0.7936   28.9524 C.ar    1  UNL1        0.0031
     10 C         -22.1241    1.7484   27.9889 C.ar    1  UNL1        0.0369
     11 C         -24.3434    1.1968   27.6433 C.ar    1  UNL1        0.0370
     12 C         -23.2700    1.9328   27.3447 C.ar    1  UNL1        0.1387
     13 C         -29.0461   -2.7271   30.3004 C.2     1  UNL1        0.3879
     14 O         -30.0839   -2.4091   30.1110 O.co2   1  UNL1       -0.2406
     15 O         -28.7461   -3.8097   30.9804 O.co2   1  UNL1       -0.2406
     16 O         -23.3631    2.8247   26.3326 O.3     1  UNL1       -0.4714
     17 C         -24.6286    2.8273   25.7461 C.3     1  UNL1        0.2525
     18 O         -27.1440    0.9069   27.7394 O.3     1  UNL1       -0.4508
     19 C         -27.9212    1.9451   28.1718 C.2     1  UNL1        0.1750
     20 C         -27.8901    3.0334   27.4192 C.2     1  UNL1        0.0148
     21 C         -28.5684    4.1558   27.9041 C.3     1  UNL1        0.0341
@<TRIPOS>BOND
     1     3     4    1
     2     6    13    1
     3    13    14   ar
     4    13    15   ar
     5    12    16    1
     6    16    17    1
     7     2    18    1
     8    18    19    1
     9    19    20    2
    10    20    21    1
    11     1     2   ar
    12     2     3   ar
    13     3     8   ar
    14     8     7   ar
    15     7     6   ar
    16     6     1   ar
    17     4     5   ar
    18     5     9   ar
    19     9    10   ar
    20    10    12   ar
    21    12    11   ar
    22    11     4   ar
