@<TRIPOS>MOLECULE
No_98-gen_results/8p0m/2024-11-26-14-13-15/
 30 34 0 0 0
SMALL
GASTEIGER

@<TRIPOS>ATOM
      1 C         -28.0162   -0.8135   28.8779 C.ar    1  UNL1        0.1419
      2 C         -27.0636   -0.1189   28.6079 C.ar    1  UNL1        0.0690
      3 C         -26.9716    0.7139   27.5060 C.ar    1  UNL1        0.0057
      4 C         -28.1053    0.7744   26.6421 C.ar    1  UNL1        0.0069
      5 C         -29.2041    0.1179   27.0477 C.ar    1  UNL1        0.0828
      6 C         -29.2127   -0.6088   28.1281 C.ar    1  UNL1        0.0436
      7 C         -25.7106    1.4519   27.1380 C.ar    1  UNL1       -0.0002
      8 C         -24.6052    0.9253   27.6902 C.ar    1  UNL1        0.0088
      9 C         -24.6227    0.0600   28.8225 C.3     1  UNL1        0.1075
     10 C         -25.7269   -0.4734   29.2409 C.2     1  UNL1        0.1814
     11 C         -23.2726    1.6786   27.4284 C.ar    1  UNL1        0.1326
     12 N         -23.2122    2.7616   26.7043 N.ar    1  UNL1       -0.2395
     13 C         -22.0280    1.2590   28.0149 C.2     1  UNL1        0.2822
     14 N         -21.9176    0.3380   28.8994 N.am    1  UNL1       -0.1996
     15 C         -23.1635   -0.3622   29.2748 C.3     1  UNL1        0.1276
     16 O         -25.7038   -1.2627   30.2734 O.2     1  UNL1       -0.2908
     17 C         -30.4451    0.2875   26.2364 C.2     1  UNL1        0.3879
     18 O         -31.4870    0.2225   26.5998 O.co2   1  UNL1       -0.2406
     19 O         -30.2235    0.1698   24.8636 O.co2   1  UNL1       -0.2406
     20 O         -20.9196    1.8463   27.7187 O.2     1  UNL1       -0.2667
     21 C         -25.7841    2.4528   26.1055 C.ar    1  UNL1        0.0204
     22 C         -24.4068    3.1065   25.9296 C.ar    1  UNL1        0.0990
     23 O         -28.1866   -1.6373   29.9305 O.3     1  UNL1       -0.4705
     24 C         -29.2030   -1.5395   30.8411 C.3     1  UNL1        0.2320
     25 C         -29.0215   -0.7442   31.8343 C.ar    1  UNL1        0.0212
     26 C         -30.1353   -0.3797   32.5849 C.ar    1  UNL1       -0.0007
     27 C         -30.0737    0.6507   33.5466 C.ar    1  UNL1       -0.0002
     28 C         -28.8048    1.1505   33.9292 C.ar    1  UNL1       -0.0000
     29 C         -27.6498    0.7677   33.1810 C.ar    1  UNL1       -0.0002
     30 C         -27.8073   -0.1538   32.1516 C.ar    1  UNL1       -0.0007
@<TRIPOS>BOND
     1     3     7    1
     2     8     9    1
     3     2    10    1
     4     9    10    1
     5    11    13    1
     6    13    14   am
     7     9    15    1
     8    10    16    2
     9     5    17    1
    10    17    18   ar
    11    17    19   ar
    12    13    20    2
    13     1    23    1
    14    23    24    1
    15    24    25    1
    16    15    14    1
    17     1     2   ar
    18     2     3   ar
    19     3     4   ar
    20     4     5   ar
    21     5     6   ar
    22     6     1   ar
    23    25    26   ar
    24    26    27   ar
    25    27    28   ar
    26    28    29   ar
    27    29    30   ar
    28    30    25   ar
    29     7    21   ar
    30    21    22   ar
    31    22    12   ar
    32    12    11   ar
    33    11     8   ar
    34     8     7   ar
