@<TRIPOS>MOLECULE
No_981-gen_results/8p0m/2024-11-26-14-13-15/
 35 38 0 0 0
SMALL
GASTEIGER

@<TRIPOS>ATOM
      1 C         -28.0162   -0.8135   28.8779 C.ar    1  UNL1        0.0061
      2 C         -27.0636   -0.1189   28.6079 C.ar    1  UNL1        0.0002
      3 C         -26.9287    1.1713   29.0083 C.ar    1  UNL1       -0.0001
      4 C         -25.7702    2.0341   28.6884 C.ar    1  UNL1        0.0039
      5 C         -24.7141    1.4431   27.9188 C.ar    1  UNL1        0.0714
      6 C         -24.8590    0.0783   27.5836 C.ar    1  UNL1        0.0039
      7 C         -25.9647   -0.6606   27.9164 C.ar    1  UNL1       -0.0001
      8 C         -29.2431   -0.1966   29.1279 C.ar    1  UNL1        0.0378
      9 C         -30.3776   -0.9907   29.4760 C.ar    1  UNL1        0.1518
     10 C         -30.1680   -2.2239   30.0410 C.ar    1  UNL1        0.0750
     11 C         -28.9018   -2.7950   30.1380 C.ar    1  UNL1        0.1483
     12 C         -27.8265   -2.0945   29.6609 C.ar    1  UNL1        0.0377
     13 C         -23.4891    2.1164   27.5629 C.3     1  UNL1        0.4186
     14 F         -22.6203    1.6110   27.2723 F       1  UNL1       -0.1659
     15 F         -23.9074    3.0421   26.5016 F       1  UNL1       -0.1659
     16 F         -23.1796    3.0569   28.5861 F       1  UNL1       -0.1659
     17 O         -28.6720   -4.0180   30.6727 O.3     1  UNL1       -0.4534
     18 O         -31.5916   -0.4804   29.4376 O.3     1  UNL1       -0.4209
     19 C         -32.2521   -0.3902   28.3240 C.2     1  UNL1        0.3457
     20 C         -33.3435    0.3658   28.3546 C.ar    1  UNL1        0.0761
     21 C         -33.7779    0.9743   29.3427 C.ar    1  UNL1        0.0073
     22 C         -34.1180    0.4876   27.0411 C.ar    1  UNL1        0.0073
     23 C         -35.0133    1.7732   29.3760 C.ar    1  UNL1        0.0116
     24 C         -35.3085    1.2573   27.0930 C.ar    1  UNL1        0.0116
     25 C         -35.7251    1.8790   28.2039 C.ar    1  UNL1        0.0577
     26 O         -31.8081   -0.9471   27.2986 O.2     1  UNL1       -0.2445
     27 CL        -37.2220    2.6994   28.3206 Cl      1  UNL1       -0.0822
     28 C         -29.3002   -5.0449   30.3251 C.ar    1  UNL1        0.1453
     29 C         -29.8790   -5.6730   31.5219 C.ar    1  UNL1        0.0375
     30 C         -30.7396   -6.8375   31.2921 C.ar    1  UNL1        0.0031
     31 C         -31.2466   -7.0199   30.0169 C.ar    1  UNL1        0.0002
     32 C         -30.7995   -6.2512   28.9308 C.ar    1  UNL1        0.0030
     33 C         -29.8893   -5.1750   29.1680 C.ar    1  UNL1        0.0375
     34 C         -31.2829   -6.5142   27.5860 C.2     1  UNL1        0.0001
     35 C         -31.3811   -7.7150   27.0428 C.2     1  UNL1        0.0000
@<TRIPOS>BOND
     1     1     2    1
     2     5    13    1
     3    13    14    1
     4    13    15    1
     5    13    16    1
     6    11    17    1
     7     9    18    1
     8    18    19    1
     9    19    20    1
    10    19    26    2
    11    25    27    1
    12    17    28    1
    13    32    34    1
    14    34    35    2
    15    28    29   ar
    16    29    30   ar
    17    30    31   ar
    18    31    32   ar
    19    32    33   ar
    20    33    28   ar
    21     2     3   ar
    22     3     4   ar
    23     4     5   ar
    24     5     6   ar
    25     6     7   ar
    26     7     2   ar
    27    20    21   ar
    28    21    23   ar
    29    23    25   ar
    30    25    24   ar
    31    24    22   ar
    32    22    20   ar
    33     1     8   ar
    34     8     9   ar
    35     9    10   ar
    36    10    11   ar
    37    11    12   ar
    38    12     1   ar
