@<TRIPOS>MOLECULE
No_982-gen_results/8p0m/2024-11-26-14-13-15/
 9 9 0 0 0
SMALL
GASTEIGER

@<TRIPOS>ATOM
      1 C         -28.0162   -0.8135   28.8779 C.ar    1  UNL1       -0.0000
      2 C         -27.0636   -0.1189   28.6079 C.ar    1  UNL1       -0.0003
      3 C         -26.9287    1.1713   29.0083 C.ar    1  UNL1       -0.0000
      4 C         -27.9560    1.7411   29.7840 C.ar    1  UNL1       -0.0000
      5 C         -29.0569   -0.3271   29.7466 C.ar    1  UNL1       -0.0000
      6 C         -28.9828    0.9722   30.1516 C.ar    1  UNL1       -0.0000
      7 C         -25.8251   -0.4331   27.7536 C.2     1  UNL1       -0.0046
      8 C         -25.2568    0.4048   26.9032 C.2     1  UNL1       -0.0258
      9 C         -25.2482    1.7723   27.3234 C.3     1  UNL1        0.0307
@<TRIPOS>BOND
     1     2     7    1
     2     7     8    2
     3     8     9    1
     4     1     2   ar
     5     2     3   ar
     6     3     4   ar
     7     4     6   ar
     8     6     5   ar
     9     5     1   ar
