@<TRIPOS>MOLECULE
No_983-gen_results/8p0m/2024-11-26-14-13-15/
 9 9 0 0 0
SMALL
GASTEIGER

@<TRIPOS>ATOM
      1 O         -28.1229   -1.3353   28.4874 O.2     1  UNL1       -0.2541
      2 C         -27.4806   -0.4044   28.7094 C.2     1  UNL1        0.3334
      3 C         -26.3804   -0.0867   27.9394 C.ar    1  UNL1        0.0678
      4 F         -27.7306    0.3455   29.8481 F       1  UNL1       -0.1586
      5 C         -25.1283   -0.3314   28.3752 C.ar    1  UNL1        0.0056
      6 C         -26.5376    0.6088   26.6774 C.ar    1  UNL1        0.0056
      7 C         -23.9165    0.1748   27.6201 C.ar    1  UNL1        0.0002
      8 C         -25.4137    1.0237   25.9248 C.ar    1  UNL1        0.0002
      9 C         -24.1197    0.8405   26.4096 C.ar    1  UNL1        0.0000
@<TRIPOS>BOND
     1     1     2    2
     2     2     3    1
     3     2     4    1
     4     3     5   ar
     5     5     7   ar
     6     7     9   ar
     7     9     8   ar
     8     8     6   ar
     9     6     3   ar
