@<TRIPOS>MOLECULE
No_984-gen_results/8p0m/2024-11-26-14-13-15/
 29 31 0 0 0
SMALL
GASTEIGER

@<TRIPOS>ATOM
      1 C         -28.0162   -0.8135   28.8779 C.ar    1  UNL1       -0.0030
      2 C         -27.0636   -0.1189   28.6079 C.ar    1  UNL1       -0.0218
      3 C         -27.0010    0.6913   27.4910 C.ar    1  UNL1       -0.0008
      4 C         -28.1373    0.7363   26.6350 C.ar    1  UNL1        0.0661
      5 C         -29.2360    0.0765   27.0690 C.ar    1  UNL1        0.0501
      6 C         -29.2177   -0.6429   28.1747 C.ar    1  UNL1        0.0141
      7 N         -30.4585    0.0647   26.4120 N.pl3   1  UNL1       -0.3076
      8 C         -30.5457   -0.1345   25.1409 C.3     1  UNL1        0.0908
      9 C         -31.6851    0.2692   27.1044 C.3     1  UNL1        0.0908
     10 C         -25.6859   -0.2198   29.3882 C.3     1  UNL1        0.0325
     11 C         -25.2090    1.0267   30.0240 C.3     1  UNL1        0.0484
     12 C         -25.4175    1.2004   31.1267 C.ar    1  UNL1       -0.0205
     13 C         -24.9833    2.5030   31.8381 C.ar    1  UNL1       -0.0042
     14 C         -24.3746    1.8997   29.1689 C.3     1  UNL1        0.1198
     15 N         -23.9599    1.5744   27.9696 N.am    1  UNL1       -0.2051
     16 C         -25.4712    2.9526   33.0255 C.ar    1  UNL1       -0.0003
     17 C         -26.3104    2.0782   33.7210 C.ar    1  UNL1       -0.0000
     18 C         -26.6718    0.8458   33.2064 C.ar    1  UNL1       -0.0003
     19 C         -26.3076    0.4702   31.9568 C.ar    1  UNL1       -0.0042
     20 C         -22.6523    1.1521   27.9564 C.2     1  UNL1        0.2419
     21 C         -21.8554    1.7928   26.8801 C.3     1  UNL1        0.0964
     22 O         -22.2757    0.0058   28.4497 O.2     1  UNL1       -0.2733
     23 C         -32.7018   -0.0521   26.5608 C.3     1  UNL1        0.0215
     24 C         -31.7160   -0.5291   24.4483 C.3     1  UNL1        0.0215
     25 C         -32.8752   -0.3714   25.1908 C.3     1  UNL1        0.0035
     26 C         -28.1256    1.6149   25.4643 C.3     1  UNL1        0.3511
     27 F         -27.3135    1.1904   24.5916 F       1  UNL1       -0.1825
     28 CL        -27.5057    3.1493   25.9271 Cl      1  UNL1       -0.0423
     29 F         -29.2401    2.0804   24.9406 F       1  UNL1       -0.1825
@<TRIPOS>BOND
     1     5     7    1
     2     7     8    1
     3     7     9    1
     4     2    10    1
     5    10    11    1
     6    11    14    1
     7    14    15    1
     8    15    20   am
     9    20    21    1
    10    20    22    2
    11    23    25    1
    12    24    25    1
    13     4    26    1
    14    26    27    1
    15    26    28    1
    16    26    29    1
    17    11    12    1
    18     8    24    1
    19    23     9    1
    20     1     2   ar
    21     2     3   ar
    22     3     4   ar
    23     4     5   ar
    24     5     6   ar
    25     6     1   ar
    26    12    13   ar
    27    13    16   ar
    28    16    17   ar
    29    17    18   ar
    30    18    19   ar
    31    19    12   ar
