@<TRIPOS>MOLECULE
No_985-gen_results/8p0m/2024-11-26-14-13-15/
 21 22 0 0 0
SMALL
GASTEIGER

@<TRIPOS>ATOM
      1 C         -28.0162   -0.8135   28.8779 C.ar    1  UNL1        0.1404
      2 C         -27.0636   -0.1189   28.6079 C.ar    1  UNL1        0.0296
      3 C         -27.0010    0.6913   27.4910 C.ar    1  UNL1        0.0022
      4 C         -28.1373    0.7363   26.6350 C.ar    1  UNL1        0.0067
      5 C         -29.2360    0.0765   27.0690 C.ar    1  UNL1        0.0820
      6 C         -29.2177   -0.6429   28.1747 C.ar    1  UNL1        0.0362
      7 F         -28.0466   -1.5481   30.0087 F       1  UNL1       -0.2042
      8 C         -30.4219    0.1562   26.1804 C.2     1  UNL1        0.3878
      9 O         -31.3040   -0.4731   26.3606 O.co2   1  UNL1       -0.2406
     10 O         -30.3796    0.9304   25.0782 O.co2   1  UNL1       -0.2406
     11 C         -25.7040    1.4049   27.0944 C.ar    1  UNL1       -0.0023
     12 C         -25.2020    2.3395   28.1029 C.ar    1  UNL1       -0.0024
     13 C         -23.9704    2.9219   27.7955 C.ar    1  UNL1       -0.0026
     14 C         -23.2482    2.5268   26.6151 C.ar    1  UNL1       -0.0003
     15 C         -24.9606    1.0908   26.0057 C.ar    1  UNL1       -0.0003
     16 C         -23.7938    1.6615   25.7392 C.ar    1  UNL1       -0.0000
     17 C         -25.8568    2.7865   29.3103 C.3     1  UNL1        0.1178
     18 N         -26.4631    3.8726   29.4290 N.pl3   1  UNL1       -0.3009
     19 C         -27.3481    4.1940   30.3312 C.2     1  UNL1        0.0617
     20 C         -26.1551    4.9107   28.4868 C.3     1  UNL1        0.1125
     21 C         -28.4659    4.7230   30.0019 C.2     1  UNL1        0.0171
@<TRIPOS>BOND
     1     1     7    1
     2     5     8    1
     3     8     9   ar
     4     8    10   ar
     5     3    11    1
     6    12    17    1
     7    17    18    1
     8    18    19    1
     9    18    20    1
    10    19    21    2
    11     1     2   ar
    12     2     3   ar
    13     3     4   ar
    14     4     5   ar
    15     5     6   ar
    16     6     1   ar
    17    11    12   ar
    18    12    13   ar
    19    13    14   ar
    20    14    16   ar
    21    16    15   ar
    22    15    11   ar
