@<TRIPOS>MOLECULE
No_987-gen_results/8p0m/2024-11-26-14-13-15/
 35 39 0 0 0
SMALL
GASTEIGER

@<TRIPOS>ATOM
      1 C         -28.0162   -0.8135   28.8779 C.ar    1  UNL1       -0.0027
      2 C         -28.4690   -0.7850   29.8287 C.ar    1  UNL1       -0.0002
      3 C         -27.1356    0.2359   28.5352 C.ar    1  UNL1       -0.0037
      4 C         -26.3351    0.2900   27.2835 C.3     1  UNL1        0.0552
      5 C         -28.3692    0.1957   30.9236 C.ar    1  UNL1        0.0013
      6 C         -27.5158    1.2655   30.6540 C.ar    1  UNL1        0.0149
      7 C         -26.8411    1.2942   29.4761 C.ar    1  UNL1        0.0547
      8 C         -25.6774    1.5198   26.9774 C.ar    1  UNL1       -0.0037
      9 C         -24.6511    1.5543   26.2096 C.ar    1  UNL1       -0.0027
     10 C         -23.8845    2.8924   26.0981 C.ar    1  UNL1       -0.0002
     11 C         -24.3714    4.0010   26.8162 C.ar    1  UNL1        0.0013
     12 C         -25.5144    3.8796   27.5451 C.ar    1  UNL1        0.0149
     13 C         -26.1260    2.6350   27.7528 C.ar    1  UNL1        0.0547
     14 N         -26.7823    2.5336   28.9410 N.am    1  UNL1       -0.2345
     15 C         -27.2257    3.7324   29.5840 C.2     1  UNL1        0.2565
     16 O         -26.5128    4.2891   30.3632 O.2     1  UNL1       -0.2692
     17 C         -28.5728    4.1034   29.2539 C.ar    1  UNL1        0.0539
     18 C         -29.0637    5.0186   30.0287 C.ar    1  UNL1        0.0045
     19 C         -29.2814    3.5346   28.1767 C.ar    1  UNL1        0.0006
     20 C         -30.6128    3.8400   27.9759 C.ar    1  UNL1       -0.0176
     21 C         -30.4699    5.4243   29.7838 C.ar    1  UNL1       -0.0002
     22 C         -31.1900    4.8376   28.7624 C.ar    1  UNL1       -0.0039
     23 C         -31.3770    3.2294   26.9136 C.3     1  UNL1        0.0527
     24 C         -31.3194    2.0013   26.9033 C.ar    1  UNL1       -0.0148
     25 C         -31.5523    1.1674   27.8322 C.ar    1  UNL1        0.0336
     26 C         -31.5233   -0.2726   27.7321 C.ar    1  UNL1        0.1451
     27 C         -31.1908   -0.7658   26.4877 C.ar    1  UNL1        0.0375
     28 C         -30.8773    0.0190   25.4275 C.ar    1  UNL1        0.0024
     29 C         -30.9291    1.3650   25.5549 C.ar    1  UNL1       -0.0037
     30 O         -31.7703   -1.0833   28.7539 O.3     1  UNL1       -0.4504
     31 C         -32.2366   -0.5711   29.9108 C.2     1  UNL1        0.1796
     32 C         -30.4732   -0.5706   24.1610 C.2     1  UNL1       -0.0045
     33 C         -29.3096   -0.2035   23.5593 C.2     1  UNL1       -0.0258
     34 C         -28.2258    0.1592   24.4541 C.3     1  UNL1        0.0307
     35 C         -31.8683   -1.2893   31.0322 C.2     1  UNL1        0.0439
@<TRIPOS>BOND
     1     3     4    1
     2     4     8    1
     3     7    14    1
     4    13    14    1
     5    14    15   am
     6    15    16    2
     7    15    17    1
     8    20    23    1
     9    23    24    1
    10    26    30    1
    11    30    31    1
    12    28    32    1
    13    32    33    2
    14    33    34    1
    15    31    35    2
    16    24    25   ar
    17    25    26   ar
    18    26    27   ar
    19    27    28   ar
    20    28    29   ar
    21    29    24   ar
    22    17    18   ar
    23    18    21   ar
    24    21    22   ar
    25    22    20   ar
    26    20    19   ar
    27    19    17   ar
    28     1     2   ar
    29     2     5   ar
    30     5     6   ar
    31     6     7   ar
    32     7     3   ar
    33     3     1   ar
    34     8     9   ar
    35     9    10   ar
    36    10    11   ar
    37    11    12   ar
    38    12    13   ar
    39    13     8   ar
