@<TRIPOS>MOLECULE
No_988-gen_results/8p0m/2024-11-26-14-13-15/
 31 34 0 0 0
SMALL
GASTEIGER

@<TRIPOS>ATOM
      1 O         -28.1229   -1.3353   28.4874 O.2     1  UNL1       -0.2696
      2 C         -27.4806   -0.4044   28.7094 C.2     1  UNL1        0.2530
      3 C         -26.3804   -0.0867   27.9394 C.ar    1  UNL1        0.0536
      4 N         -27.6664    0.4468   29.8988 N.am    1  UNL1       -0.2500
      5 C         -26.4086    0.8567   26.8802 C.ar    1  UNL1        0.0044
      6 C         -25.0824   -0.6970   28.1699 C.ar    1  UNL1        0.0004
      7 C         -25.2842    1.0488   26.0470 C.ar    1  UNL1        0.0001
      8 C         -23.9159   -0.3440   27.4444 C.ar    1  UNL1       -0.0002
      9 C         -24.0618    0.5290   26.3707 C.ar    1  UNL1       -0.0000
     10 C         -28.7724    0.0990   30.7925 C.3     1  UNL1        0.1248
     11 C         -26.8467    1.5200   30.2210 C.2     1  UNL1        0.0638
     12 C         -26.1382    1.4748   31.0766 C.2     1  UNL1       -0.0053
     13 C         -26.0892    1.0022   32.2015 C.3     1  UNL1        0.0534
     14 C         -27.0283    0.5525   32.8126 C.ar    1  UNL1       -0.0201
     15 C         -28.1197   -0.2956   32.1176 C.ar    1  UNL1       -0.0056
     16 C         -24.8933   -1.6177   29.3328 C.2     1  UNL1       -0.0217
     17 C         -29.1082   -0.8597   33.0027 C.ar    1  UNL1       -0.0029
     18 C         -23.7951   -2.1072   29.7556 C.2     1  UNL1       -0.0046
     19 C         -28.7487   -1.1436   34.2338 C.ar    1  UNL1       -0.0003
     20 C         -27.7160   -0.5426   34.9685 C.ar    1  UNL1       -0.0003
     21 C         -26.8336    0.1674   34.2564 C.ar    1  UNL1       -0.0042
     22 C         -25.7503   -2.9216   29.2631 C.3     1  UNL1        0.0310
     23 C         -27.7247    1.3755   26.4486 C.ar    1  UNL1       -0.0000
     24 C         -28.8119    0.8629   26.5405 C.ar    1  UNL1       -0.0004
     25 C         -29.9772    1.4551   26.1222 C.ar    1  UNL1        0.0255
     26 C         -27.6635    2.6903   25.8988 C.ar    1  UNL1       -0.0000
     27 C         -28.7405    3.4085   25.4488 C.ar    1  UNL1       -0.0002
     28 C         -29.9653    2.7475   25.5767 C.ar    1  UNL1       -0.0004
     29 C         -31.3461    0.8386   26.3092 C.3     1  UNL1        0.2619
     30 CL        -32.4631    0.6470   25.2904 Cl      1  UNL1       -0.0719
     31 F         -31.5213    0.3324   27.5385 F       1  UNL1       -0.2143
@<TRIPOS>BOND
     1     1     2    2
     2     2     3    1
     3     2     4   am
     4     4    10    1
     5     4    11    1
     6    11    12    2
     7    12    13    1
     8    10    15    1
     9     6    16    1
    10    16    18    2
    11    16    22    1
    12     5    23    1
    13    25    29    1
    14    29    30    1
    15    29    31    1
    16    13    14    1
    17    23    24   ar
    18    24    25   ar
    19    25    28   ar
    20    28    27   ar
    21    27    26   ar
    22    26    23   ar
    23    14    15   ar
    24    15    17   ar
    25    17    19   ar
    26    19    20   ar
    27    20    21   ar
    28    21    14   ar
    29     3     5   ar
    30     5     7   ar
    31     7     9   ar
    32     9     8   ar
    33     8     6   ar
    34     6     3   ar
