@<TRIPOS>MOLECULE
No_989-gen_results/8p0m/2024-11-26-14-13-15/
 21 23 0 0 0
SMALL
GASTEIGER

@<TRIPOS>ATOM
      1 O         -28.1229   -1.3353   28.4874 O.2     1  UNL1       -0.2742
      2 C         -27.4806   -0.4044   28.7094 C.2     1  UNL1        0.2340
      3 C         -26.3804   -0.0867   27.9394 C.3     1  UNL1        0.1117
      4 N         -27.4232    0.1749   30.0549 N.am    1  UNL1       -0.2532
      5 C         -25.4065    0.7421   28.2860 C.ar    1  UNL1       -0.0132
      6 C         -24.3010    1.1589   27.4854 C.ar    1  UNL1        0.0256
      7 C         -23.2507    1.9038   28.0519 C.ar    1  UNL1        0.1398
      8 C         -23.2204    1.9881   29.4562 C.ar    1  UNL1        0.0293
      9 C         -24.2137    1.4699   30.2937 C.ar    1  UNL1       -0.0006
     10 C         -25.2194    0.7935   29.7100 C.ar    1  UNL1       -0.0053
     11 C         -26.3617    0.5332   30.5880 C.3     1  UNL1        0.1245
     12 C         -28.6989   -0.0264   30.7649 C.2     1  UNL1        0.0636
     13 F         -22.2618    2.3766   27.3399 F       1  UNL1       -0.2042
     14 C         -29.6992    0.4584   30.7201 C.2     1  UNL1       -0.0053
     15 C         -29.7951    1.6466   29.7854 C.3     1  UNL1        0.0536
     16 C         -28.9701    2.6070   29.9624 C.ar    1  UNL1       -0.0178
     17 C         -29.0397    3.3702   31.2272 C.ar    1  UNL1       -0.0039
     18 C         -28.0211    4.2442   31.5135 C.ar    1  UNL1       -0.0003
     19 C         -28.0568    3.1962   29.0248 C.ar    1  UNL1       -0.0039
     20 C         -27.1456    4.2652   29.2725 C.ar    1  UNL1       -0.0003
     21 C         -27.1679    4.8248   30.5641 C.ar    1  UNL1       -0.0000
@<TRIPOS>BOND
     1     1     2    2
     2     2     3    1
     3     2     4   am
     4     3     5    1
     5     4    11    1
     6    10    11    1
     7     4    12    1
     8     7    13    1
     9    12    14    2
    10    14    15    1
    11    15    16    1
    12    16    17   ar
    13    17    18   ar
    14    18    21   ar
    15    21    20   ar
    16    20    19   ar
    17    19    16   ar
    18     5     6   ar
    19     6     7   ar
    20     7     8   ar
    21     8     9   ar
    22     9    10   ar
    23    10     5   ar
