@<TRIPOS>MOLECULE
No_99-gen_results/8p0m/2024-11-26-14-13-15/
 20 22 0 0 0
SMALL
GASTEIGER

@<TRIPOS>ATOM
      1 C         -28.0162   -0.8135   28.8779 C.ar    1  UNL1        0.0302
      2 C         -27.0636   -0.1189   28.6079 C.ar    1  UNL1        0.1365
      3 C         -26.9287    1.1713   29.0083 C.ar    1  UNL1        0.0093
      4 C         -27.9560    1.7411   29.7840 C.ar    1  UNL1        0.0096
      5 C         -29.0569   -0.3271   29.7466 C.ar    1  UNL1        0.0137
      6 C         -28.9828    0.9722   30.1516 C.ar    1  UNL1        0.0575
      7 F         -26.0278   -0.5935   27.8711 F       1  UNL1       -0.2045
      8 CL        -30.2418    1.5803   31.1479 Cl      1  UNL1       -0.0823
      9 C         -25.7486    2.0101   28.5753 C.3     1  UNL1        0.0398
     10 C         -24.6223    1.8845   29.3105 C.3     1  UNL1        0.0082
     11 C         -23.3037    1.9108   28.5950 C.3     1  UNL1        0.0007
     12 C         -23.3110    2.2755   27.2084 C.3     1  UNL1        0.0000
     13 C         -24.5579    2.5010   26.5877 C.3     1  UNL1        0.0007
     14 C         -25.5771    1.9279   27.0771 C.3     1  UNL1        0.0082
     15 C         -26.1099    3.5951   28.8855 C.ar    1  UNL1       -0.0190
     16 C         -25.8156    4.0927   30.0122 C.ar    1  UNL1       -0.0040
     17 C         -26.1608    5.4672   30.2743 C.ar    1  UNL1       -0.0003
     18 C         -26.6988    6.2066   29.2067 C.ar    1  UNL1       -0.0000
     19 C         -26.7408    4.3634   27.8965 C.ar    1  UNL1       -0.0040
     20 C         -27.0509    5.6393   28.0693 C.ar    1  UNL1       -0.0003
@<TRIPOS>BOND
     1     2     7    1
     2     6     8    1
     3     3     9    1
     4     9    10    1
     5    11    12    1
     6     9    14    1
     7    13    14    1
     8     9    15    1
     9    10    11    1
    10    12    13    1
    11    15    16   ar
    12    16    17   ar
    13    17    18   ar
    14    18    20   ar
    15    20    19   ar
    16    19    15   ar
    17     1     2   ar
    18     2     3   ar
    19     3     4   ar
    20     4     6   ar
    21     6     5   ar
    22     5     1   ar
