@<TRIPOS>MOLECULE
No_990-gen_results/8p0m/2024-11-26-14-13-15/
 13 13 0 0 0
SMALL
GASTEIGER

@<TRIPOS>ATOM
      1 F         -28.0727   -1.2542   28.5316 F       1  UNL1       -0.2042
      2 C         -27.3591   -0.3792   28.7224 C.ar    1  UNL1        0.1401
      3 C         -27.7014    0.7608   29.1249 C.ar    1  UNL1        0.0296
      4 C         -25.8844   -0.6918   28.4374 C.ar    1  UNL1        0.0296
      5 C         -24.9212    0.3779   28.6013 C.ar    1  UNL1        0.0016
      6 C         -26.6962    1.8778   29.2780 C.ar    1  UNL1        0.0023
      7 C         -25.3214    1.6174   29.0139 C.ar    1  UNL1        0.0001
      8 C         -23.5101    0.1538   28.3673 C.2     1  UNL1       -0.0083
      9 C         -22.6270    0.3312   29.1133 C.2     1  UNL1       -0.0413
     10 C         -21.3896    0.4090   29.2737 C.3     1  UNL1        0.0576
     11 C         -23.1544    0.1337   30.5692 C.3     1  UNL1        0.0264
     12 C         -20.6478   -0.4967   28.8005 C.3     1  UNL1        0.1864
     13 O         -21.0929   -1.6764   28.8219 O.3     1  UNL1       -0.2201
@<TRIPOS>BOND
     1     1     2    1
     2     5     8    1
     3     8     9    2
     4     9    10    1
     5     9    11    1
     6    10    12    1
     7    12    13    1
     8     2     3   ar
     9     3     6   ar
    10     6     7   ar
    11     7     5   ar
    12     5     4   ar
    13     4     2   ar
