@<TRIPOS>MOLECULE
No_991-gen_results/8p0m/2024-11-26-14-13-15/
 32 35 0 0 0
SMALL
GASTEIGER

@<TRIPOS>ATOM
      1 O         -28.1229   -1.3353   28.4874 O.2     1  UNL1       -0.2728
      2 C         -27.0637   -0.8242   28.8687 C.2     1  UNL1        0.2497
      3 N         -25.9773   -1.1378   28.8137 N.am    1  UNL1       -0.2053
      4 C         -24.7669   -0.3464   29.1634 C.3     1  UNL1        0.1126
      5 C         -27.1956    0.6551   29.5913 C.3     1  UNL1        0.1565
      6 C         -24.9526    0.8453   29.7586 C.3     1  UNL1        0.0937
      7 C         -26.1881    1.3390   29.9057 C.3     1  UNL1        0.0375
      8 C         -23.4124   -0.9077   29.0012 C.3     1  UNL1        0.0402
      9 C         -23.0582   -2.1107   29.0443 C.3     1  UNL1        0.0911
     10 C         -22.3752    0.1232   28.6498 C.3     1  UNL1        0.0220
     11 C         -22.6178    1.4453   28.3450 C.3     1  UNL1        0.0888
     12 N         -23.7884    2.0144   28.8600 N.3     1  UNL1       -0.2177
     13 N         -23.9741   -3.0125   29.4103 N.3     1  UNL1       -0.2066
     14 C         -24.3389   -4.1215   28.6345 C.3     1  UNL1        0.2028
     15 C         -25.3480   -4.9688   29.3696 C.2     1  UNL1        0.3823
     16 O         -25.4870   -6.0821   29.2540 O.co2   1  UNL1       -0.2440
     17 O         -26.2641   -4.2638   30.0441 O.co2   1  UNL1       -0.2440
     18 C         -28.6826    1.0130   29.7040 C.2     1  UNL1        0.2415
     19 N         -29.3197    0.8181   30.6182 N.am    1  UNL1       -0.2370
     20 C         -28.8836    0.8853   31.8139 C.ar    1  UNL1        0.0581
     21 C         -30.7029    0.3341   30.4723 C.ar    1  UNL1        0.0581
     22 O         -29.0885    1.6762   28.6107 O.2     1  UNL1       -0.2737
     23 C         -28.9560    1.8784   32.5532 C.ar    1  UNL1        0.0152
     24 C         -28.3524    2.0046   33.8581 C.ar    1  UNL1        0.0013
     25 C         -27.6996    0.8984   34.4393 C.ar    1  UNL1        0.0001
     26 C         -28.0784   -0.2921   32.4531 C.ar    1  UNL1        0.0152
     27 C         -27.5576   -0.2284   33.7067 C.ar    1  UNL1        0.0013
     28 C         -30.8962   -0.8610   30.1512 C.ar    1  UNL1        0.0152
     29 C         -31.8603   -1.3949   30.3551 C.ar    1  UNL1        0.0013
     30 C         -33.0567   -0.7265   30.6987 C.ar    1  UNL1        0.0001
     31 C         -32.9181    0.6080   31.0346 C.ar    1  UNL1        0.0013
     32 C         -31.6730    1.1741   31.0492 C.ar    1  UNL1        0.0152
@<TRIPOS>BOND
     1     1     2    2
     2     2     3   am
     3     3     4    1
     4     2     5    1
     5     5     7    1
     6     6     7    1
     7     4     8    1
     8     8    10    1
     9    10    11    1
    10     6    12    1
    11    11    12    1
    12     9    13    1
    13    13    14    1
    14    14    15    1
    15    15    16   ar
    16    15    17   ar
    17     5    18    1
    18    18    19   am
    19    19    20    1
    20    19    21    1
    21    18    22    2
    22     9     8    1
    23     4     6    1
    24    20    23   ar
    25    23    24   ar
    26    24    25   ar
    27    25    27   ar
    28    27    26   ar
    29    26    20   ar
    30    21    28   ar
    31    28    29   ar
    32    29    30   ar
    33    30    31   ar
    34    31    32   ar
    35    32    21   ar
