@<TRIPOS>MOLECULE
No_992-gen_results/8p0m/2024-11-26-14-13-15/
 11 12 0 0 0
SMALL
GASTEIGER

@<TRIPOS>ATOM
      1 C         -28.0162   -0.8135   28.8779 C.ar    1  UNL1        0.0001
      2 C         -28.4690   -0.7850   29.8287 C.ar    1  UNL1        0.0000
      3 C         -27.0871    0.2903   28.6377 C.ar    1  UNL1        0.0022
      4 C         -26.8317    1.2487   29.5869 C.ar    1  UNL1        0.0275
      5 C         -28.3292   -0.0397   30.8362 C.ar    1  UNL1        0.0001
      6 C         -27.4945    1.0625   30.7933 C.ar    1  UNL1        0.0022
      7 C         -26.3215    0.4301   27.3429 C.ar    1  UNL1        0.0001
      8 C         -25.5405    1.6125   27.1784 C.ar    1  UNL1        0.0023
      9 C         -25.3330    2.4964   28.1907 C.ar    1  UNL1        0.0296
     10 C         -25.9970    2.3794   29.3913 C.ar    1  UNL1        0.1401
     11 F         -25.7777    3.2785   30.3353 F       1  UNL1       -0.2042
@<TRIPOS>BOND
     1    10    11    1
     2     4    10   ar
     3    10     9   ar
     4     9     8   ar
     5     8     7   ar
     6     7     3   ar
     7     1     2   ar
     8     2     5   ar
     9     5     6   ar
    10     6     4   ar
    11     4     3   ar
    12     3     1   ar
