@<TRIPOS>MOLECULE
No_993-gen_results/8p0m/2024-11-26-14-13-15/
 15 16 0 0 0
SMALL
GASTEIGER

@<TRIPOS>ATOM
      1 C         -28.0162   -0.8135   28.8779 C.ar    1  UNL1       -0.0026
      2 C         -27.0636   -0.1190   28.6079 C.ar    1  UNL1       -0.0024
      3 C         -26.9287    1.1713   29.0083 C.ar    1  UNL1       -0.0026
      4 C         -27.9560    1.7411   29.7840 C.ar    1  UNL1       -0.0003
      5 C         -29.0569   -0.3271   29.7466 C.ar    1  UNL1       -0.0003
      6 C         -28.9828    0.9722   30.1516 C.ar    1  UNL1       -0.0000
      7 C         -25.8815   -0.6260   27.7945 C.3     1  UNL1        0.1179
      8 N         -24.6421   -0.3005   28.1531 N.pl3   1  UNL1       -0.3004
      9 C         -23.9456   -1.1124   28.9868 C.2     1  UNL1        0.0572
     10 C         -22.6225   -0.6261   29.3630 C.2     1  UNL1       -0.0083
     11 C         -22.4267    0.6222   28.6323 C.3     1  UNL1        0.0516
     12 C         -23.8562    0.8091   27.8972 C.3     1  UNL1        0.0994
     13 C         -24.0259    1.9091   27.0400 C.2     1  UNL1       -0.0110
     14 C         -24.7637    2.9808   27.3752 C.2     1  UNL1       -0.0287
     15 C         -24.9152    4.0910   26.4361 C.3     1  UNL1        0.0304
@<TRIPOS>BOND
     1     2     7    1
     2     7     8    1
     3     8     9    1
     4     9    10    2
     5    10    11    1
     6     8    12    1
     7    11    12    1
     8    12    13    1
     9    13    14    2
    10    14    15    1
    11     1     2   ar
    12     2     3   ar
    13     3     4   ar
    14     4     6   ar
    15     6     5   ar
    16     5     1   ar
