@<TRIPOS>MOLECULE
No_994-gen_results/8p0m/2024-11-26-14-13-15/
 26 27 0 0 0
SMALL
GASTEIGER

@<TRIPOS>ATOM
      1 C         -28.0162   -0.8135   28.8779 C.ar    1  UNL1        0.0111
      2 C         -28.4690   -0.7850   29.8287 C.ar    1  UNL1        0.0801
      3 C         -28.1960    0.3478   28.0550 C.ar    1  UNL1        0.0543
      4 C         -29.0191    1.3501   28.3782 C.ar    1  UNL1        0.0111
      5 C         -29.4107    0.1803   30.3782 C.ar    1  UNL1        0.0132
      6 C         -29.6059    1.2495   29.6193 C.ar    1  UNL1        0.0801
      7 C         -27.3287    0.2486   26.8200 C.2     1  UNL1        0.2528
      8 N         -27.7119    0.5479   25.7451 N.am    1  UNL1       -0.2525
      9 O         -26.0489   -0.0351   26.9431 O.2     1  UNL1       -0.2696
     10 C         -29.0692    0.8915   25.4162 C.2     1  UNL1        0.0635
     11 C         -27.0118   -0.1343   24.6224 C.3     1  UNL1        0.1204
     12 C         -30.5426    2.3470   30.0126 C.2     1  UNL1        0.3878
     13 O         -30.2938    3.0631   30.8997 O.co2   1  UNL1       -0.2406
     14 O         -31.7158    2.2558   29.4557 O.co2   1  UNL1       -0.2406
     15 C         -29.7428    0.2822   24.3587 C.2     1  UNL1       -0.0069
     16 C         -30.5480   -0.7479   24.6357 C.ar    1  UNL1       -0.0019
     17 C         -30.9505   -1.1055   25.9160 C.ar    1  UNL1        0.0111
     18 C         -31.9280   -2.0513   26.2045 C.ar    1  UNL1        0.0577
     19 C         -32.3771   -2.8019   25.1008 C.ar    1  UNL1        0.0114
     20 C         -32.0374   -2.5279   23.8086 C.ar    1  UNL1        0.0009
     21 C         -31.1850   -1.4989   23.6044 C.ar    1  UNL1       -0.0002
     22 CL        -32.3888   -2.4799   27.7910 Cl      1  UNL1       -0.0822
     23 C         -28.4107   -2.0384   30.8708 C.2     1  UNL1        0.3878
     24 O         -28.2313   -2.0286   31.9101 O.co2   1  UNL1       -0.2406
     25 O         -28.5304   -3.2733   30.1824 O.co2   1  UNL1       -0.2406
     26 C         -30.2586    1.4125   23.4823 C.3     1  UNL1        0.0324
@<TRIPOS>BOND
     1     3     7    1
     2     7     8   am
     3     7     9    2
     4     8    10    1
     5     8    11    1
     6     6    12    1
     7    12    13   ar
     8    12    14   ar
     9    10    15    2
    10    15    16    1
    11    18    22    1
    12     2    23    1
    13    23    24   ar
    14    23    25   ar
    15    15    26    1
    16     1     2   ar
    17     2     5   ar
    18     5     6   ar
    19     6     4   ar
    20     4     3   ar
    21     3     1   ar
    22    16    17   ar
    23    17    18   ar
    24    18    19   ar
    25    19    20   ar
    26    20    21   ar
    27    21    16   ar
