@<TRIPOS>MOLECULE
No_996-gen_results/8p0m/2024-11-26-14-13-15/
 31 33 0 0 0
SMALL
GASTEIGER

@<TRIPOS>ATOM
      1 C         -28.0162   -0.8135   28.8779 C.ar    1  UNL1       -0.0043
      2 C         -28.4690   -0.7850   29.8287 C.ar    1  UNL1       -0.0003
      3 C         -26.5042   -0.7777   28.8766 C.ar    1  UNL1       -0.0221
      4 C         -25.6540   -0.6597   27.7191 C.3     1  UNL1        0.0443
      5 C         -28.1834   -0.8426   30.8354 C.ar    1  UNL1       -0.0003
      6 C         -26.7573   -0.8210   31.2264 C.ar    1  UNL1       -0.0043
      7 C         -25.8874   -0.7938   30.1755 C.ar    1  UNL1       -0.0221
      8 C         -25.8515    0.3677   26.7874 C.ar    1  UNL1       -0.0183
      9 C         -24.8464    0.7885   26.0119 C.ar    1  UNL1       -0.0040
     10 C         -24.0301    1.7487   26.0846 C.ar    1  UNL1       -0.0002
     11 C         -24.1832    2.6878   27.1579 C.ar    1  UNL1        0.0046
     12 C         -25.4113    2.7140   27.8325 C.ar    1  UNL1        0.0552
     13 C         -26.1805    1.7400   27.8738 C.ar    1  UNL1        0.0006
     14 C         -25.6336    3.8143   28.7768 C.2     1  UNL1        0.2715
     15 O         -25.4765    3.6929   29.9338 O.2     1  UNL1       -0.2679
     16 N         -25.7941    5.1097   28.1818 N.am    1  UNL1       -0.1371
     17 C         -25.9452    6.2950   29.0286 C.2     1  UNL1        0.2716
     18 C         -25.8916    6.3417   30.1511 C.ar    1  UNL1        0.0555
     19 C         -26.5826    5.7229   31.0321 C.ar    1  UNL1        0.0046
     20 C         -26.3116    5.9365   32.4317 C.ar    1  UNL1        0.0001
     21 C         -25.3022    6.8016   32.8817 C.ar    1  UNL1        0.0000
     22 C         -24.5287    7.4377   31.9065 C.ar    1  UNL1        0.0001
     23 C         -24.7255    7.2390   30.5934 C.ar    1  UNL1        0.0046
     24 O         -26.3677    7.2173   28.2021 O.2     1  UNL1       -0.2679
     25 C         -24.4760   -0.7534   30.3627 C.3     1  UNL1        0.0436
     26 C         -23.7379    0.4327   30.1847 C.2     1  UNL1       -0.0267
     27 C         -22.3339    0.4117   30.0161 C.2     1  UNL1       -0.0304
     28 C         -21.7208    1.1525   29.0984 C.3     1  UNL1        0.0257
     29 C         -23.8579   -1.9862   30.6533 C.3     1  UNL1        0.0094
     30 C         -20.7876    0.5012   28.1167 C.3     1  UNL1        0.0050
     31 C         -24.8370   -1.7496   27.3922 C.3     1  UNL1        0.0094
@<TRIPOS>BOND
     1     3     4    1
     2     4     8    1
     3    12    14    1
     4    14    15    2
     5    14    16   am
     6    16    17   am
     7    17    18    1
     8    17    24    2
     9     7    25    1
    10    25    26    1
    11    26    27    2
    12    27    28    1
    13    25    29    1
    14    28    30    1
    15     4    31    1
    16    18    19   ar
    17    19    20   ar
    18    20    21   ar
    19    21    22   ar
    20    22    23   ar
    21    23    18   ar
    22     8     9   ar
    23     9    10   ar
    24    10    11   ar
    25    11    12   ar
    26    12    13   ar
    27    13     8   ar
    28     1     2   ar
    29     2     5   ar
    30     5     6   ar
    31     6     7   ar
    32     7     3   ar
    33     3     1   ar
