@<TRIPOS>MOLECULE
No_997-gen_results/8p0m/2024-11-26-14-13-15/
 35 37 0 0 0
SMALL
GASTEIGER

@<TRIPOS>ATOM
      1 C         -28.0162   -0.8135   28.8779 C.ar    1  UNL1       -0.0042
      2 C         -28.4690   -0.7850   29.8287 C.ar    1  UNL1       -0.0003
      3 C         -26.5042   -0.7777   28.8766 C.ar    1  UNL1       -0.0201
      4 C         -25.6540   -0.6597   27.7191 C.3     1  UNL1        0.0692
      5 C         -28.1834   -0.8426   30.8354 C.ar    1  UNL1       -0.0003
      6 C         -26.7573   -0.8210   31.2264 C.ar    1  UNL1       -0.0043
      7 C         -25.8874   -0.7938   30.1755 C.ar    1  UNL1       -0.0220
      8 C         -25.8515    0.3677   26.7874 C.2     1  UNL1        0.0554
      9 C         -24.8464    0.7885   26.0119 C.2     1  UNL1        0.0122
     10 C         -24.0301    1.7487   26.0846 C.2     1  UNL1       -0.0032
     11 C         -24.1832    2.6878   27.1579 C.2     1  UNL1       -0.0214
     12 C         -25.4113    2.7140   27.8325 C.3     1  UNL1        0.0523
     13 N         -27.1178    0.6881   26.5322 N.am    1  UNL1       -0.1820
     14 C         -25.5260    3.6727   29.0295 C.ar    1  UNL1       -0.0178
     15 C         -26.0367    3.0250   30.0818 C.ar    1  UNL1       -0.0001
     16 C         -25.7813    3.5638   31.3584 C.ar    1  UNL1        0.0711
     17 C         -25.4503    4.9085   31.5012 C.ar    1  UNL1        0.0038
     18 C         -25.1358    5.5994   30.3069 C.ar    1  UNL1       -0.0004
     19 C         -25.0825    4.9306   29.0940 C.ar    1  UNL1       -0.0039
     20 C         -27.6401    1.0800   25.3818 C.2     1  UNL1        0.2630
     21 C         -29.0265    1.3567   25.2181 C.3     1  UNL1        0.1757
     22 O         -27.0090    0.6774   24.3392 O.2     1  UNL1       -0.2714
     23 C         -24.4687   -0.7704   30.3685 C.3     1  UNL1        0.0436
     24 C         -23.8772    0.4456   30.4804 C.2     1  UNL1       -0.0267
     25 C         -23.7869   -1.9814   30.2347 C.3     1  UNL1        0.0087
     26 C         -22.4416    0.5891   30.1671 C.2     1  UNL1       -0.0304
     27 C         -22.0566   -0.0618   29.0282 C.3     1  UNL1        0.0257
     28 C         -21.9012   -1.5309   29.0454 C.3     1  UNL1        0.0047
     29 C         -23.0030   -2.2545   29.2928 C.3     1  UNL1        0.0010
     30 C         -26.3312    2.8371   32.6118 C.3     1  UNL1        0.4186
     31 F         -25.9431    1.6581   32.5853 F       1  UNL1       -0.1659
     32 F         -25.7379    3.3737   33.7231 F       1  UNL1       -0.1659
     33 F         -27.6195    2.9196   32.7207 F       1  UNL1       -0.1659
     34 N         -29.6298    2.2357   25.9072 N.3     1  UNL1       -0.2070
     35 C         -30.7492    2.3069   26.4082 C.3     1  UNL1        0.1080
@<TRIPOS>BOND
     1     3     4    1
     2     4     8    1
     3     8     9    2
     4     9    10    1
     5    10    11    2
     6    11    12    1
     7     8    13    1
     8    12    14    1
     9    13    20   am
    10    20    21    1
    11    20    22    2
    12     7    23    1
    13    23    24    1
    14    23    25    1
    15    24    26    2
    16    26    27    1
    17    27    28    1
    18    25    29    1
    19    28    29    1
    20    16    30    1
    21    30    31    1
    22    30    32    1
    23    30    33    1
    24    21    34    1
    25    34    35    1
    26    14    15   ar
    27    15    16   ar
    28    16    17   ar
    29    17    18   ar
    30    18    19   ar
    31    19    14   ar
    32     1     2   ar
    33     2     5   ar
    34     5     6   ar
    35     6     7   ar
    36     7     3   ar
    37     3     1   ar
