No_0-gen_results/8p0m/2024-11-26-14-13-15/
     RDKit          3D

 35 38  0  0  0  0  0  0  0  0999 V2000
  -28.0162   -0.8135   28.8779 C   0  0  0  0  0  0  0  0  0  0  0  0
  -27.0636   -0.1189   28.6079 C   0  0  0  0  0  0  0  0  0  0  0  0
  -25.7923   -0.4302   29.0761 C   0  0  0  0  0  0  0  0  0  0  0  0
  -25.2700   -0.0487   30.0123 C   0  0  0  0  0  0  0  0  0  0  0  0
  -29.2965   -0.1838   28.9398 C   0  0  0  0  0  0  0  0  0  0  0  0
  -29.5648    0.8003   28.0352 C   0  0  0  0  0  0  0  0  0  0  0  0
  -28.4695    1.4413   27.4238 C   0  0  0  0  0  0  0  0  0  0  0  0
  -27.1368    1.0792   27.7975 C   0  0  0  0  0  0  0  0  0  0  0  0
  -23.8989   -0.3559   30.5250 C   0  0  0  0  0  0  0  0  0  0  0  0
  -23.1075   -1.1950   29.7370 C   0  0  0  0  0  0  0  0  0  0  0  0
  -23.6421   -1.6781   28.5918 C   0  0  0  0  0  0  0  0  0  0  0  0
  -24.9086   -1.3299   28.1894 C   0  0  0  0  0  0  0  0  0  0  0  0
  -30.9046    1.2986   27.7729 C   0  0  0  0  0  0  0  0  0  0  0  0
  -31.3208    1.7046   26.8166 O   0  0  0  0  0  0  0  0  0  0  0  0
  -31.8030    1.1410   28.8483 N   0  0  0  0  0  0  0  0  0  0  0  0
  -33.1638    1.5340   28.7313 C   0  0  0  0  0  0  0  0  0  0  0  0
  -33.9561    0.9071   29.4993 C   0  0  0  0  0  0  0  0  0  0  0  0
  -35.2319    1.0332   29.5535 C   0  0  0  0  0  0  0  0  0  0  0  0
  -35.8007    2.0458   28.6201 C   0  0  0  0  0  0  0  0  0  0  0  0
  -34.9509    2.6999   27.7827 C   0  0  0  0  0  0  0  0  0  0  0  0
  -33.5669    2.4830   27.8109 C   0  0  0  0  0  0  0  0  0  0  0  0
  -37.2072    2.2644   28.8357 C   0  0  0  0  0  0  0  0  0  0  0  0
  -37.6607    3.5045   28.5871 C   0  0  0  0  0  0  0  0  0  0  0  0
  -39.0015    3.8444   28.8359 C   0  0  0  0  0  0  0  0  0  0  0  0
  -39.8739    2.7969   29.2143 C   0  0  0  0  0  0  0  0  0  0  0  0
  -39.3798    1.5508   29.4038 C   0  0  0  0  0  0  0  0  0  0  0  0
  -38.0396    1.2798   29.2792 C   0  0  0  0  0  0  0  0  0  0  0  0
  -41.3037    3.0882   29.4033 C   0  0  0  0  0  0  0  0  0  0  0  0
  -41.6593    4.1964   29.7995 N   0  0  0  0  0  0  0  0  0  0  0  0
  -42.0733    2.1422   29.1785 O   0  0  0  0  0  0  0  0  0  0  0  0
  -40.9382    5.3601   30.2180 C   0  0  0  0  0  0  0  0  0  0  0  0
  -41.6335    6.5062   30.4984 C   0  0  0  0  0  0  0  0  0  0  0  0
  -40.9221    7.5552   31.1271 C   0  0  0  0  0  0  0  0  0  0  0  0
  -39.5414    7.5059   31.2827 C   0  0  0  0  0  0  0  0  0  0  0  0
  -38.8643    6.3378   30.9531 C   0  0  0  0  0  0  0  0  0  0  0  0
  2  3  1  0
  6 13  1  0
 13 14  2  0
 13 15  1  0
 15 16  1  0
 19 22  1  0
 25 28  1  0
 28 29  1  0
 28 30  2  0
 29 31  1  0
 31 32  2  3
 32 33  1  0
 33 34  2  3
 34 35  1  0
  1  2  2  0
  2  8  1  0
  8  7  2  0
  7  6  1  0
  6  5  2  0
  5  1  1  0
  3  4  2  0
  4  9  1  0
  9 10  2  0
 10 11  1  0
 11 12  2  0
 12  3  1  0
 22 23  2  0
 23 24  1  0
 24 25  2  0
 25 26  1  0
 26 27  2  0
 27 22  1  0
 16 17  2  0
 17 18  1  0
 18 19  2  0
 19 20  1  0
 20 21  2  0
 21 16  1  0
M  END

$$$$
