No_1888-gen_results/8p0m/2024-11-26-14-13-15/
     RDKit          3D

 24 26  0  0  0  0  0  0  0  0999 V2000
  -28.0162   -0.8135   28.8779 C   0  0  0  0  0  0  0  0  0  0  0  0
  -27.0636   -0.1189   28.6079 C   0  0  0  0  0  0  0  0  0  0  0  0
  -26.8756    1.1325   28.9134 C   0  0  0  0  0  0  0  0  0  0  0  0
  -25.6883    1.9515   28.5672 C   0  0  0  0  0  0  0  0  0  0  0  0
  -24.6394    1.2834   27.8753 C   0  0  0  0  0  0  0  0  0  0  0  0
  -24.8068   -0.0513   27.6040 C   0  0  0  0  0  0  0  0  0  0  0  0
  -25.9019   -0.7670   27.9511 C   0  0  0  0  0  0  0  0  0  0  0  0
  -29.2125   -0.1153   29.1222 C   0  0  0  0  0  0  0  0  0  0  0  0
  -29.1930    1.2206   29.4151 C   0  0  0  0  0  0  0  0  0  0  0  0
  -28.0327    1.9256   29.1788 C   0  0  0  0  0  0  0  0  0  0  0  0
  -23.3540    1.8898   27.5892 C   0  0  0  0  0  0  0  0  0  0  0  0
  -23.1789    2.6305   26.7506 O   0  0  0  0  0  0  0  0  0  0  0  0
  -22.2101    1.4155   28.3583 O   0  0  0  0  0  0  0  0  0  0  0  0
  -25.4777    3.3728   28.9092 C   0  0  0  0  0  0  0  0  0  0  0  0
  -25.4641    3.9850   30.0210 C   0  0  0  0  0  0  0  0  0  0  0  0
  -25.5320    5.3763   30.2244 C   0  0  0  0  0  0  0  0  0  0  0  0
  -25.5330    5.9511   31.4528 N   0  0  0  0  0  0  0  0  0  0  0  0
  -25.4915    6.2158   29.2323 O   0  0  0  0  0  0  0  0  0  0  0  0
  -25.4489    7.3869   31.7420 C   0  0  0  0  0  0  0  0  0  0  0  0
  -25.7927    8.2231   31.2157 C   0  0  0  0  0  0  0  0  0  0  0  0
  -25.6281    9.6339   31.5653 C   0  0  0  0  0  0  0  0  0  0  0  0
  -25.1020    7.6203   33.1809 C   0  0  0  0  0  0  0  0  0  0  0  0
  -24.9633    8.9205   33.6687 C   0  0  0  0  0  0  0  0  0  0  0  0
  -25.2730    9.9528   32.8333 C   0  0  0  0  0  0  0  0  0  0  0  0
  5 11  1  0
 11 12  2  0
 11 13  1  0
  4 14  1  0
 14 15  2  3
 15 16  1  0
 16 17  1  0
 16 18  2  0
 17 19  1  0
  3  4  1  0
  4  5  2  0
  5  6  1  0
  6  7  2  0
  7  2  1  0
 19 20  2  0
 20 21  1  0
 21 24  2  0
 24 23  1  0
 23 22  2  0
 22 19  1  0
  1  2  2  0
  2  3  1  0
  3 10  2  0
 10  9  1  0
  9  8  2  0
  8  1  1  0
M  END

$$$$
