No_1735-gen_results/8p0m/2024-11-26-14-13-15/
     RDKit          3D

 23 25  0  0  0  0  0  0  0  0999 V2000
  -28.0162   -0.8135   28.8779 C   0  0  0  0  0  0  0  0  0  0  0  0
  -27.0636   -0.1190   28.6079 C   0  0  0  0  0  0  0  0  0  0  0  0
  -25.7923   -0.4302   29.0761 C   0  0  0  0  0  0  0  0  0  0  0  0
  -24.5456    0.3494   28.8225 C   0  0  0  0  0  0  0  0  0  0  0  0
  -23.2409    0.0217   29.3323 C   0  0  0  0  0  0  0  0  0  0  0  0
  -27.8820   -1.8995   29.8633 C   0  0  0  0  0  0  0  0  0  0  0  0
  -26.6526   -2.3142   30.3138 C   0  0  0  0  0  0  0  0  0  0  0  0
  -25.5153   -1.5607   29.9787 C   0  0  0  0  0  0  0  0  0  0  0  0
  -22.1645    0.7936   28.9524 C   0  0  0  0  0  0  0  0  0  0  0  0
  -22.1241    1.7484   27.9889 C   0  0  0  0  0  0  0  0  0  0  0  0
  -24.5235    1.3782   27.7946 C   0  0  0  0  0  0  0  0  0  0  0  0
  -23.3387    2.0417   27.4305 C   0  0  0  0  0  0  0  0  0  0  0  0
  -28.9603   -2.6577   30.2382 O   0  0  0  0  0  0  0  0  0  0  0  0
  -30.0989   -2.0886   30.6129 C   0  0  0  0  0  0  0  0  0  0  0  0
  -30.6084   -2.7153   31.7527 C   0  0  0  0  0  0  0  0  0  0  0  0
  -31.7683   -2.2443   32.1925 C   0  0  0  0  0  0  0  0  0  0  0  0
  -30.0413   -3.8378   32.4009 C   0  0  0  0  0  0  0  0  0  0  0  0
  -32.4414   -2.8593   33.3731 C   0  0  0  0  0  0  0  0  0  0  0  0
  -30.6517   -4.4458   33.5303 C   0  0  0  0  0  0  0  0  0  0  0  0
  -31.8306   -3.9472   33.9981 C   0  0  0  0  0  0  0  0  0  0  0  0
  -30.6285   -1.1935   30.0697 O   0  0  0  0  0  0  0  0  0  0  0  0
  -23.5889    3.0525   26.5484 O   0  0  0  0  0  0  0  0  0  0  0  0
  -24.8382    3.6717   26.5266 C   0  0  0  0  0  0  0  0  0  0  0  0
  3  4  1  0
  6 13  1  0
 13 14  1  0
 14 15  1  0
 14 21  2  0
 12 22  1  0
 22 23  1  0
  1  2  2  0
  2  3  1  0
  3  8  2  0
  8  7  1  0
  7  6  2  0
  6  1  1  0
 15 16  2  0
 16 18  1  0
 18 20  2  0
 20 19  1  0
 19 17  2  0
 17 15  1  0
  4  5  2  0
  5  9  1  0
  9 10  2  0
 10 12  1  0
 12 11  2  0
 11  4  1  0
M  END

$$$$
