No_1586-gen_results/8p0m/2024-11-26-14-13-15/
     RDKit          3D

 24 25  0  0  0  0  0  0  0  0999 V2000
  -28.0162   -0.8135   28.8779 C   0  0  0  0  0  0  0  0  0  0  0  0
  -27.0636   -0.1190   28.6079 C   0  0  0  0  0  0  0  0  0  0  0  0
  -27.0010    0.6913   27.4910 C   0  0  0  0  0  0  0  0  0  0  0  0
  -25.8548    1.4825   27.0830 C   0  0  0  0  0  0  0  0  0  0  0  0
  -24.6901    1.4526   27.8807 C   0  0  0  0  0  0  0  0  0  0  0  0
  -24.7379    0.6010   29.0416 C   0  0  0  0  0  0  0  0  0  0  0  0
  -25.8234   -0.1688   29.3887 C   0  0  0  0  0  0  0  0  0  0  0  0
  -28.7300   -0.5298   30.0429 N   0  0  0  0  0  0  0  0  0  0  0  0
  -28.9322    0.3227   30.5381 C   0  0  0  0  0  0  0  0  0  0  0  0
  -29.3038    1.0059   31.2658 C   0  0  0  0  0  0  0  0  0  0  0  0
  -29.7469    2.2121   31.8763 C   0  0  0  0  0  0  0  0  0  0  0  0
  -29.9292    3.2238   32.3858 C   0  0  0  0  0  0  0  0  0  0  0  0
  -23.5202    2.2326   27.5831 C   0  0  0  0  0  0  0  0  0  0  0  0
  -22.5845    1.9314   27.0490 O   0  0  0  0  0  0  0  0  0  0  0  0
  -23.7049    3.5413   27.9106 O   0  0  0  0  0  0  0  0  0  0  0  0
  -30.1749    4.3686   32.6757 C   0  0  0  0  0  0  0  0  0  0  0  0
  -30.3942    5.5612   32.9720 C   0  0  0  0  0  0  0  0  0  0  0  0
  -30.3108    5.9839   34.2546 C   0  0  0  0  0  0  0  0  0  0  0  0
  -30.6826    7.3095   34.5167 C   0  0  0  0  0  0  0  0  0  0  0  0
  -31.1041    8.0963   33.4396 C   0  0  0  0  0  0  0  0  0  0  0  0
  -31.1535    7.6215   32.1807 C   0  0  0  0  0  0  0  0  0  0  0  0
  -30.8068    6.3856   31.9051 C   0  0  0  0  0  0  0  0  0  0  0  0
  -31.4930    9.5179   33.7475 C   0  0  0  0  0  0  0  0  0  0  0  0
  -32.1243   10.1937   33.2247 N   0  0  0  0  0  0  0  0  0  0  0  0
  1  2  1  0
  1  8  1  0
  8  9  1  0
  9 10  2  3
 10 11  1  0
 11 12  1  0
  5 13  1  0
 13 14  2  0
 13 15  1  0
 12 16  2  3
 16 17  1  0
 20 23  1  0
 23 24  2  0
 17 18  2  0
 18 19  1  0
 19 20  2  0
 20 21  1  0
 21 22  2  0
 22 17  1  0
  2  3  2  0
  3  4  1  0
  4  5  2  0
  5  6  1  0
  6  7  2  0
  7  2  1  0
M  END

$$$$
