No_1282-gen_results/8p0m/2024-11-26-14-13-15/
     RDKit          3D

 10 10  0  0  0  0  0  0  0  0999 V2000
  -28.1229   -1.3353   28.4874 O   0  0  0  0  0  0  0  0  0  0  0  0
  -27.4806   -0.4044   28.7094 C   0  0  0  0  0  0  0  0  0  0  0  0
  -26.3804   -0.0867   27.9394 C   0  0  0  0  0  0  0  0  0  0  0  0
  -27.4232    0.1749   30.0549 N   0  0  0  0  0  0  0  0  0  0  0  0
  -25.8482    1.0048   27.9942 C   0  0  0  0  0  0  0  0  0  0  0  0
  -25.8487    1.7377   29.2952 C   0  0  0  0  0  0  0  0  0  0  0  0
  -26.7619    1.3299   30.2362 C   0  0  0  0  0  0  0  0  0  0  0  0
  -25.0738    2.9752   29.4639 C   0  0  0  0  0  0  0  0  0  0  0  0
  -24.1850    3.2733   28.6885 O   0  0  0  0  0  0  0  0  0  0  0  0
  -24.9862    3.2883   30.7423 F   0  0  0  0  0  0  0  0  0  0  0  0
  1  2  2  0
  2  3  1  0
  2  4  1  0
  5  6  1  0
  6  7  1  0
  6  8  1  0
  8  9  2  0
  8 10  1  0
  3  5  1  0
  7  4  1  0
M  END

$$$$
