No_174-gen_results/8p0m/2024-11-26-14-13-15/
     RDKit          3D

 10 10  0  0  0  0  0  0  0  0999 V2000
  -28.1229   -1.3353   28.4874 O   0  0  0  0  0  0  0  0  0  0  0  0
  -27.4806   -0.4044   28.7094 C   0  0  0  0  0  0  0  0  0  0  0  0
  -27.1904    0.2461   29.5268 C   0  0  0  0  0  0  0  0  0  0  0  0
  -26.6021   -0.1576   27.5515 N   0  0  0  0  0  0  0  0  0  0  0  0
  -25.6420    0.9030   27.5822 C   0  0  0  0  0  0  0  0  0  0  0  0
  -25.5003    1.6142   28.7368 C   0  0  0  0  0  0  0  0  0  0  0  0
  -26.2674    1.2888   29.8086 C   0  0  0  0  0  0  0  0  0  0  0  0
  -24.8851    1.1487   26.4884 N   0  0  0  0  0  0  0  0  0  0  0  0
  -23.8891    2.1356   26.6599 C   0  0  0  0  0  0  0  0  0  0  0  0
  -23.5444    2.5069   27.5783 N   0  0  0  0  0  0  0  0  0  0  0  0
  1  2  2  0
  2  3  1  0
  2  4  1  0
  4  5  1  0
  6  7  1  0
  5  8  1  0
  8  9  2  3
  9 10  1  0
  3  7  1  0
  6  5  1  0
M  END

$$$$
