No_1885-gen_results/8p0m/2024-11-26-14-13-15/
     RDKit          3D

 12 12  0  0  0  0  0  0  0  0999 V2000
  -28.1229   -1.3353   28.4874 O   0  0  0  0  0  0  0  0  0  0  0  0
  -27.4806   -0.4044   28.7094 C   0  0  0  0  0  0  0  0  0  0  0  0
  -26.4599   -0.1104   28.0051 N   0  0  0  0  0  0  0  0  0  0  0  0
  -25.4297    0.8788   28.3572 C   0  0  0  0  0  0  0  0  0  0  0  0
  -24.3600    1.0559   27.5650 C   0  0  0  0  0  0  0  0  0  0  0  0
  -27.7374    0.5007   29.9644 C   0  0  0  0  0  0  0  0  0  0  0  0
  -23.1480    1.5644   28.0709 C   0  0  0  0  0  0  0  0  0  0  0  0
  -21.9944    1.6823   27.3190 C   0  0  0  0  0  0  0  0  0  0  0  0
  -28.8298    0.2131   30.7087 C   0  0  0  0  0  0  0  0  0  0  0  0
  -25.5658    1.5717   29.5715 C   0  0  0  0  0  0  0  0  0  0  0  0
  -26.2821    1.7710   30.4305 C   0  0  0  0  0  0  0  0  0  0  0  0
  -27.3045    1.5571   30.0018 C   0  0  0  0  0  0  0  0  0  0  0  0
  1  2  2  0
  2  3  1  0
  3  4  1  0
  4  5  1  0
  2  6  1  0
  5  7  2  3
  7  8  1  0
  6  9  1  0
  4 10  1  0
 10 11  1  0
  6 12  1  0
 11 12  1  0
M  END

$$$$
