No_1292-gen_results/8p0m/2024-11-26-14-13-15/
     RDKit          3D

 26 28  0  0  0  0  0  0  0  0999 V2000
  -28.0727   -1.2542   28.5316 F   0  0  0  0  0  0  0  0  0  0  0  0
  -27.3591   -0.3792   28.7224 C   0  0  0  0  0  0  0  0  0  0  0  0
  -26.3323   -0.6441   29.4520 C   0  0  0  0  0  0  0  0  0  0  0  0
  -25.2562    0.3203   29.7818 C   0  0  0  0  0  0  0  0  0  0  0  0
  -25.4242    1.6275   29.2026 C   0  0  0  0  0  0  0  0  0  0  0  0
  -26.5263    1.8254   28.4032 C   0  0  0  0  0  0  0  0  0  0  0  0
  -27.4513    0.8601   28.1355 C   0  0  0  0  0  0  0  0  0  0  0  0
  -28.5399    1.2022   27.2448 C   0  0  0  0  0  0  0  0  0  0  0  0
  -28.4423    2.0101   26.2543 C   0  0  0  0  0  0  0  0  0  0  0  0
  -29.4915    2.2231   25.3457 C   0  0  0  0  0  0  0  0  0  0  0  0
  -30.6227    1.4224   25.3995 C   0  0  0  0  0  0  0  0  0  0  0  0
  -30.6794    0.4779   26.4025 C   0  0  0  0  0  0  0  0  0  0  0  0
  -29.6789    0.3260   27.2833 C   0  0  0  0  0  0  0  0  0  0  0  0
  -24.5311    2.5612   29.4917 O   0  0  0  0  0  0  0  0  0  0  0  0
  -31.7838   -0.2577   26.4581 F   0  0  0  0  0  0  0  0  0  0  0  0
  -26.0709   -1.8337   30.0395 F   0  0  0  0  0  0  0  0  0  0  0  0
  -24.1095    0.0592   30.6743 C   0  0  0  0  0  0  0  0  0  0  0  0
  -24.2349   -0.1053   31.9026 N   0  0  0  0  0  0  0  0  0  0  0  0
  -22.9943    0.0975   30.1075 F   0  0  0  0  0  0  0  0  0  0  0  0
  -24.8438   -0.7773   32.6657 C   0  0  0  0  0  0  0  0  0  0  0  0
  -25.8054   -0.0629   33.6628 C   0  0  0  0  0  0  0  0  0  0  0  0
  -26.6563    0.7829   32.9973 C   0  0  0  0  0  0  0  0  0  0  0  0
  -27.4665    1.4192   33.4938 C   0  0  0  0  0  0  0  0  0  0  0  0
  -27.7151    1.2849   34.9357 C   0  0  0  0  0  0  0  0  0  0  0  0
  -26.9699    0.3658   35.6371 C   0  0  0  0  0  0  0  0  0  0  0  0
  -25.9765   -0.3508   34.9901 C   0  0  0  0  0  0  0  0  0  0  0  0
  1  2  1  0
  7  8  1  0
  5 14  1  0
 12 15  1  0
  3 16  1  0
  4 17  1  0
 17 18  1  0
 17 19  1  0
 18 20  1  0
 20 21  1  0
  2  3  2  0
  3  4  1  0
  4  5  2  0
  5  6  1  0
  6  7  2  0
  7  2  1  0
  8  9  2  0
  9 10  1  0
 10 11  2  0
 11 12  1  0
 12 13  2  0
 13  8  1  0
 21 22  2  0
 22 23  1  0
 23 24  2  0
 24 25  1  0
 25 26  2  0
 26 21  1  0
M  END

$$$$
