No_1997-gen_results/8p0m/2024-11-26-14-13-15/
     RDKit          3D

 33 36  0  0  0  0  0  0  0  0999 V2000
  -28.0162   -0.8135   28.8779 C   0  0  0  0  0  0  0  0  0  0  0  0
  -28.4690   -0.7850   29.8287 C   0  0  0  0  0  0  0  0  0  0  0  0
  -28.1816    0.4277   28.1134 C   0  0  0  0  0  0  0  0  0  0  0  0
  -27.4498    0.6435   26.8500 C   0  0  0  0  0  0  0  0  0  0  0  0
  -26.1815    0.0357   26.7145 C   0  0  0  0  0  0  0  0  0  0  0  0
  -25.7530   -0.9101   27.6815 C   0  0  0  0  0  0  0  0  0  0  0  0
  -26.5502   -1.2250   28.7228 C   0  0  0  0  0  0  0  0  0  0  0  0
  -28.4389   -2.0369   30.4657 F   0  0  0  0  0  0  0  0  0  0  0  0
  -28.2606   -0.0021   30.8968 F   0  0  0  0  0  0  0  0  0  0  0  0
  -29.8899   -0.7318   29.6652 F   0  0  0  0  0  0  0  0  0  0  0  0
  -27.7732    1.6259   25.8732 C   0  0  0  0  0  0  0  0  0  0  0  0
  -28.2405    1.1745   24.6328 C   0  0  0  0  0  0  0  0  0  0  0  0
  -27.8717    2.9816   26.2497 C   0  0  0  0  0  0  0  0  0  0  0  0
  -28.6957    3.4933   27.1470 C   0  0  0  0  0  0  0  0  0  0  0  0
  -28.6371    4.8102   27.4981 C   0  0  0  0  0  0  0  0  0  0  0  0
  -29.5458    5.4379   28.3458 C   0  0  0  0  0  0  0  0  0  0  0  0
  -30.4732    4.6329   28.9987 C   0  0  0  0  0  0  0  0  0  0  0  0
  -30.4954    3.2545   28.7466 C   0  0  0  0  0  0  0  0  0  0  0  0
  -29.6380    2.7443   27.8471 C   0  0  0  0  0  0  0  0  0  0  0  0
  -31.4674    2.4407   29.5217 C   0  0  0  0  0  0  0  0  0  0  0  0
  -31.3273    2.3525   30.8744 C   0  0  0  0  0  0  0  0  0  0  0  0
  -32.0838    1.3875   31.5977 C   0  0  0  0  0  0  0  0  0  0  0  0
  -31.8871    1.2605   32.9762 C   0  0  0  0  0  0  0  0  0  0  0  0
  -30.9221    2.0629   33.6174 C   0  0  0  0  0  0  0  0  0  0  0  0
  -30.1582    2.9923   32.9038 C   0  0  0  0  0  0  0  0  0  0  0  0
  -30.3210    3.1102   31.5974 C   0  0  0  0  0  0  0  0  0  0  0  0
  -32.4861    1.8452   28.8154 C   0  0  0  0  0  0  0  0  0  0  0  0
  -32.8190    2.1190   27.6997 C   0  0  0  0  0  0  0  0  0  0  0  0
  -32.7768    3.3023   27.1063 C   0  0  0  0  0  0  0  0  0  0  0  0
  -33.2173    3.5540   25.7281 C   0  0  0  0  0  0  0  0  0  0  0  0
  -33.4773    2.4399   24.9952 C   0  0  0  0  0  0  0  0  0  0  0  0
  -33.5255    1.1840   25.5315 C   0  0  0  0  0  0  0  0  0  0  0  0
  -33.2345    0.9951   26.8069 C   0  0  0  0  0  0  0  0  0  0  0  0
  1  2  1  0
  2  8  1  0
  2  9  1  0
  2 10  1  0
  4 11  1  0
 11 12  1  0
 11 13  1  0
 13 14  1  0
 18 20  1  0
 20 21  1  0
 20 27  1  0
 27 28  1  0
 28 29  2  0
 29 30  1  0
 30 31  2  0
 31 32  1  0
 32 33  2  0
 33 28  1  0
 14 15  2  0
 15 16  1  0
 16 17  2  0
 17 18  1  0
 18 19  2  0
 19 14  1  0
 21 22  2  0
 22 23  1  0
 23 24  2  0
 24 25  1  0
 25 26  2  0
 26 21  1  0
  1  3  2  0
  3  4  1  0
  4  5  2  0
  5  6  1  0
  6  7  2  0
  7  1  1  0
M  END

$$$$
