No_1353-gen_results/8p0m/2024-11-26-14-13-15/
     RDKit          3D

 13 13  0  0  0  0  0  0  0  0999 V2000
  -28.0162   -0.8135   28.8779 C   0  0  0  0  0  0  0  0  0  0  0  0
  -27.0636   -0.1189   28.6079 C   0  0  0  0  0  0  0  0  0  0  0  0
  -26.9716    0.7139   27.5060 C   0  0  0  0  0  0  0  0  0  0  0  0
  -25.8205    1.4909   27.1160 C   0  0  0  0  0  0  0  0  0  0  0  0
  -24.6562    1.4242   27.9180 C   0  0  0  0  0  0  0  0  0  0  0  0
  -23.4598    2.1165   27.6160 C   0  0  0  0  0  0  0  0  0  0  0  0
  -23.5068    2.7076   26.2939 C   0  0  0  0  0  0  0  0  0  0  0  0
  -25.7733   -0.1954   29.4398 C   0  0  0  0  0  0  0  0  0  0  0  0
  -24.6392    0.5412   29.1339 C   0  0  0  0  0  0  0  0  0  0  0  0
  -28.6497   -0.4978   30.1192 N   0  0  0  0  0  0  0  0  0  0  0  0
  -29.6215   -1.2393   30.6882 C   0  0  0  0  0  0  0  0  0  0  0  0
  -30.1351   -2.1752   30.0617 F   0  0  0  0  0  0  0  0  0  0  0  0
  -29.2359   -1.7263   31.9114 F   0  0  0  0  0  0  0  0  0  0  0  0
  1  2  2  3
  2  3  1  0
  3  4  1  0
  4  5  1  0
  5  6  2  3
  6  7  1  0
  2  8  1  0
  5  9  1  0
  8  9  1  0
  1 10  1  0
 10 11  2  3
 11 12  1  0
 11 13  1  0
M  END

$$$$
