No_1314-gen_results/8p0m/2024-11-26-14-13-15/
     RDKit          3D

 21 22  0  0  0  0  0  0  0  0999 V2000
  -28.0162   -0.8135   28.8779 C   0  0  0  0  0  0  0  0  0  0  0  0
  -28.4690   -0.7850   29.8287 C   0  0  0  0  0  0  0  0  0  0  0  0
  -27.1356    0.2359   28.5352 C   0  0  0  0  0  0  0  0  0  0  0  0
  -26.8745    1.2825   29.3982 C   0  0  0  0  0  0  0  0  0  0  0  0
  -28.3613    0.1987   30.9244 C   0  0  0  0  0  0  0  0  0  0  0  0
  -27.5277    1.2234   30.6356 C   0  0  0  0  0  0  0  0  0  0  0  0
  -26.3725    0.5103   27.2588 C   0  0  0  0  0  0  0  0  0  0  0  0
  -25.1425    0.6211   27.2159 C   0  0  0  0  0  0  0  0  0  0  0  0
  -24.4940    1.3731   28.2922 C   0  0  0  0  0  0  0  0  0  0  0  0
  -25.3801    1.6622   29.4471 C   0  0  0  0  0  0  0  0  0  0  0  0
  -23.2108    1.9419   28.1858 C   0  0  0  0  0  0  0  0  0  0  0  0
  -22.4867    2.0838   29.1414 O   0  0  0  0  0  0  0  0  0  0  0  0
  -22.8130    2.4424   27.0238 O   0  0  0  0  0  0  0  0  0  0  0  0
  -29.6089   -1.8917   30.2012 C   0  0  0  0  0  0  0  0  0  0  0  0
  -30.5833   -1.7583   29.6494 O   0  0  0  0  0  0  0  0  0  0  0  0
  -29.4659   -2.5994   31.3137 O   0  0  0  0  0  0  0  0  0  0  0  0
  -24.9202    2.4449   30.3626 F   0  0  0  0  0  0  0  0  0  0  0  0
  -27.2121    0.4758   26.0438 C   0  0  0  0  0  0  0  0  0  0  0  0
  -26.6588   -0.0653   24.8848 C   0  0  0  0  0  0  0  0  0  0  0  0
  -28.4534    1.0974   25.9493 C   0  0  0  0  0  0  0  0  0  0  0  0
  -28.9171    2.1483   26.6272 C   0  0  0  0  0  0  0  0  0  0  0  0
  9 11  1  0
 11 12  2  0
 11 13  1  0
  2 14  1  0
 14 15  2  0
 14 16  1  0
 10 17  1  0
  7 18  1  0
 18 19  1  0
 18 20  1  0
 20 21  2  0
  4 10  2  0
 10  9  1  0
  9  8  2  0
  8  7  1  0
  7  3  2  0
  1  2  2  0
  2  5  1  0
  5  6  2  0
  6  4  1  0
  4  3  1  0
  3  1  1  0
M  END

$$$$
