No_1913-gen_results/8p0m/2024-11-26-14-13-15/
     RDKit          3D

 24 27  0  0  0  0  0  0  0  0999 V2000
  -28.0162   -0.8135   28.8779 C   0  0  0  0  0  0  0  0  0  0  0  0
  -27.0636   -0.1189   28.6079 C   0  0  0  0  0  0  0  0  0  0  0  0
  -25.7647   -0.3897   29.0360 C   0  0  0  0  0  0  0  0  0  0  0  0
  -25.5296   -1.5302   29.9014 C   0  0  0  0  0  0  0  0  0  0  0  0
  -26.6577   -2.2915   30.2035 C   0  0  0  0  0  0  0  0  0  0  0  0
  -27.8548   -1.9555   29.7630 C   0  0  0  0  0  0  0  0  0  0  0  0
  -24.5349    0.4128   28.7431 C   0  0  0  0  0  0  0  0  0  0  0  0
  -24.4835    1.2431   27.7398 C   0  0  0  0  0  0  0  0  0  0  0  0
  -25.0977    1.6893   26.9916 C   0  0  0  0  0  0  0  0  0  0  0  0
  -24.7336    2.5972   25.9227 C   0  0  0  0  0  0  0  0  0  0  0  0
  -23.3807    2.8917   25.8163 C   0  0  0  0  0  0  0  0  0  0  0  0
  -22.9354    1.7161   27.6160 C   0  0  0  0  0  0  0  0  0  0  0  0
  -22.5718    2.5014   26.6712 N   0  0  0  0  0  0  0  0  0  0  0  0
  -23.4482    0.2828   29.7656 C   0  0  0  0  0  0  0  0  0  0  0  0
  -21.9784    1.2750   28.6421 C   0  0  0  0  0  0  0  0  0  0  0  0
  -22.2181    0.5992   29.5759 N   0  0  0  0  0  0  0  0  0  0  0  0
  -28.8076   -2.8486   30.1699 O   0  0  0  0  0  0  0  0  0  0  0  0
  -30.0098   -2.4243   30.4804 C   0  0  0  0  0  0  0  0  0  0  0  0
  -30.9372   -3.4223   30.2515 C   0  0  0  0  0  0  0  0  0  0  0  0
  -32.2827   -3.0435   30.0543 C   0  0  0  0  0  0  0  0  0  0  0  0
  -33.1562   -3.8667   29.5369 C   0  0  0  0  0  0  0  0  0  0  0  0
  -30.7799   -4.7991   30.0748 C   0  0  0  0  0  0  0  0  0  0  0  0
  -31.6430   -5.7057   29.6488 C   0  0  0  0  0  0  0  0  0  0  0  0
  -32.9076   -5.2553   29.3786 C   0  0  0  0  0  0  0  0  0  0  0  0
  3  7  1  0
  7  8  1  0
  7 14  1  0
 12 15  1  0
 14 16  1  0
 15 16  1  0
  6 17  1  0
 17 18  1  0
 18 19  1  0
  1  2  2  0
  2  3  1  0
  3  4  2  0
  4  5  1  0
  5  6  2  0
  6  1  1  0
 19 20  2  0
 20 21  1  0
 21 24  2  0
 24 23  1  0
 23 22  2  0
 22 19  1  0
  8  9  2  0
  9 10  1  0
 10 11  2  0
 11 13  1  0
 13 12  2  0
 12  8  1  0
M  END

$$$$
