No_1412-gen_results/8p0m/2024-11-26-14-13-15/
     RDKit          3D

 13 13  0  0  0  0  0  0  0  0999 V2000
  -28.0162   -0.8135   28.8779 C   0  0  0  0  0  0  0  0  0  0  0  0
  -27.0636   -0.1189   28.6079 C   0  0  0  0  0  0  0  0  0  0  0  0
  -25.7647   -0.3897   29.0360 C   0  0  0  0  0  0  0  0  0  0  0  0
  -25.5296   -1.5302   29.9014 C   0  0  0  0  0  0  0  0  0  0  0  0
  -26.6888   -2.2893   30.1810 C   0  0  0  0  0  0  0  0  0  0  0  0
  -27.8727   -1.9508   29.7373 C   0  0  0  0  0  0  0  0  0  0  0  0
  -28.8745   -2.9101   30.2504 C   0  0  0  0  0  0  0  0  0  0  0  0
  -30.0685   -2.5721   30.2695 N   0  0  0  0  0  0  0  0  0  0  0  0
  -28.5572   -4.0895   30.5735 O   0  0  0  0  0  0  0  0  0  0  0  0
  -31.1883   -3.4696   30.6402 C   0  0  0  0  0  0  0  0  0  0  0  0
  -24.3709    0.5644   28.6148 Cl  0  0  0  0  0  0  0  0  0  0  0  0
  -31.2278   -4.3441   31.2408 C   0  0  0  0  0  0  0  0  0  0  0  0
  -30.0912   -4.7173   32.0147 C   0  0  0  0  0  0  0  0  0  0  0  0
  6  7  1  0
  7  8  1  0
  7  9  2  0
  8 10  1  0
  3 11  1  0
 10 12  2  3
 12 13  1  0
  1  2  2  0
  2  3  1  0
  3  4  2  0
  4  5  1  0
  5  6  2  0
  6  1  1  0
M  END

$$$$
