No_1854-gen_results/8p0m/2024-11-26-14-13-15/
     RDKit          3D

 31 33  0  0  0  0  0  0  0  0999 V2000
  -28.0162   -0.8135   28.8779 C   0  0  0  0  0  0  0  0  0  0  0  0
  -27.0636   -0.1190   28.6079 C   0  0  0  0  0  0  0  0  0  0  0  0
  -26.9287    1.1713   29.0083 C   0  0  0  0  0  0  0  0  0  0  0  0
  -25.7702    2.0341   28.6884 C   0  0  0  0  0  0  0  0  0  0  0  0
  -24.7141    1.4431   27.9188 C   0  0  0  0  0  0  0  0  0  0  0  0
  -24.8590    0.0783   27.5836 C   0  0  0  0  0  0  0  0  0  0  0  0
  -25.9647   -0.6606   27.9164 C   0  0  0  0  0  0  0  0  0  0  0  0
  -27.9821   -1.6367   30.0748 N   0  0  0  0  0  0  0  0  0  0  0  0
  -29.1950   -0.6035   28.4621 O   0  0  0  0  0  0  0  0  0  0  0  0
  -29.0495   -2.5038   30.5225 C   0  0  0  0  0  0  0  0  0  0  0  0
  -26.6889   -1.8860   30.7614 C   0  0  0  0  0  0  0  0  0  0  0  0
  -23.5137    2.1536   27.5449 C   0  0  0  0  0  0  0  0  0  0  0  0
  -22.4324    1.7032   27.1484 N   0  0  0  0  0  0  0  0  0  0  0  0
  -23.7686    3.4156   27.1498 O   0  0  0  0  0  0  0  0  0  0  0  0
  -29.4417   -2.2244   31.8491 C   0  0  0  0  0  0  0  0  0  0  0  0
  -28.5777   -1.0869   32.4447 Cl  0  0  0  0  0  0  0  0  0  0  0  0
  -30.7827   -2.0405   31.8833 F   0  0  0  0  0  0  0  0  0  0  0  0
  -29.2680   -3.4570   32.5593 F   0  0  0  0  0  0  0  0  0  0  0  0
  -21.7467    0.7294   28.0057 C   0  0  0  0  0  0  0  0  0  0  0  0
  -20.4109    0.9755   28.4077 C   0  0  0  0  0  0  0  0  0  0  0  0
  -22.3990   -0.4285   28.4852 C   0  0  0  0  0  0  0  0  0  0  0  0
  -21.6517   -1.2513   29.3804 C   0  0  0  0  0  0  0  0  0  0  0  0
  -20.3585   -1.0279   29.4726 C   0  0  0  0  0  0  0  0  0  0  0  0
  -19.7307    0.1515   29.0822 C   0  0  0  0  0  0  0  0  0  0  0  0
  -25.7173    3.2470   29.0808 O   0  0  0  0  0  0  0  0  0  0  0  0
  -26.8450    3.8274   29.7283 C   0  0  0  0  0  0  0  0  0  0  0  0
  -27.3769    3.6256   30.6656 C   0  0  0  0  0  0  0  0  0  0  0  0
  -28.4526    4.3143   31.2662 C   0  0  0  0  0  0  0  0  0  0  0  0
  -27.3257    4.9481   28.8478 C   0  0  0  0  0  0  0  0  0  0  0  0
  -28.3826    5.7058   29.3055 C   0  0  0  0  0  0  0  0  0  0  0  0
  -28.9382    5.4078   30.5356 C   0  0  0  0  0  0  0  0  0  0  0  0
  1  2  1  0
  1  8  1  0
  1  9  2  0
  8 10  1  0
  8 11  1  0
  5 12  1  0
 12 13  2  3
 12 14  1  0
 10 15  1  0
 15 16  1  0
 15 17  1  0
 15 18  1  0
 13 19  1  0
  4 25  1  0
 25 26  1  0
  2  3  2  0
  3  4  1  0
  4  5  2  0
  5  6  1  0
  6  7  2  0
  7  2  1  0
 19 20  2  0
 20 24  1  0
 24 23  2  0
 23 22  1  0
 22 21  2  0
 21 19  1  0
 26 27  2  0
 27 28  1  0
 28 31  2  0
 31 30  1  0
 30 29  2  0
 29 26  1  0
M  END

$$$$
