No_1117-gen_results/8p0m/2024-11-26-14-13-15/
     RDKit          3D

  9  8  0  0  0  0  0  0  0  0999 V2000
  -28.0727   -1.2542   28.5316 F   0  0  0  0  0  0  0  0  0  0  0  0
  -27.3591   -0.3792   28.7224 C   0  0  0  0  0  0  0  0  0  0  0  0
  -26.3180   -0.6608   29.1159 F   0  0  0  0  0  0  0  0  0  0  0  0
  -27.6804    0.9274   28.3001 C   0  0  0  0  0  0  0  0  0  0  0  0
  -26.7009    1.9033   28.5926 C   0  0  0  0  0  0  0  0  0  0  0  0
  -25.7515    1.5642   28.5351 F   0  0  0  0  0  0  0  0  0  0  0  0
  -26.9958    2.3463   29.8757 F   0  0  0  0  0  0  0  0  0  0  0  0
  -27.1288    3.0701   27.9417 F   0  0  0  0  0  0  0  0  0  0  0  0
  -28.9050    1.1829   28.7657 F   0  0  0  0  0  0  0  0  0  0  0  0
  1  2  1  0
  2  3  1  0
  2  4  1  0
  4  5  1  0
  5  6  1  0
  5  7  1  0
  5  8  1  0
  4  9  1  0
M  END

$$$$
