No_1125-gen_results/8p0m/2024-11-26-14-13-15/
     RDKit          3D

 12 12  0  0  0  0  0  0  0  0999 V2000
  -28.1229   -1.3353   28.4874 O   0  0  0  0  0  0  0  0  0  0  0  0
  -27.4806   -0.4044   28.7094 C   0  0  0  0  0  0  0  0  0  0  0  0
  -26.4599   -0.1104   28.0051 N   0  0  0  0  0  0  0  0  0  0  0  0
  -26.1476   -0.4948   26.8760 C   0  0  0  0  0  0  0  0  0  0  0  0
  -27.6421    0.4982   29.9779 C   0  0  0  0  0  0  0  0  0  0  0  0
  -27.2450    1.5258   30.0899 O   0  0  0  0  0  0  0  0  0  0  0  0
  -28.1023   -0.2226   31.0915 N   0  0  0  0  0  0  0  0  0  0  0  0
  -25.0238    0.3116   26.1996 C   0  0  0  0  0  0  0  0  0  0  0  0
  -24.2461    0.9699   27.0801 C   0  0  0  0  0  0  0  0  0  0  0  0
  -24.4562    1.2698   28.3603 C   0  0  0  0  0  0  0  0  0  0  0  0
  -25.4006    0.7339   28.7838 C   0  0  0  0  0  0  0  0  0  0  0  0
  -28.5483   -1.5791   31.1299 C   0  0  0  0  0  0  0  0  0  0  0  0
  1  2  2  0
  2  3  1  0
  3  4  1  0
  2  5  1  0
  5  6  2  0
  5  7  1  0
  4  8  1  0
  8  9  1  0
  9 10  1  0
  3 11  1  0
 10 11  1  0
  7 12  1  0
M  END

$$$$
