No_1945-gen_results/8p0m/2024-11-26-14-13-15/
     RDKit          3D

 22 24  0  0  0  0  0  0  0  0999 V2000
  -28.0162   -0.8135   28.8779 C   0  0  0  0  0  0  0  0  0  0  0  0
  -28.4690   -0.7850   29.8287 C   0  0  0  0  0  0  0  0  0  0  0  0
  -26.5042   -0.7777   28.8766 C   0  0  0  0  0  0  0  0  0  0  0  0
  -25.6540   -0.6597   27.7191 C   0  0  0  0  0  0  0  0  0  0  0  0
  -27.9180   -0.9374   31.1824 C   0  0  0  0  0  0  0  0  0  0  0  0
  -26.5423   -0.9399   31.2606 C   0  0  0  0  0  0  0  0  0  0  0  0
  -25.7832   -0.8935   30.1201 C   0  0  0  0  0  0  0  0  0  0  0  0
  -25.9259    0.2819   26.7445 C   0  0  0  0  0  0  0  0  0  0  0  0
  -24.9904    0.6776   25.8676 C   0  0  0  0  0  0  0  0  0  0  0  0
  -23.7384    0.8728   26.1995 C   0  0  0  0  0  0  0  0  0  0  0  0
  -23.2768    0.4338   27.4818 C   0  0  0  0  0  0  0  0  0  0  0  0
  -24.5414   -1.3753   27.4735 C   0  0  0  0  0  0  0  0  0  0  0  0
  -23.7110   -0.2114   28.3710 C   0  0  0  0  0  0  0  0  0  0  0  0
  -23.1631   -0.5454   29.6285 C   0  0  0  0  0  0  0  0  0  0  0  0
  -24.3710   -0.7901   30.3259 C   0  0  0  0  0  0  0  0  0  0  0  0
  -21.7621    1.0926   27.7319 C   0  0  0  0  0  0  0  0  0  0  0  0
  -30.0621   -0.8414   29.8457 C   0  0  0  0  0  0  0  0  0  0  0  0
  -30.7381   -1.6609   30.2975 O   0  0  0  0  0  0  0  0  0  0  0  0
  -30.5829    0.0076   28.8433 N   0  0  0  0  0  0  0  0  0  0  0  0
  -31.6721    0.2521   28.5652 C   0  0  0  0  0  0  0  0  0  0  0  0
  -31.9602    0.8314   27.4692 C   0  0  0  0  0  0  0  0  0  0  0  0
  -33.0813    1.1031   26.8848 C   0  0  0  0  0  0  0  0  0  0  0  0
  3  4  1  0
  4  8  1  0
  8  9  2  0
  9 10  1  0
 10 11  2  0
  4 12  1  0
 11 13  1  0
 12 13  1  0
 13 14  1  0
  7 15  1  0
 14 15  2  0
 11 16  1  0
  2 17  1  0
 17 18  2  0
 17 19  1  0
 19 20  1  0
 20 21  2  3
 21 22  1  0
  1  2  2  0
  2  5  1  0
  5  6  2  0
  6  7  1  0
  7  3  2  0
  3  1  1  0
M  END

$$$$
