No_1423-gen_results/8p0m/2024-11-26-14-13-15/
     RDKit          3D

 35 39  0  0  0  0  0  0  0  0999 V2000
  -28.0162   -0.8135   28.8779 C   0  0  0  0  0  0  0  0  0  0  0  0
  -28.4690   -0.7850   29.8287 C   0  0  0  0  0  0  0  0  0  0  0  0
  -26.5455   -0.8762   28.8500 C   0  0  0  0  0  0  0  0  0  0  0  0
  -25.8041   -1.0324   30.0571 C   0  0  0  0  0  0  0  0  0  0  0  0
  -27.9437   -0.9869   31.2075 C   0  0  0  0  0  0  0  0  0  0  0  0
  -26.5825   -1.0386   31.2231 C   0  0  0  0  0  0  0  0  0  0  0  0
  -30.0606   -0.7371   29.9024 C   0  0  0  0  0  0  0  0  0  0  0  0
  -30.7252   -1.5544   30.2697 O   0  0  0  0  0  0  0  0  0  0  0  0
  -30.5245    0.5663   29.6971 N   0  0  0  0  0  0  0  0  0  0  0  0
  -31.5427    0.9163   29.4436 C   0  0  0  0  0  0  0  0  0  0  0  0
  -31.7055    2.1881   29.1589 C   0  0  0  0  0  0  0  0  0  0  0  0
  -30.4935    2.8667   29.1320 C   0  0  0  0  0  0  0  0  0  0  0  0
  -29.5636    1.7273   29.4932 C   0  0  0  0  0  0  0  0  0  0  0  0
  -25.6976   -0.7645   27.6033 C   0  0  0  0  0  0  0  0  0  0  0  0
  -25.2990    0.4849   27.2877 N   0  0  0  0  0  0  0  0  0  0  0  0
  -25.5977    1.0025   26.1029 C   0  0  0  0  0  0  0  0  0  0  0  0
  -24.5113    1.3232   28.1072 C   0  0  0  0  0  0  0  0  0  0  0  0
  -23.9888    2.4585   27.6324 C   0  0  0  0  0  0  0  0  0  0  0  0
  -25.1765    2.1758   25.6121 C   0  0  0  0  0  0  0  0  0  0  0  0
  -24.2745    2.9344   26.4088 C   0  0  0  0  0  0  0  0  0  0  0  0
  -26.3965    0.2989   25.3039 N   0  0  0  0  0  0  0  0  0  0  0  0
  -27.5496    0.7446   24.7590 C   0  0  0  0  0  0  0  0  0  0  0  0
  -28.4782   -0.1104   24.1480 C   0  0  0  0  0  0  0  0  0  0  0  0
  -29.6261   -0.2666   24.7632 C   0  0  0  0  0  0  0  0  0  0  0  0
  -30.2729    0.8031   25.5393 C   0  0  0  0  0  0  0  0  0  0  0  0
  -29.3422    1.7889   26.0179 C   0  0  0  0  0  0  0  0  0  0  0  0
  -27.9621    1.7194   25.7764 C   0  0  0  0  0  0  0  0  0  0  0  0
  -30.0591    4.1797   28.9896 C   0  0  0  0  0  0  0  0  0  0  0  0
  -30.4928    4.8223   27.9361 N   0  0  0  0  0  0  0  0  0  0  0  0
  -29.9832    6.1022   27.6889 C   0  0  0  0  0  0  0  0  0  0  0  0
  -28.5908    4.4582   29.2362 C   0  0  0  0  0  0  0  0  0  0  0  0
  -28.1079    5.8060   29.0615 C   0  0  0  0  0  0  0  0  0  0  0  0
  -28.8233    6.5031   28.4217 C   0  0  0  0  0  0  0  0  0  0  0  0
  -31.6262    0.7273   25.9177 C   0  0  0  0  0  0  0  0  0  0  0  0
  -32.2067   -0.4053   26.2565 N   0  0  0  0  0  0  0  0  0  0  0  0
  2  7  1  0
  7  8  2  0
  7  9  1  0
  9 10  1  0
 10 11  2  0
 11 12  1  0
  9 13  1  0
 12 13  2  0
  3 14  1  0
 14 15  1  0
 15 16  1  0
 15 17  1  0
 18 20  1  0
 19 20  1  0
 16 21  1  0
 21 22  1  0
 12 28  1  0
 25 34  1  0
 34 35  1  0
 16 19  1  0
 18 17  1  0
 28 29  2  0
 29 30  1  0
 30 33  2  0
 33 32  1  0
 32 31  2  0
 31 28  1  0
 22 23  2  0
 23 24  1  0
 24 25  2  0
 25 26  1  0
 26 27  2  0
 27 22  1  0
  1  2  2  0
  2  5  1  0
  5  6  2  0
  6  4  1  0
  4  3  2  0
  3  1  1  0
M  END

$$$$
