No_12-gen_results/8p0m/2024-11-26-14-13-15/
     RDKit          3D

  6  5  0  0  0  0  0  0  0  0999 V2000
  -28.0162   -0.8135   28.8779 C   0  0  0  0  0  0  0  0  0  0  0  0
  -27.0636   -0.1189   28.6079 C   0  0  0  0  0  0  0  0  0  0  0  0
  -27.0425    0.2440   27.4277 F   0  0  0  0  0  0  0  0  0  0  0  0
  -29.0070   -0.5324   28.2228 F   0  0  0  0  0  0  0  0  0  0  0  0
  -28.0414   -1.7500   29.9612 C   0  0  0  0  0  0  0  0  0  0  0  0
  -27.0763   -2.3650   30.3934 O   0  0  0  0  0  0  0  0  0  0  0  0
  1  2  1  0
  2  3  1  0
  1  4  1  0
  1  5  1  0
  5  6  2  0
M  END

$$$$
