No_17-gen_results/8p0m/2024-11-26-14-13-15/
     RDKit          3D

 35 37  0  0  0  0  0  0  0  0999 V2000
  -28.0162   -0.8135   28.8779 C   0  0  0  0  0  0  0  0  0  0  0  0
  -28.4690   -0.7850   29.8287 C   0  0  0  0  0  0  0  0  0  0  0  0
  -26.5455   -0.8762   28.8500 C   0  0  0  0  0  0  0  0  0  0  0  0
  -25.8041   -1.0324   30.0571 C   0  0  0  0  0  0  0  0  0  0  0  0
  -27.9437   -0.9869   31.2075 C   0  0  0  0  0  0  0  0  0  0  0  0
  -26.5825   -1.0386   31.2231 C   0  0  0  0  0  0  0  0  0  0  0  0
  -30.0606   -0.7371   29.9024 C   0  0  0  0  0  0  0  0  0  0  0  0
  -30.6052    0.0855   30.7066 O   0  0  0  0  0  0  0  0  0  0  0  0
  -30.6701   -1.4594   29.0728 O   0  0  0  0  0  0  0  0  0  0  0  0
  -24.3711   -1.0948   30.0783 C   0  0  0  0  0  0  0  0  0  0  0  0
  -23.7030    0.1902   30.1011 C   0  0  0  0  0  0  0  0  0  0  0  0
  -22.4581    0.3375   29.4175 C   0  0  0  0  0  0  0  0  0  0  0  0
  -21.7917   -0.8470   29.0286 C   0  0  0  0  0  0  0  0  0  0  0  0
  -22.5518   -2.0221   28.9300 C   0  0  0  0  0  0  0  0  0  0  0  0
  -23.8053   -2.1778   29.4359 C   0  0  0  0  0  0  0  0  0  0  0  0
  -24.3779   -3.3042   29.3631 F   0  0  0  0  0  0  0  0  0  0  0  0
  -24.2949    1.4143   30.7547 C   0  0  0  0  0  0  0  0  0  0  0  0
  -24.3848    1.5895   31.8849 O   0  0  0  0  0  0  0  0  0  0  0  0
  -24.8617    2.3165   29.8591 O   0  0  0  0  0  0  0  0  0  0  0  0
  -25.8650    3.1007   30.2170 C   0  0  0  0  0  0  0  0  0  0  0  0
  -26.5895    3.6799   29.1496 C   0  0  0  0  0  0  0  0  0  0  0  0
  -26.2222    3.6163   27.9590 C   0  0  0  0  0  0  0  0  0  0  0  0
  -26.2315    2.6592   27.3081 C   0  0  0  0  0  0  0  0  0  0  0  0
  -25.6428    2.5677   25.9552 C   0  0  0  0  0  0  0  0  0  0  0  0
  -25.4569    1.3630   25.2755 C   0  0  0  0  0  0  0  0  0  0  0  0
  -26.0960    0.2264   25.5716 C   0  0  0  0  0  0  0  0  0  0  0  0
  -26.9170    0.2890   26.7138 C   0  0  0  0  0  0  0  0  0  0  0  0
  -26.9836    1.4972   27.4868 C   0  0  0  0  0  0  0  0  0  0  0  0
  -28.0913    3.3660   29.2788 C   0  0  0  0  0  0  0  0  0  0  0  0
  -28.9640    4.4385   29.2132 C   0  0  0  0  0  0  0  0  0  0  0  0
  -30.3746    4.2259   29.3684 C   0  0  0  0  0  0  0  0  0  0  0  0
  -30.7613    2.8827   29.4479 C   0  0  0  0  0  0  0  0  0  0  0  0
  -32.1572    2.7256   29.5144 C   0  0  0  0  0  0  0  0  0  0  0  0
  -32.9750    3.7632   29.5042 C   0  0  0  0  0  0  0  0  0  0  0  0
  -32.5876    5.0525   29.4201 C   0  0  0  0  0  0  0  0  0  0  0  0
  2  7  1  0
  7  8  2  0
  7  9  1  0
  4 10  1  0
 15 16  1  0
 11 17  1  0
 17 18  2  0
 17 19  1  0
 19 20  1  0
 20 21  1  0
 21 22  1  0
 21 29  1  0
 29 30  2  3
 30 31  1  0
 31 32  2  3
 32 33  1  0
 33 34  2  3
 34 35  1  0
 22 23  1  0
 23 24  2  0
 24 25  1  0
 25 26  2  0
 26 27  1  0
 27 28  2  0
 28 23  1  0
  1  2  2  0
  2  5  1  0
  5  6  2  0
  6  4  1  0
  4  3  2  0
  3  1  1  0
 10 11  1  0
 11 12  2  0
 12 13  1  0
 13 14  2  0
 14 15  1  0
 15 10  2  0
M  END

$$$$
