No_1249-gen_results/8p0m/2024-11-26-14-13-15/
     RDKit          3D

 23 25  0  0  0  0  0  0  0  0999 V2000
  -28.0162   -0.8135   28.8779 C   0  0  0  0  0  0  0  0  0  0  0  0
  -27.0636   -0.1189   28.6079 C   0  0  0  0  0  0  0  0  0  0  0  0
  -25.7923   -0.4302   29.0761 C   0  0  0  0  0  0  0  0  0  0  0  0
  -25.2700   -0.0487   30.0123 C   0  0  0  0  0  0  0  0  0  0  0  0
  -29.2965   -0.1838   28.9398 C   0  0  0  0  0  0  0  0  0  0  0  0
  -29.5648    0.8003   28.0352 C   0  0  0  0  0  0  0  0  0  0  0  0
  -28.4695    1.4413   27.4238 C   0  0  0  0  0  0  0  0  0  0  0  0
  -27.1368    1.0792   27.7975 C   0  0  0  0  0  0  0  0  0  0  0  0
  -23.8989   -0.3559   30.5250 C   0  0  0  0  0  0  0  0  0  0  0  0
  -23.1075   -1.1949   29.7370 C   0  0  0  0  0  0  0  0  0  0  0  0
  -23.6421   -1.6781   28.5918 C   0  0  0  0  0  0  0  0  0  0  0  0
  -24.9086   -1.3299   28.1894 C   0  0  0  0  0  0  0  0  0  0  0  0
  -30.9046    1.2986   27.7729 C   0  0  0  0  0  0  0  0  0  0  0  0
  -31.7574    1.3020   28.7025 C   0  0  0  0  0  0  0  0  0  0  0  0
  -33.1814    1.5612   28.4497 C   0  0  0  0  0  0  0  0  0  0  0  0
  -33.4933    1.9376   27.1424 C   0  0  0  0  0  0  0  0  0  0  0  0
  -31.2573    1.6143   26.4500 C   0  0  0  0  0  0  0  0  0  0  0  0
  -32.5525    1.9655   26.1680 C   0  0  0  0  0  0  0  0  0  0  0  0
  -25.6923    1.9120   27.0388 Br  0  0  0  0  0  0  0  0  0  0  0  0
  -28.0277   -1.7570   29.8745 O   0  0  0  0  0  0  0  0  0  0  0  0
  -29.0556   -2.3254   30.5538 C   0  0  0  0  0  0  0  0  0  0  0  0
  -29.2243   -3.3903   30.0040 F   0  0  0  0  0  0  0  0  0  0  0  0
  -30.0904   -1.6034   30.2909 F   0  0  0  0  0  0  0  0  0  0  0  0
  2  3  1  0
  6 13  1  0
  8 19  1  0
  1 20  1  0
 20 21  1  0
 21 22  1  0
 21 23  1  0
  1  2  2  0
  2  8  1  0
  8  7  2  0
  7  6  1  0
  6  5  2  0
  5  1  1  0
  3  4  2  0
  4  9  1  0
  9 10  2  0
 10 11  1  0
 11 12  2  0
 12  3  1  0
 13 14  2  0
 14 15  1  0
 15 16  2  0
 16 18  1  0
 18 17  2  0
 17 13  1  0
M  END

$$$$
