No_1956-gen_results/8p0m/2024-11-26-14-13-15/
     RDKit          3D

 17 18  0  0  0  0  0  0  0  0999 V2000
  -28.1229   -1.3353   28.4874 O   0  0  0  0  0  0  0  0  0  0  0  0
  -27.4806   -0.4044   28.7094 C   0  0  0  0  0  0  0  0  0  0  0  0
  -27.1904    0.2460   29.5268 C   0  0  0  0  0  0  0  0  0  0  0  0
  -26.6871   -0.0001   27.4423 N   0  0  0  0  0  0  0  0  0  0  0  0
  -27.8781    0.0301   30.6683 F   0  0  0  0  0  0  0  0  0  0  0  0
  -26.8841   -0.4582   26.2325 C   0  0  0  0  0  0  0  0  0  0  0  0
  -26.2276    1.3912   29.8154 C   0  0  0  0  0  0  0  0  0  0  0  0
  -25.5682    1.8881   28.7210 C   0  0  0  0  0  0  0  0  0  0  0  0
  -25.6737    1.1189   27.4617 C   0  0  0  0  0  0  0  0  0  0  0  0
  -27.6453    0.3475   25.3648 C   0  0  0  0  0  0  0  0  0  0  0  0
  -28.9504    0.5721   25.7158 C   0  0  0  0  0  0  0  0  0  0  0  0
  -29.7019    1.3442   24.7828 C   0  0  0  0  0  0  0  0  0  0  0  0
  -31.0582    1.6767   25.0692 C   0  0  0  0  0  0  0  0  0  0  0  0
  -31.9965    1.4611   24.1687 C   0  0  0  0  0  0  0  0  0  0  0  0
  -31.5874    1.5138   22.7408 C   0  0  0  0  0  0  0  0  0  0  0  0
  -30.2528    1.3699   22.5090 C   0  0  0  0  0  0  0  0  0  0  0  0
  -29.2983    1.2043   23.5264 C   0  0  0  0  0  0  0  0  0  0  0  0
  1  2  2  0
  2  3  1  0
  2  4  1  0
  3  5  1  0
  4  6  1  0
  3  7  1  0
  7  8  1  0
  4  9  1  0
  6 10  1  0
 10 11  1  0
 11 12  1  0
  8  9  1  0
 12 13  2  0
 13 14  1  0
 14 15  2  0
 15 16  1  0
 16 17  2  0
 17 12  1  0
M  END

$$$$
