No_1051-gen_results/8p0m/2024-11-26-14-13-15/
     RDKit          3D

 29 31  0  0  0  0  0  0  0  0999 V2000
  -28.0162   -0.8135   28.8779 C   0  0  0  0  0  0  0  0  0  0  0  0
  -27.0636   -0.1189   28.6079 C   0  0  0  0  0  0  0  0  0  0  0  0
  -25.7923   -0.4302   29.0761 C   0  0  0  0  0  0  0  0  0  0  0  0
  -24.5456    0.3494   28.8225 C   0  0  0  0  0  0  0  0  0  0  0  0
  -24.6586    1.4196   27.8878 C   0  0  0  0  0  0  0  0  0  0  0  0
  -25.9471    1.6811   27.3792 C   0  0  0  0  0  0  0  0  0  0  0  0
  -27.0439    0.9739   27.6871 C   0  0  0  0  0  0  0  0  0  0  0  0
  -28.0241   -1.6475   30.1262 C   0  0  0  0  0  0  0  0  0  0  0  0
  -26.7278   -2.0846   30.5807 C   0  0  0  0  0  0  0  0  0  0  0  0
  -25.5915   -1.4064   30.1489 C   0  0  0  0  0  0  0  0  0  0  0  0
  -23.4497    2.1789   27.5290 C   0  0  0  0  0  0  0  0  0  0  0  0
  -23.7214    3.2949   27.0470 F   0  0  0  0  0  0  0  0  0  0  0  0
  -22.6670    2.4847   28.6162 F   0  0  0  0  0  0  0  0  0  0  0  0
  -22.6459    1.5028   26.7043 F   0  0  0  0  0  0  0  0  0  0  0  0
  -28.3010    1.3299   27.0057 C   0  0  0  0  0  0  0  0  0  0  0  0
  -28.6559    0.7562   26.0029 O   0  0  0  0  0  0  0  0  0  0  0  0
  -29.0550    2.3115   27.5774 N   0  0  0  0  0  0  0  0  0  0  0  0
  -30.3255    2.7087   27.0235 C   0  0  0  0  0  0  0  0  0  0  0  0
  -28.6625    3.0771   28.8111 C   0  0  0  0  0  0  0  0  0  0  0  0
  -29.0124    2.5473   29.9460 C   0  0  0  0  0  0  0  0  0  0  0  0
  -28.2041    2.8770   31.0479 C   0  0  0  0  0  0  0  0  0  0  0  0
  -27.2327    3.8808   30.9829 C   0  0  0  0  0  0  0  0  0  0  0  0
  -26.9690    4.4518   29.7027 C   0  0  0  0  0  0  0  0  0  0  0  0
  -27.5990    3.9278   28.5528 C   0  0  0  0  0  0  0  0  0  0  0  0
  -25.8837    5.1371   29.7558 F   0  0  0  0  0  0  0  0  0  0  0  0
  -29.2255   -2.3822   30.5146 C   0  0  0  0  0  0  0  0  0  0  0  0
  -30.0854   -1.8197   30.9797 O   0  0  0  0  0  0  0  0  0  0  0  0
  -29.1541   -3.6241   30.4638 O   0  0  0  0  0  0  0  0  0  0  0  0
  -27.2002    4.6265   27.0532 Cl  0  0  0  0  0  0  0  0  0  0  0  0
  5 11  1  0
 11 12  1  0
 11 13  1  0
 11 14  1  0
  7 15  1  0
 15 16  2  0
 15 17  1  0
 17 18  1  0
 17 19  1  0
 23 25  1  0
  8 26  1  0
 26 27  1  0
 26 28  2  0
 24 29  1  0
  3  4  1  0
  4  5  2  0
  5  6  1  0
  6  7  2  0
  7  2  1  0
  1  2  2  0
  2  3  1  0
  3 10  2  0
 10  9  1  0
  9  8  2  0
  8  1  1  0
 19 20  2  0
 20 21  1  0
 21 22  2  0
 22 23  1  0
 23 24  2  0
 24 19  1  0
M  END

$$$$
