No_146-gen_results/8p0m/2024-11-26-14-13-15/
     RDKit          3D

 15 15  0  0  0  0  0  0  0  0999 V2000
  -28.1229   -1.3353   28.4874 O   0  0  0  0  0  0  0  0  0  0  0  0
  -27.0637   -0.8242   28.8687 C   0  0  0  0  0  0  0  0  0  0  0  0
  -26.9592    0.0926   29.7582 C   0  0  0  0  0  0  0  0  0  0  0  0
  -25.8184   -1.0917   28.1701 N   0  0  0  0  0  0  0  0  0  0  0  0
  -25.7390    0.7178   30.2339 C   0  0  0  0  0  0  0  0  0  0  0  0
  -24.5767   -0.5776   28.5338 C   0  0  0  0  0  0  0  0  0  0  0  0
  -24.5324    0.3584   29.5603 C   0  0  0  0  0  0  0  0  0  0  0  0
  -23.2523    0.9270   29.9074 C   0  0  0  0  0  0  0  0  0  0  0  0
  -23.2214    1.8452   30.6096 O   0  0  0  0  0  0  0  0  0  0  0  0
  -22.1412    0.3249   29.5212 O   0  0  0  0  0  0  0  0  0  0  0  0
  -28.1677    0.4334   30.5713 C   0  0  0  0  0  0  0  0  0  0  0  0
  -29.1171    0.8346   30.6566 F   0  0  0  0  0  0  0  0  0  0  0  0
  -27.6753    0.2471   31.7696 F   0  0  0  0  0  0  0  0  0  0  0  0
  -28.5318   -0.6922   30.4635 F   0  0  0  0  0  0  0  0  0  0  0  0
  -27.4866    1.2208   28.9337 F   0  0  0  0  0  0  0  0  0  0  0  0
  1  2  2  0
  2  3  1  0
  2  4  1  0
  3  5  1  0
  5  7  1  0
  6  7  1  0
  7  8  1  0
  8  9  2  0
  8 10  1  0
  3 11  1  0
 11 12  1  0
 11 13  1  0
 11 14  1  0
  3 15  1  0
  6  4  1  0
M  END

$$$$
