No_14-gen_results/8p0m/2024-11-26-14-13-15/
     RDKit          3D

  6  5  0  0  0  0  0  0  0  0999 V2000
  -28.0162   -0.8135   28.8779 C   0  0  0  0  0  0  0  0  0  0  0  0
  -27.0636   -0.1189   28.6079 C   0  0  0  0  0  0  0  0  0  0  0  0
  -26.4071    0.8834   28.2425 C   0  0  0  0  0  0  0  0  0  0  0  0
  -25.0852    1.1714   28.3387 C   0  0  0  0  0  0  0  0  0  0  0  0
  -24.1634    0.2267   28.7356 C   0  0  0  0  0  0  0  0  0  0  0  0
  -24.7237   -1.0383   29.1430 C   0  0  0  0  0  0  0  0  0  0  0  0
  1  2  3  0
  2  3  1  0
  3  4  1  0
  4  5  2  3
  5  6  1  0
M  END

$$$$
