No_1211-gen_results/8p0m/2024-11-26-14-13-15/
     RDKit          3D

 15 16  0  0  0  0  0  0  0  0999 V2000
  -28.0162   -0.8135   28.8779 C   0  0  0  0  0  0  0  0  0  0  0  0
  -28.4690   -0.7850   29.8287 C   0  0  0  0  0  0  0  0  0  0  0  0
  -26.5455   -0.8762   28.8500 C   0  0  0  0  0  0  0  0  0  0  0  0
  -25.8041   -1.0324   30.0571 C   0  0  0  0  0  0  0  0  0  0  0  0
  -27.9437   -0.9869   31.2075 C   0  0  0  0  0  0  0  0  0  0  0  0
  -26.5825   -1.0386   31.2231 C   0  0  0  0  0  0  0  0  0  0  0  0
  -30.0279   -0.6588   29.6965 C   0  0  0  0  0  0  0  0  0  0  0  0
  -30.6032    0.2453   30.4157 O   0  0  0  0  0  0  0  0  0  0  0  0
  -30.6751   -1.6725   29.3125 O   0  0  0  0  0  0  0  0  0  0  0  0
  -24.3704   -1.1000   30.0898 C   0  0  0  0  0  0  0  0  0  0  0  0
  -23.7589   -1.7924   30.6501 N   0  0  0  0  0  0  0  0  0  0  0  0
  -23.6111   -0.0864   29.2701 C   0  0  0  0  0  0  0  0  0  0  0  0
  -22.2394   -0.2762   29.3077 C   0  0  0  0  0  0  0  0  0  0  0  0
  -22.4468   -1.9137   30.7521 N   0  0  0  0  0  0  0  0  0  0  0  0
  -21.6627   -1.1683   30.0205 C   0  0  0  0  0  0  0  0  0  0  0  0
  2  7  1  0
  7  8  1  0
  7  9  2  0
  4 10  1  0
 10 11  2  0
 11 14  1  0
 14 15  2  0
 15 13  1  0
 13 12  2  0
 12 10  1  0
  1  2  2  0
  2  5  1  0
  5  6  2  0
  6  4  1  0
  4  3  2  0
  3  1  1  0
M  END

$$$$
