No_1187-gen_results/8p0m/2024-11-26-14-13-15/
     RDKit          3D

  7  7  0  0  0  0  0  0  0  0999 V2000
  -28.1493   -0.8198   28.9079 Cl  0  0  0  0  0  0  0  0  0  0  0  0
  -26.9116   -0.0797   28.9452 C   0  0  0  0  0  0  0  0  0  0  0  0
  -25.9665   -0.2123   29.6235 C   0  0  0  0  0  0  0  0  0  0  0  0
  -24.7620    0.6059   29.6315 C   0  0  0  0  0  0  0  0  0  0  0  0
  -24.6775    1.6056   28.6289 C   0  0  0  0  0  0  0  0  0  0  0  0
  -25.7344    1.7557   27.8113 C   0  0  0  0  0  0  0  0  0  0  0  0
  -26.7981    0.9646   27.8904 C   0  0  0  0  0  0  0  0  0  0  0  0
  1  2  1  0
  2  3  2  0
  3  4  1  0
  4  5  2  0
  5  6  1  0
  6  7  2  0
  7  2  1  0
M  END

$$$$
