No_1704-gen_results/8p0m/2024-11-26-14-13-15/
     RDKit          3D

 12 12  0  0  0  0  0  0  0  0999 V2000
  -28.0162   -0.8135   28.8779 C   0  0  0  0  0  0  0  0  0  0  0  0
  -27.0636   -0.1190   28.6079 C   0  0  0  0  0  0  0  0  0  0  0  0
  -27.0010    0.6913   27.4910 C   0  0  0  0  0  0  0  0  0  0  0  0
  -28.1373    0.7363   26.6350 C   0  0  0  0  0  0  0  0  0  0  0  0
  -29.2360    0.0765   27.0690 C   0  0  0  0  0  0  0  0  0  0  0  0
  -29.2177   -0.6429   28.1747 C   0  0  0  0  0  0  0  0  0  0  0  0
  -27.7867   -1.6669   30.1199 C   0  0  0  0  0  0  0  0  0  0  0  0
  -26.8112   -2.1895   30.3867 O   0  0  0  0  0  0  0  0  0  0  0  0
  -28.8252   -1.7265   30.9708 O   0  0  0  0  0  0  0  0  0  0  0  0
  -30.2675    0.2769   26.0933 N   0  0  0  0  0  0  0  0  0  0  0  0
  -31.4295   -0.3358   26.4177 C   0  0  0  0  0  0  0  0  0  0  0  0
  -32.4931   -0.2221   25.3939 C   0  0  0  0  0  0  0  0  0  0  0  0
  1  7  1  0
  7  8  2  0
  7  9  1  0
  5 10  1  0
 10 11  2  3
 11 12  1  0
  1  2  2  0
  2  3  1  0
  3  4  2  0
  4  5  1  0
  5  6  2  0
  6  1  1  0
M  END

$$$$
