No_1658-gen_results/8p0m/2024-11-26-14-13-15/
     RDKit          3D

 20 22  0  0  0  0  0  0  0  0999 V2000
  -28.0544   -1.0498   28.7246 N   0  0  0  0  0  0  0  0  0  0  0  0
  -27.7460   -0.0733   29.0098 C   0  0  0  0  0  0  0  0  0  0  0  0
  -27.1737    0.7565   28.1070 C   0  0  0  0  0  0  0  0  0  0  0  0
  -25.8200    1.2606   28.2149 C   0  0  0  0  0  0  0  0  0  0  0  0
  -25.2536    1.2938   29.5375 C   0  0  0  0  0  0  0  0  0  0  0  0
  -23.9532    1.6549   29.6951 C   0  0  0  0  0  0  0  0  0  0  0  0
  -23.1811    1.9606   28.5738 C   0  0  0  0  0  0  0  0  0  0  0  0
  -23.6619    1.9368   27.3054 C   0  0  0  0  0  0  0  0  0  0  0  0
  -25.0045    1.5235   27.1474 C   0  0  0  0  0  0  0  0  0  0  0  0
  -27.8736    1.1269   26.9503 C   0  0  0  0  0  0  0  0  0  0  0  0
  -28.9718    0.2422   26.6337 C   0  0  0  0  0  0  0  0  0  0  0  0
  -28.4465   -1.9258   29.7892 C   0  0  0  0  0  0  0  0  0  0  0  0
  -28.8539   -3.2244   29.5412 C   0  0  0  0  0  0  0  0  0  0  0  0
  -29.1470   -4.0716   30.7275 C   0  0  0  0  0  0  0  0  0  0  0  0
  -29.3015   -3.5296   31.9702 C   0  0  0  0  0  0  0  0  0  0  0  0
  -28.9826   -2.2198   32.1842 C   0  0  0  0  0  0  0  0  0  0  0  0
  -28.5751   -1.3970   31.1261 C   0  0  0  0  0  0  0  0  0  0  0  0
  -27.5311    0.3956   30.3189 N   0  0  0  0  0  0  0  0  0  0  0  0
  -28.0393   -0.1088   31.2511 C   0  0  0  0  0  0  0  0  0  0  0  0
  -29.7023    0.6202   25.4234 C   0  0  0  0  0  0  0  0  0  0  0  0
  1  2  1  0
  2  3  1  0
  3 10  1  0
 10 11  2  3
  1 12  1  0
  2 18  1  0
 17 19  1  0
 18 19  1  0
 11 20  1  0
  3  4  1  0
 12 13  2  0
 13 14  1  0
 14 15  2  0
 15 16  1  0
 16 17  2  0
 17 12  1  0
  4  5  2  0
  5  6  1  0
  6  7  2  0
  7  8  1  0
  8  9  2  0
  9  4  1  0
M  END

$$$$
