No_1594-gen_results/8p0m/2024-11-26-14-13-15/
     RDKit          3D

 16 17  0  0  0  0  0  0  0  0999 V2000
  -28.0162   -0.8135   28.8779 C   0  0  0  0  0  0  0  0  0  0  0  0
  -28.4690   -0.7850   29.8287 C   0  0  0  0  0  0  0  0  0  0  0  0
  -27.0871    0.2903   28.6377 C   0  0  0  0  0  0  0  0  0  0  0  0
  -26.2516    0.4114   27.4223 C   0  0  0  0  0  0  0  0  0  0  0  0
  -28.3913    0.1041   30.9805 C   0  0  0  0  0  0  0  0  0  0  0  0
  -27.5332    1.1666   30.7866 C   0  0  0  0  0  0  0  0  0  0  0  0
  -26.8281    1.2557   29.6454 C   0  0  0  0  0  0  0  0  0  0  0  0
  -25.1384    0.6747   27.2308 C   0  0  0  0  0  0  0  0  0  0  0  0
  -24.3157    0.8667   28.4419 C   0  0  0  0  0  0  0  0  0  0  0  0
  -23.3531    0.3541   28.6369 C   0  0  0  0  0  0  0  0  0  0  0  0
  -22.3334    0.6859   29.7210 C   0  0  0  0  0  0  0  0  0  0  0  0
  -22.9868    1.5060   30.5871 N   0  0  0  0  0  0  0  0  0  0  0  0
  -24.1579    2.1293   30.4617 C   0  0  0  0  0  0  0  0  0  0  0  0
  -24.8693    1.8798   29.3802 C   0  0  0  0  0  0  0  0  0  0  0  0
  -26.2141    1.5740   29.6373 F   0  0  0  0  0  0  0  0  0  0  0  0
  -24.9885    3.2297   28.5662 C   0  0  0  0  0  0  0  0  0  0  0  0
  3  4  1  0
  4  8  2  3
  8  9  1  0
  7 15  1  0
 14 16  1  0
  9 10  2  0
 10 11  1  0
 11 12  2  0
 12 13  1  0
 13 14  2  0
 14  9  1  0
  1  2  2  0
  2  5  1  0
  5  6  2  0
  6  7  1  0
  7  3  2  0
  3  1  1  0
M  END

$$$$
