No_1121-gen_results/8p0m/2024-11-26-14-13-15/
     RDKit          3D

 15 16  0  0  0  0  0  0  0  0999 V2000
  -28.0162   -0.8135   28.8779 C   0  0  0  0  0  0  0  0  0  0  0  0
  -27.0636   -0.1190   28.6079 C   0  0  0  0  0  0  0  0  0  0  0  0
  -25.7647   -0.3897   29.0360 C   0  0  0  0  0  0  0  0  0  0  0  0
  -25.5296   -1.5303   29.9014 C   0  0  0  0  0  0  0  0  0  0  0  0
  -26.6888   -2.2893   30.1810 C   0  0  0  0  0  0  0  0  0  0  0  0
  -27.8727   -1.9508   29.7373 C   0  0  0  0  0  0  0  0  0  0  0  0
  -24.7078    0.5670   28.7015 C   0  0  0  0  0  0  0  0  0  0  0  0
  -23.4620    0.2939   29.1741 C   0  0  0  0  0  0  0  0  0  0  0  0
  -23.2350   -0.9849   29.8468 C   0  0  0  0  0  0  0  0  0  0  0  0
  -24.2215   -1.8157   30.2673 C   0  0  0  0  0  0  0  0  0  0  0  0
  -24.8417    1.7300   27.8988 C   0  0  0  0  0  0  0  0  0  0  0  0
  -25.1029    2.6988   28.3911 O   0  0  0  0  0  0  0  0  0  0  0  0
  -24.3434    1.6506   26.6120 N   0  0  0  0  0  0  0  0  0  0  0  0
  -23.9048    0.5496   25.9462 C   0  0  0  0  0  0  0  0  0  0  0  0
  -24.2934    2.8968   25.8370 C   0  0  0  0  0  0  0  0  0  0  0  0
  7 11  1  0
 11 12  2  0
 11 13  1  0
 13 14  1  0
 13 15  1  0
  1  2  2  0
  2  3  1  0
  4  5  1  0
  5  6  2  0
  6  1  1  0
  3  4  2  0
  4 10  1  0
 10  9  2  0
  9  8  1  0
  8  7  2  0
  7  3  1  0
M  END

$$$$
