No_1453-gen_results/8p0m/2024-11-26-14-13-15/
     RDKit          3D

 21 23  0  0  0  0  0  0  0  0999 V2000
  -28.0162   -0.8135   28.8779 C   0  0  0  0  0  0  0  0  0  0  0  0
  -28.4690   -0.7850   29.8287 C   0  0  0  0  0  0  0  0  0  0  0  0
  -28.1816    0.4277   28.1134 C   0  0  0  0  0  0  0  0  0  0  0  0
  -27.4498    0.6435   26.8500 C   0  0  0  0  0  0  0  0  0  0  0  0
  -26.1815    0.0357   26.7145 C   0  0  0  0  0  0  0  0  0  0  0  0
  -25.7800   -0.9326   27.6938 C   0  0  0  0  0  0  0  0  0  0  0  0
  -26.5568   -1.2134   28.7413 C   0  0  0  0  0  0  0  0  0  0  0  0
  -29.6101   -0.2783   30.1938 N   0  0  0  0  0  0  0  0  0  0  0  0
  -28.1839   -1.9973   30.7659 N   0  0  0  0  0  0  0  0  0  0  0  0
  -30.4344   -0.6399   31.3293 C   0  0  0  0  0  0  0  0  0  0  0  0
  -28.9716   -2.3785   31.8081 C   0  0  0  0  0  0  0  0  0  0  0  0
  -30.0390   -1.6312   32.1454 C   0  0  0  0  0  0  0  0  0  0  0  0
  -25.1209    0.4313   25.4502 Cl  0  0  0  0  0  0  0  0  0  0  0  0
  -31.4589    0.1291   31.5802 O   0  0  0  0  0  0  0  0  0  0  0  0
  -30.8294   -2.0278   33.3351 C   0  0  0  0  0  0  0  0  0  0  0  0
  -30.9054   -3.0898   33.7063 N   0  0  0  0  0  0  0  0  0  0  0  0
  -31.5993   -3.4738   34.7434 C   0  0  0  0  0  0  0  0  0  0  0  0
  -31.5103   -4.8367   35.1768 C   0  0  0  0  0  0  0  0  0  0  0  0
  -30.7135   -5.6595   34.3599 C   0  0  0  0  0  0  0  0  0  0  0  0
  -29.9630   -5.3196   33.2892 C   0  0  0  0  0  0  0  0  0  0  0  0
  -30.0122   -3.9583   32.9611 C   0  0  0  0  0  0  0  0  0  0  0  0
  1  2  1  0
  2  9  1  0
  8 10  1  0
 10 12  1  0
 11 12  1  0
  5 13  1  0
 10 14  2  0
 12 15  1  0
 15 16  1  0
 16 17  1  0
 18 19  1  0
 16 21  1  0
 20 21  1  0
 17 18  1  0
 19 20  1  0
  8  2  1  0
  9 11  1  0
  1  3  2  0
  3  4  1  0
  4  5  2  0
  5  6  1  0
  6  7  2  0
  7  1  1  0
M  END

$$$$
