No_1547-gen_results/8p0m/2024-11-26-14-13-15/
     RDKit          3D

 35 37  0  0  0  0  0  0  0  0999 V2000
  -28.0162   -0.8135   28.8779 C   0  0  0  0  0  0  0  0  0  0  0  0
  -28.4690   -0.7850   29.8287 C   0  0  0  0  0  0  0  0  0  0  0  0
  -26.5042   -0.7777   28.8766 C   0  0  0  0  0  0  0  0  0  0  0  0
  -25.8103   -0.8531   30.1028 C   0  0  0  0  0  0  0  0  0  0  0  0
  -27.9906   -0.8916   31.2257 C   0  0  0  0  0  0  0  0  0  0  0  0
  -26.6042   -0.8676   31.2652 C   0  0  0  0  0  0  0  0  0  0  0  0
  -24.3894   -0.8049   30.1638 C   0  0  0  0  0  0  0  0  0  0  0  0
  -23.8172    0.4762   29.9118 C   0  0  0  0  0  0  0  0  0  0  0  0
  -24.1955    1.5984   30.1917 C   0  0  0  0  0  0  0  0  0  0  0  0
  -25.4059    1.7758   30.9280 C   0  0  0  0  0  0  0  0  0  0  0  0
  -25.8155    3.1571   31.2756 C   0  0  0  0  0  0  0  0  0  0  0  0
  -25.3805    4.1144   30.4701 C   0  0  0  0  0  0  0  0  0  0  0  0
  -24.5279    3.9014   29.3849 C   0  0  0  0  0  0  0  0  0  0  0  0
  -23.9125    2.6846   29.2831 C   0  0  0  0  0  0  0  0  0  0  0  0
  -22.4718    0.3043   29.2079 C   0  0  0  0  0  0  0  0  0  0  0  0
  -25.7345   -0.6561   27.6353 C   0  0  0  0  0  0  0  0  0  0  0  0
  -21.6743   -0.6162   29.4590 O   0  0  0  0  0  0  0  0  0  0  0  0
  -22.1145    1.1053   28.2864 O   0  0  0  0  0  0  0  0  0  0  0  0
  -26.9314    3.3137   32.2638 C   0  0  0  0  0  0  0  0  0  0  0  0
  -27.1080    2.7423   33.1872 O   0  0  0  0  0  0  0  0  0  0  0  0
  -27.8356    4.2265   31.8375 O   0  0  0  0  0  0  0  0  0  0  0  0
  -29.9758   -0.8079   29.8792 N   0  0  0  0  0  0  0  0  0  0  0  0
  -30.7857   -1.3924   30.5615 C   0  0  0  0  0  0  0  0  0  0  0  0
  -30.4482   -2.1133   31.4104 O   0  0  0  0  0  0  0  0  0  0  0  0
  -32.2104   -1.1988   30.1940 C   0  0  0  0  0  0  0  0  0  0  0  0
  -32.4383   -0.7056   29.1877 C   0  0  0  0  0  0  0  0  0  0  0  0
  -30.5295   -0.0123   28.7669 C   0  0  0  0  0  0  0  0  0  0  0  0
  -31.7206    0.0478   28.4999 N   0  0  0  0  0  0  0  0  0  0  0  0
  -29.7493    0.8611   28.0632 O   0  0  0  0  0  0  0  0  0  0  0  0
  -33.1596   -2.0947   31.0465 C   0  0  0  0  0  0  0  0  0  0  0  0
  -34.2550   -2.1872   30.6888 O   0  0  0  0  0  0  0  0  0  0  0  0
  -32.6339   -2.9348   31.9208 O   0  0  0  0  0  0  0  0  0  0  0  0
  -29.1286    4.1059   32.2794 C   0  0  0  0  0  0  0  0  0  0  0  0
  -29.6253    2.9892   32.2858 C   0  0  0  0  0  0  0  0  0  0  0  0
  -31.0250    2.8469   32.0698 C   0  0  0  0  0  0  0  0  0  0  0  0
  4  7  1  0
  7  8  1  0
  8 15  1  0
  3 16  1  0
 15 17  1  0
 15 18  2  0
 11 19  1  0
 19 20  2  0
 19 21  1  0
  2 22  1  0
 22 23  1  0
 23 24  2  0
 23 25  1  0
 22 27  1  0
 27 28  1  0
 27 29  2  0
 25 30  1  0
 30 31  1  0
 30 32  1  0
 21 33  1  0
 33 34  1  0
 34 35  2  0
  8  9  1  0
 25 26  1  0
 26 28  1  0
  9 10  2  0
 10 11  1  0
 11 12  2  0
 12 13  1  0
 13 14  2  0
 14  9  1  0
  1  2  2  0
  2  5  1  0
  5  6  2  0
  6  4  1  0
  4  3  2  0
  3  1  1  0
M  END

$$$$
