No_1294-gen_results/8p0m/2024-11-26-14-13-15/
     RDKit          3D

 16 17  0  0  0  0  0  0  0  0999 V2000
  -28.0162   -0.8135   28.8779 C   0  0  0  0  0  0  0  0  0  0  0  0
  -27.0636   -0.1190   28.6079 C   0  0  0  0  0  0  0  0  0  0  0  0
  -25.7923   -0.4302   29.0761 C   0  0  0  0  0  0  0  0  0  0  0  0
  -25.5756   -1.5654   29.9363 C   0  0  0  0  0  0  0  0  0  0  0  0
  -26.7354   -2.3004   30.2173 C   0  0  0  0  0  0  0  0  0  0  0  0
  -27.9184   -1.9537   29.7629 C   0  0  0  0  0  0  0  0  0  0  0  0
  -29.0732   -2.7835   30.1783 C   0  0  0  0  0  0  0  0  0  0  0  0
  -30.1487   -2.3834   30.0722 O   0  0  0  0  0  0  0  0  0  0  0  0
  -28.7926   -3.7890   30.9872 O   0  0  0  0  0  0  0  0  0  0  0  0
  -24.6670    0.3004   28.7789 F   0  0  0  0  0  0  0  0  0  0  0  0
  -27.1047    1.0715   27.6702 C   0  0  0  0  0  0  0  0  0  0  0  0
  -27.2715    2.1412   27.9257 N   0  0  0  0  0  0  0  0  0  0  0  0
  -27.4426    0.6725   26.2431 C   0  0  0  0  0  0  0  0  0  0  0  0
  -27.6508    1.7239   25.4280 C   0  0  0  0  0  0  0  0  0  0  0  0
  -27.4186    3.2692   27.2357 C   0  0  0  0  0  0  0  0  0  0  0  0
  -27.6221    3.0697   25.8411 C   0  0  0  0  0  0  0  0  0  0  0  0
  6  7  1  0
  7  8  1  0
  7  9  2  0
  3 10  1  0
  2 11  1  0
 11 12  2  0
 12 15  1  0
 15 16  2  0
 16 14  1  0
 14 13  2  0
 13 11  1  0
  1  2  2  0
  2  3  1  0
  3  4  2  0
  4  5  1  0
  5  6  2  0
  6  1  1  0
M  END

$$$$
