No_1825-gen_results/8p0m/2024-11-26-14-13-15/
     RDKit          3D

  7  6  0  0  0  0  0  0  0  0999 V2000
  -28.1493   -0.8198   28.9079 Cl  0  0  0  0  0  0  0  0  0  0  0  0
  -27.8339    0.4961   29.0598 C   0  0  0  0  0  0  0  0  0  0  0  0
  -27.7903    1.1418   28.0451 F   0  0  0  0  0  0  0  0  0  0  0  0
  -28.6323    1.2373   30.1065 C   0  0  0  0  0  0  0  0  0  0  0  0
  -26.5233    0.5319   29.5428 F   0  0  0  0  0  0  0  0  0  0  0  0
  -29.7654    0.9112   30.3232 N   0  0  0  0  0  0  0  0  0  0  0  0
  -30.3745    0.1137   29.7475 C   0  0  0  0  0  0  0  0  0  0  0  0
  1  2  1  0
  2  3  1  0
  2  4  1  0
  2  5  1  0
  4  6  1  0
  6  7  1  0
M  END

$$$$
