No_1492-gen_results/8p0m/2024-11-26-14-13-15/
     RDKit          3D

 15 15  0  0  0  0  0  0  0  0999 V2000
  -28.0162   -0.8135   28.8779 C   0  0  0  0  0  0  0  0  0  0  0  0
  -27.0636   -0.1189   28.6079 C   0  0  0  0  0  0  0  0  0  0  0  0
  -26.9716    0.7139   27.5060 C   0  0  0  0  0  0  0  0  0  0  0  0
  -28.1053    0.7744   26.6421 C   0  0  0  0  0  0  0  0  0  0  0  0
  -29.2041    0.1179   27.0477 C   0  0  0  0  0  0  0  0  0  0  0  0
  -29.2127   -0.6088   28.1281 C   0  0  0  0  0  0  0  0  0  0  0  0
  -30.3709    0.2326   26.1381 C   0  0  0  0  0  0  0  0  0  0  0  0
  -30.2836    0.1310   24.9011 N   0  0  0  0  0  0  0  0  0  0  0  0
  -31.5507    0.2259   26.6449 O   0  0  0  0  0  0  0  0  0  0  0  0
  -25.6738    1.4026   27.1107 C   0  0  0  0  0  0  0  0  0  0  0  0
  -24.5450    1.0613   27.7697 C   0  0  0  0  0  0  0  0  0  0  0  0
  -23.6271    1.7173   28.2174 C   0  0  0  0  0  0  0  0  0  0  0  0
  -22.5266    1.6063   28.4861 C   0  0  0  0  0  0  0  0  0  0  0  0
  -22.0602    0.1963   28.7153 C   0  0  0  0  0  0  0  0  0  0  0  0
  -23.0197   -0.7898   28.4970 C   0  0  0  0  0  0  0  0  0  0  0  0
  5  7  1  0
  7  8  1  0
  7  9  2  0
  3 10  1  0
 10 11  2  3
 11 12  1  0
 12 13  2  3
 13 14  1  0
 14 15  2  0
  1  2  2  0
  2  3  1  0
  3  4  2  0
  4  5  1  0
  5  6  2  0
  6  1  1  0
M  END

$$$$
