No_1628-gen_results/8p0m/2024-11-26-14-13-15/
     RDKit          3D

 35 39  0  0  0  0  0  0  0  0999 V2000
  -28.0162   -0.8135   28.8779 C   0  0  0  0  0  0  0  0  0  0  0  0
  -27.0636   -0.1189   28.6079 C   0  0  0  0  0  0  0  0  0  0  0  0
  -25.7647   -0.3897   29.0360 C   0  0  0  0  0  0  0  0  0  0  0  0
  -25.5296   -1.5302   29.9014 C   0  0  0  0  0  0  0  0  0  0  0  0
  -26.6888   -2.2893   30.1810 C   0  0  0  0  0  0  0  0  0  0  0  0
  -27.8727   -1.9508   29.7373 C   0  0  0  0  0  0  0  0  0  0  0  0
  -24.7078    0.5670   28.7015 C   0  0  0  0  0  0  0  0  0  0  0  0
  -24.6780    1.8401   29.1492 C   0  0  0  0  0  0  0  0  0  0  0  0
  -23.6651    2.7182   28.7285 C   0  0  0  0  0  0  0  0  0  0  0  0
  -22.6575    2.2437   27.8352 C   0  0  0  0  0  0  0  0  0  0  0  0
  -23.5909    0.2727   27.8239 C   0  0  0  0  0  0  0  0  0  0  0  0
  -22.6245    1.0042   27.4613 C   0  0  0  0  0  0  0  0  0  0  0  0
  -29.0323   -2.7900   30.1487 C   0  0  0  0  0  0  0  0  0  0  0  0
  -28.8824   -4.1035   30.3594 N   0  0  0  0  0  0  0  0  0  0  0  0
  -30.1553   -2.3631   30.1307 F   0  0  0  0  0  0  0  0  0  0  0  0
  -29.9687   -4.9876   30.4886 C   0  0  0  0  0  0  0  0  0  0  0  0
  -30.7277   -5.2166   29.4297 C   0  0  0  0  0  0  0  0  0  0  0  0
  -31.5132   -6.3648   29.4495 C   0  0  0  0  0  0  0  0  0  0  0  0
  -32.2612   -6.7570   28.2597 C   0  0  0  0  0  0  0  0  0  0  0  0
  -32.1508   -5.9292   27.1109 C   0  0  0  0  0  0  0  0  0  0  0  0
  -31.3304   -4.7863   27.1498 C   0  0  0  0  0  0  0  0  0  0  0  0
  -30.5761   -4.5240   28.3039 C   0  0  0  0  0  0  0  0  0  0  0  0
  -30.1941   -5.3173   31.7331 O   0  0  0  0  0  0  0  0  0  0  0  0
  -25.6608    2.4232   30.0652 C   0  0  0  0  0  0  0  0  0  0  0  0
  -26.1469    3.6498   29.8329 C   0  0  0  0  0  0  0  0  0  0  0  0
  -27.1284    4.1249   30.7055 C   0  0  0  0  0  0  0  0  0  0  0  0
  -26.0149    1.7763   31.2561 C   0  0  0  0  0  0  0  0  0  0  0  0
  -26.8740    2.2841   32.1962 C   0  0  0  0  0  0  0  0  0  0  0  0
  -27.4513    3.5325   31.8966 C   0  0  0  0  0  0  0  0  0  0  0  0
  -27.2260    1.5163   33.3974 C   0  0  0  0  0  0  0  0  0  0  0  0
  -27.1647    0.2896   33.4334 C   0  0  0  0  0  0  0  0  0  0  0  0
  -27.5758   -0.4687   34.6076 C   0  0  0  0  0  0  0  0  0  0  0  0
  -28.0431    0.1773   35.6838 C   0  0  0  0  0  0  0  0  0  0  0  0
  -28.0754    1.5680   35.6776 C   0  0  0  0  0  0  0  0  0  0  0  0
  -27.7077    2.2874   34.5589 C   0  0  0  0  0  0  0  0  0  0  0  0
  3  7  1  0
  6 13  1  0
 13 14  1  0
 13 15  1  0
 14 16  1  0
 16 17  1  0
 16 23  2  0
  8 24  1  0
 28 30  1  0
  1  2  2  0
  2  3  1  0
  3  4  2  0
  4  5  1  0
  5  6  2  0
  6  1  1  0
 17 18  2  0
 18 19  1  0
 19 20  2  0
 20 21  1  0
 21 22  2  0
 22 17  1  0
 24 25  2  0
 25 26  1  0
 26 29  2  0
 29 28  1  0
 28 27  2  0
 27 24  1  0
 30 31  2  0
 31 32  1  0
 32 33  2  0
 33 34  1  0
 34 35  2  0
 35 30  1  0
  7  8  1  0
  8  9  2  0
  9 10  1  0
 10 12  2  0
 12 11  1  0
 11  7  2  0
M  END

$$$$
