No_168-gen_results/8p0m/2024-11-26-14-13-15/
     RDKit          3D

 10 10  0  0  0  0  0  0  0  0999 V2000
  -28.1229   -1.3353   28.4874 O   0  0  0  0  0  0  0  0  0  0  0  0
  -27.0637   -0.8242   28.8687 C   0  0  0  0  0  0  0  0  0  0  0  0
  -26.8937   -0.2656   29.6815 N   0  0  0  0  0  0  0  0  0  0  0  0
  -25.6437   -1.2145   28.1394 C   0  0  0  0  0  0  0  0  0  0  0  0
  -24.4551   -0.7002   28.6246 C   0  0  0  0  0  0  0  0  0  0  0  0
  -25.7402    0.4235   30.3148 C   0  0  0  0  0  0  0  0  0  0  0  0
  -24.5066    0.1586   29.6941 C   0  0  0  0  0  0  0  0  0  0  0  0
  -23.2859    0.7682   30.1849 C   0  0  0  0  0  0  0  0  0  0  0  0
  -22.1432    0.3619   29.7425 O   0  0  0  0  0  0  0  0  0  0  0  0
  -23.3311    1.8537   30.8522 O   0  0  0  0  0  0  0  0  0  0  0  0
  1  2  2  0
  2  3  1  0
  2  4  1  0
  4  5  1  0
  6  7  1  0
  7  8  1  0
  8  9  1  0
  8 10  2  0
  3  6  1  0
  7  5  1  0
M  END

$$$$
