No_1866-gen_results/8p0m/2024-11-26-14-13-15/
     RDKit          3D

 21 21  0  0  0  0  0  0  0  0999 V2000
  -28.1229   -1.3353   28.4874 O   0  0  0  0  0  0  0  0  0  0  0  0
  -28.5208   -0.4363   29.0779 C   0  0  0  0  0  0  0  0  0  0  0  0
  -28.5894    0.5916   28.9464 C   0  0  0  0  0  0  0  0  0  0  0  0
  -28.7865   -0.8872   30.4874 N   0  0  0  0  0  0  0  0  0  0  0  0
  -29.3324    1.6324   29.5095 C   0  0  0  0  0  0  0  0  0  0  0  0
  -27.9025    1.1652   27.6321 C   0  0  0  0  0  0  0  0  0  0  0  0
  -28.6194   -2.1837   31.0375 C   0  0  0  0  0  0  0  0  0  0  0  0
  -28.2542    2.1169   26.9225 C   0  0  0  0  0  0  0  0  0  0  0  0
  -29.6361    2.8843   28.8147 C   0  0  0  0  0  0  0  0  0  0  0  0
  -29.0260    3.1919   27.5985 C   0  0  0  0  0  0  0  0  0  0  0  0
  -29.6476   -3.0211   30.6816 C   0  0  0  0  0  0  0  0  0  0  0  0
  -30.3583   -2.9727   29.9078 O   0  0  0  0  0  0  0  0  0  0  0  0
  -29.4694   -4.3245   31.4360 N   0  0  0  0  0  0  0  0  0  0  0  0
  -30.3975   -5.4278   31.1720 C   0  0  0  0  0  0  0  0  0  0  0  0
  -31.5144   -5.3735   32.0084 C   0  0  0  0  0  0  0  0  0  0  0  0
  -31.8128   -4.8303   32.9914 F   0  0  0  0  0  0  0  0  0  0  0  0
  -31.8262   -6.7722   32.2582 F   0  0  0  0  0  0  0  0  0  0  0  0
  -32.5951   -5.0730   31.0666 F   0  0  0  0  0  0  0  0  0  0  0  0
  -30.5040    3.8536   29.5093 C   0  0  0  0  0  0  0  0  0  0  0  0
  -29.9948    4.7310   30.0227 O   0  0  0  0  0  0  0  0  0  0  0  0
  -31.7461    3.5615   29.4155 O   0  0  0  0  0  0  0  0  0  0  0  0
  1  2  2  0
  2  3  1  0
  2  4  1  0
  4  7  1  0
  7 11  1  0
 11 12  2  0
 11 13  1  0
 13 14  1  0
 14 15  1  0
 15 16  1  0
 15 17  1  0
 15 18  1  0
  9 19  1  0
 19 20  2  0
 19 21  1  0
  3  5  2  0
  5  9  1  0
  9 10  2  0
 10  8  1  0
  8  6  2  0
  6  3  1  0
M  END

$$$$
