No_105-gen_results/8p0m/2024-11-26-14-13-15/
     RDKit          3D

 15 16  0  0  0  0  0  0  0  0999 V2000
  -28.0544   -1.0498   28.7246 N   0  0  0  0  0  0  0  0  0  0  0  0
  -26.9659   -0.4722   28.7709 C   0  0  0  0  0  0  0  0  0  0  0  0
  -26.8762    0.8133   29.2194 C   0  0  0  0  0  0  0  0  0  0  0  0
  -25.6021    1.3795   29.4629 C   0  0  0  0  0  0  0  0  0  0  0  0
  -24.3996    0.7085   29.1014 C   0  0  0  0  0  0  0  0  0  0  0  0
  -24.5784   -0.6219   28.6929 C   0  0  0  0  0  0  0  0  0  0  0  0
  -25.7937   -1.2051   28.5265 C   0  0  0  0  0  0  0  0  0  0  0  0
  -28.6457   -1.5098   29.9186 C   0  0  0  0  0  0  0  0  0  0  0  0
  -30.0790   -1.6834   29.9348 C   0  0  0  0  0  0  0  0  0  0  0  0
  -30.7583   -0.8831   29.2845 N   0  0  0  0  0  0  0  0  0  0  0  0
  -30.5618   -2.6045   30.6919 O   0  0  0  0  0  0  0  0  0  0  0  0
  -30.2943    0.2064   28.5893 C   0  0  0  0  0  0  0  0  0  0  0  0
  -29.1178    0.2359   28.3460 C   0  0  0  0  0  0  0  0  0  0  0  0
  -28.3128    1.2398   28.0329 O   0  0  0  0  0  0  0  0  0  0  0  0
  -27.5559    1.0414   30.6458 C   0  0  0  0  0  0  0  0  0  0  0  0
  1  2  1  0
  1  8  1  0
  8  9  1  0
  9 10  1  0
  9 11  2  0
 10 12  1  0
  1 13  1  0
 12 13  1  0
 13 14  2  0
  3 15  1  0
  2  3  2  0
  3  4  1  0
  4  5  2  0
  5  6  1  0
  6  7  2  0
  7  2  1  0
M  END

$$$$
