No_1869-gen_results/8p0m/2024-11-26-14-13-15/
     RDKit          3D

 23 25  0  0  0  0  0  0  0  0999 V2000
  -28.0162   -0.8135   28.8779 C   0  0  0  0  0  0  0  0  0  0  0  0
  -28.4690   -0.7850   29.8287 C   0  0  0  0  0  0  0  0  0  0  0  0
  -26.5455   -0.8762   28.8500 C   0  0  0  0  0  0  0  0  0  0  0  0
  -25.6825   -0.7773   27.6829 C   0  0  0  0  0  0  0  0  0  0  0  0
  -27.9181   -1.0034   31.1877 C   0  0  0  0  0  0  0  0  0  0  0  0
  -26.5308   -1.0794   31.2463 C   0  0  0  0  0  0  0  0  0  0  0  0
  -25.7798   -1.0462   30.0905 C   0  0  0  0  0  0  0  0  0  0  0  0
  -25.8976    0.2387   26.7449 C   0  0  0  0  0  0  0  0  0  0  0  0
  -24.9256    0.7629   26.0322 C   0  0  0  0  0  0  0  0  0  0  0  0
  -24.2472    1.7995   26.1605 C   0  0  0  0  0  0  0  0  0  0  0  0
  -24.4507    2.7005   27.2727 C   0  0  0  0  0  0  0  0  0  0  0  0
  -25.2305    3.8652   27.1028 C   0  0  0  0  0  0  0  0  0  0  0  0
  -25.8693    4.3921   27.8277 C   0  0  0  0  0  0  0  0  0  0  0  0
  -25.8590    4.0012   29.2563 C   0  0  0  0  0  0  0  0  0  0  0  0
  -25.1048    2.8521   29.5320 C   0  0  0  0  0  0  0  0  0  0  0  0
  -24.4398    2.1287   28.5498 C   0  0  0  0  0  0  0  0  0  0  0  0
  -25.2559    2.3283   31.2177 Cl  0  0  0  0  0  0  0  0  0  0  0  0
  -27.2357    0.7364   26.4597 C   0  0  0  0  0  0  0  0  0  0  0  0
  -27.9170    0.2558   25.3107 C   0  0  0  0  0  0  0  0  0  0  0  0
  -29.2428    0.5851   25.0654 C   0  0  0  0  0  0  0  0  0  0  0  0
  -29.9753    1.2657   25.9757 C   0  0  0  0  0  0  0  0  0  0  0  0
  -29.3361    1.8284   27.1182 C   0  0  0  0  0  0  0  0  0  0  0  0
  -28.0513    1.6062   27.3943 C   0  0  0  0  0  0  0  0  0  0  0  0
  3  4  1  0
  4  8  1  0
  8  9  2  3
  9 10  1  0
 10 11  1  0
 15 17  1  0
  8 18  1  0
 18 19  2  0
 19 20  1  0
 20 21  2  0
 21 22  1  0
 22 23  2  0
 23 18  1  0
 11 12  2  0
 12 13  1  0
 13 14  2  0
 14 15  1  0
 15 16  2  0
 16 11  1  0
  1  2  2  0
  2  5  1  0
  5  6  2  0
  6  7  1  0
  7  3  2  0
  3  1  1  0
M  END

$$$$
