No_1309-gen_results/8p0m/2024-11-26-14-13-15/
     RDKit          3D

 12 12  0  0  0  0  0  0  0  0999 V2000
  -28.0162   -0.8135   28.8779 C   0  0  0  0  0  0  0  0  0  0  0  0
  -28.4690   -0.7850   29.8287 C   0  0  0  0  0  0  0  0  0  0  0  0
  -28.1960    0.3478   28.0550 C   0  0  0  0  0  0  0  0  0  0  0  0
  -27.4421    0.5100   26.7946 C   0  0  0  0  0  0  0  0  0  0  0  0
  -26.1689   -0.0794   26.6787 C   0  0  0  0  0  0  0  0  0  0  0  0
  -25.7312   -0.9607   27.6875 C   0  0  0  0  0  0  0  0  0  0  0  0
  -26.5043   -1.2222   28.7582 C   0  0  0  0  0  0  0  0  0  0  0  0
  -29.6530   -0.2892   30.1660 C   0  0  0  0  0  0  0  0  0  0  0  0
  -30.4383   -0.5554   31.2751 C   0  0  0  0  0  0  0  0  0  0  0  0
  -31.6180    0.1852   31.5770 C   0  0  0  0  0  0  0  0  0  0  0  0
  -32.0309    1.1052   30.6453 C   0  0  0  0  0  0  0  0  0  0  0  0
  -31.3225    1.3709   29.5451 C   0  0  0  0  0  0  0  0  0  0  0  0
  2  8  1  0
  8  9  2  3
  9 10  1  0
 10 11  2  3
 11 12  1  0
  2  1  1  0
  1  3  2  0
  3  4  1  0
  4  5  2  0
  5  6  1  0
  6  7  2  0
  7  1  1  0
M  END

$$$$
