No_1195-gen_results/8p0m/2024-11-26-14-13-15/
     RDKit          3D

 16 17  0  0  0  0  0  0  0  0999 V2000
  -28.0162   -0.8135   28.8779 C   0  0  0  0  0  0  0  0  0  0  0  0
  -28.4690   -0.7850   29.8287 C   0  0  0  0  0  0  0  0  0  0  0  0
  -28.1960    0.3478   28.0550 C   0  0  0  0  0  0  0  0  0  0  0  0
  -29.0191    1.3501   28.3782 C   0  0  0  0  0  0  0  0  0  0  0  0
  -29.4107    0.1803   30.3782 C   0  0  0  0  0  0  0  0  0  0  0  0
  -29.6059    1.2495   29.6193 C   0  0  0  0  0  0  0  0  0  0  0  0
  -27.4478    0.3799   26.7122 C   0  0  0  0  0  0  0  0  0  0  0  0
  -25.9806    0.2548   26.7837 C   0  0  0  0  0  0  0  0  0  0  0  0
  -25.3349   -0.0583   27.9448 C   0  0  0  0  0  0  0  0  0  0  0  0
  -24.5688    0.8997   28.6401 C   0  0  0  0  0  0  0  0  0  0  0  0
  -24.4497    2.1470   28.0660 C   0  0  0  0  0  0  0  0  0  0  0  0
  -24.5638    2.3576   26.7091 C   0  0  0  0  0  0  0  0  0  0  0  0
  -25.2938    1.0327   25.7732 C   0  0  0  0  0  0  0  0  0  0  0  0
  -28.0985    0.2549   25.5058 C   0  0  0  0  0  0  0  0  0  0  0  0
  -30.5682    2.3723   30.0270 C   0  0  0  0  0  0  0  0  0  0  0  0
  -31.1380    3.0092   29.4695 N   0  0  0  0  0  0  0  0  0  0  0  0
  3  7  1  0
  7  8  1  0
  7 14  1  0
  6 15  1  0
 15 16  2  0
  8  9  2  0
  9 10  1  0
 10 11  2  0
 11 12  1  0
 12 13  2  0
 13  8  1  0
  1  2  2  0
  2  5  1  0
  5  6  2  0
  6  4  1  0
  4  3  2  0
  3  1  1  0
M  END

$$$$
