No_1395-gen_results/8p0m/2024-11-26-14-13-15/
     RDKit          3D

 15 15  0  0  0  0  0  0  0  0999 V2000
  -28.0162   -0.8135   28.8779 C   0  0  0  0  0  0  0  0  0  0  0  0
  -28.4690   -0.7850   29.8287 C   0  0  0  0  0  0  0  0  0  0  0  0
  -28.1816    0.4277   28.1134 C   0  0  0  0  0  0  0  0  0  0  0  0
  -27.2060    0.7105   27.3893 O   0  0  0  0  0  0  0  0  0  0  0  0
  -29.3068    1.0856   28.0074 N   0  0  0  0  0  0  0  0  0  0  0  0
  -29.5131    2.1773   27.2282 C   0  0  0  0  0  0  0  0  0  0  0  0
  -29.9391   -0.6165   29.9164 C   0  0  0  0  0  0  0  0  0  0  0  0
  -30.3178   -0.6603   31.2489 F   0  0  0  0  0  0  0  0  0  0  0  0
  -30.3985    0.5104   29.5577 F   0  0  0  0  0  0  0  0  0  0  0  0
  -30.5398   -1.6581   29.3066 F   0  0  0  0  0  0  0  0  0  0  0  0
  -30.0926    0.9016   26.9117 C   0  0  0  0  0  0  0  0  0  0  0  0
  -30.1345    1.2417   25.6676 C   0  0  0  0  0  0  0  0  0  0  0  0
  -30.0979    2.9641   28.2946 C   0  0  0  0  0  0  0  0  0  0  0  0
  -28.6642    2.8418   26.3639 C   0  0  0  0  0  0  0  0  0  0  0  0
  -29.3057    2.2667   25.2576 C   0  0  0  0  0  0  0  0  0  0  0  0
  1  2  1  0
  1  3  1  0
  3  4  2  0
  3  5  1  0
  5  6  1  0
  2  7  1  0
  7  8  1  0
  7  9  1  0
  7 10  1  0
  5 11  1  0
  6 13  1  0
  6 14  1  0
 12 15  1  0
 14 15  1  0
 12 11  1  0
M  END

$$$$
