No_1778-gen_results/8p0m/2024-11-26-14-13-15/
     RDKit          3D

 18 20  0  0  0  0  0  0  0  0999 V2000
  -28.0162   -0.8135   28.8779 C   0  0  0  0  0  0  0  0  0  0  0  0
  -27.0636   -0.1189   28.6079 C   0  0  0  0  0  0  0  0  0  0  0  0
  -26.9716    0.7139   27.5060 C   0  0  0  0  0  0  0  0  0  0  0  0
  -28.1053    0.7744   26.6421 C   0  0  0  0  0  0  0  0  0  0  0  0
  -29.2008    0.1044   27.0527 C   0  0  0  0  0  0  0  0  0  0  0  0
  -29.2096   -0.6029   28.1853 C   0  0  0  0  0  0  0  0  0  0  0  0
  -30.3077    0.2215   26.2218 N   0  0  0  0  0  0  0  0  0  0  0  0
  -30.2379    0.2364   24.9221 C   0  0  0  0  0  0  0  0  0  0  0  0
  -29.1586    1.0085   24.4065 C   0  0  0  0  0  0  0  0  0  0  0  0
  -27.8869    1.0003   25.1879 C   0  0  0  0  0  0  0  0  0  0  0  0
  -31.6258   -0.2118   26.7555 C   0  0  0  0  0  0  0  0  0  0  0  0
  -32.0004    0.4042   27.8623 C   0  0  0  0  0  0  0  0  0  0  0  0
  -31.9438    1.7645   27.8792 C   0  0  0  0  0  0  0  0  0  0  0  0
  -32.2441    2.5579   29.0403 C   0  0  0  0  0  0  0  0  0  0  0  0
  -32.7300    1.8768   30.1454 C   0  0  0  0  0  0  0  0  0  0  0  0
  -32.8556    0.5147   30.1599 C   0  0  0  0  0  0  0  0  0  0  0  0
  -32.4498   -0.2223   29.0507 C   0  0  0  0  0  0  0  0  0  0  0  0
  -32.3152   -1.0269   26.2278 O   0  0  0  0  0  0  0  0  0  0  0  0
  5  7  1  0
  7  8  1  0
  8  9  1  0
  4 10  1  0
  9 10  1  0
  7 11  1  0
 11 12  1  0
 11 18  2  0
  1  2  2  0
  2  3  1  0
  3  4  2  0
  4  5  1  0
  5  6  2  0
  6  1  1  0
 12 13  2  0
 13 14  1  0
 14 15  2  0
 15 16  1  0
 16 17  2  0
 17 12  1  0
M  END

$$$$
