No_1456-gen_results/8p0m/2024-11-26-14-13-15/
     RDKit          3D

 20 23  0  0  0  0  0  0  0  0999 V2000
  -28.0162   -0.8135   28.8779 C   0  0  0  0  0  0  0  0  0  0  0  0
  -27.0636   -0.1189   28.6079 C   0  0  0  0  0  0  0  0  0  0  0  0
  -25.7647   -0.3897   29.0360 C   0  0  0  0  0  0  0  0  0  0  0  0
  -24.5516    0.4058   28.7646 C   0  0  0  0  0  0  0  0  0  0  0  0
  -24.6957    1.4480   27.7988 C   0  0  0  0  0  0  0  0  0  0  0  0
  -25.9755    1.7250   27.3077 C   0  0  0  0  0  0  0  0  0  0  0  0
  -27.0718    1.0134   27.6535 C   0  0  0  0  0  0  0  0  0  0  0  0
  -29.2261   -0.0677   29.3149 C   0  0  0  0  0  0  0  0  0  0  0  0
  -29.9074   -0.3248   30.1570 C   0  0  0  0  0  0  0  0  0  0  0  0
  -29.4568   -0.8243   31.3158 C   0  0  0  0  0  0  0  0  0  0  0  0
  -28.4558   -1.8548   31.2093 C   0  0  0  0  0  0  0  0  0  0  0  0
  -27.5099   -1.5606   30.1375 C   0  0  0  0  0  0  0  0  0  0  0  0
  -26.1091   -1.6687   30.1484 C   0  0  0  0  0  0  0  0  0  0  0  0
  -23.2626   -0.0411   29.3269 C   0  0  0  0  0  0  0  0  0  0  0  0
  -23.0807   -0.6181   30.2838 C   0  0  0  0  0  0  0  0  0  0  0  0
  -22.1290    0.3129   28.4145 C   0  0  0  0  0  0  0  0  0  0  0  0
  -20.7968   -0.0489   28.8756 C   0  0  0  0  0  0  0  0  0  0  0  0
  -21.7141   -1.0106   30.8454 C   0  0  0  0  0  0  0  0  0  0  0  0
  -20.6500   -0.7097   30.0561 C   0  0  0  0  0  0  0  0  0  0  0  0
  -23.6530    2.1307   27.4800 O   0  0  0  0  0  0  0  0  0  0  0  0
  2  3  1  0
  3  4  1  0
  4  5  1  0
  5  6  1  0
  2  7  1  0
  3 13  1  0
 12 13  1  0
  4 14  1  0
  5 20  2  0
  1  2  1  0
  7  6  1  0
 14 15  2  0
 15 18  1  0
 18 19  2  0
 19 17  1  0
 17 16  2  0
 16 14  1  0
  1  8  2  0
  8  9  1  0
  9 10  2  0
 10 11  1  0
 11 12  2  0
 12  1  1  0
M  END

$$$$
