No_1643-gen_results/8p0m/2024-11-26-14-13-15/
     RDKit          3D

 28 30  0  0  0  0  0  0  0  0999 V2000
  -28.0162   -0.8135   28.8779 C   0  0  0  0  0  0  0  0  0  0  0  0
  -27.0636   -0.1189   28.6079 C   0  0  0  0  0  0  0  0  0  0  0  0
  -25.7647   -0.3897   29.0360 C   0  0  0  0  0  0  0  0  0  0  0  0
  -25.5296   -1.5302   29.9014 C   0  0  0  0  0  0  0  0  0  0  0  0
  -26.6888   -2.2893   30.1810 C   0  0  0  0  0  0  0  0  0  0  0  0
  -27.8727   -1.9508   29.7373 C   0  0  0  0  0  0  0  0  0  0  0  0
  -24.3819    0.5593   28.6789 Cl  0  0  0  0  0  0  0  0  0  0  0  0
  -29.0263   -2.8156   30.1581 C   0  0  0  0  0  0  0  0  0  0  0  0
  -28.8777   -4.1041   30.3245 N   0  0  0  0  0  0  0  0  0  0  0  0
  -30.1659   -2.3362   30.2934 O   0  0  0  0  0  0  0  0  0  0  0  0
  -29.9240   -5.0616   30.6492 C   0  0  0  0  0  0  0  0  0  0  0  0
  -30.8276   -5.2722   29.6493 C   0  0  0  0  0  0  0  0  0  0  0  0
  -30.6974   -5.0988   28.4811 C   0  0  0  0  0  0  0  0  0  0  0  0
  -31.5200   -5.4515   27.3721 C   0  0  0  0  0  0  0  0  0  0  0  0
  -32.7319   -6.0451   27.6896 C   0  0  0  0  0  0  0  0  0  0  0  0
  -32.9973   -6.2924   29.0433 C   0  0  0  0  0  0  0  0  0  0  0  0
  -32.0578   -5.9749   30.0589 C   0  0  0  0  0  0  0  0  0  0  0  0
  -29.8087   -5.5793   31.8084 O   0  0  0  0  0  0  0  0  0  0  0  0
  -34.0572   -6.4208   26.4833 Br  0  0  0  0  0  0  0  0  0  0  0  0
  -26.9487    1.0949   27.6143 C   0  0  0  0  0  0  0  0  0  0  0  0
  -26.4683    1.0629   26.4510 N   0  0  0  0  0  0  0  0  0  0  0  0
  -25.9655    0.1556   25.9104 C   0  0  0  0  0  0  0  0  0  0  0  0
  -25.3288    0.3537   24.5704 C   0  0  0  0  0  0  0  0  0  0  0  0
  -28.0800    2.4867   28.2769 Br  0  0  0  0  0  0  0  0  0  0  0  0
  -26.6409    2.1263   25.5169 C   0  0  0  0  0  0  0  0  0  0  0  0
  -25.8631    1.6001   24.4079 C   0  0  0  0  0  0  0  0  0  0  0  0
  -23.9825   -1.9287   30.4531 Cl  0  0  0  0  0  0  0  0  0  0  0  0
  -34.1481   -6.8840   29.3692 F   0  0  0  0  0  0  0  0  0  0  0  0
  3  7  1  0
  6  8  1  0
  8  9  1  0
  8 10  2  0
  9 11  1  0
 11 12  1  0
 11 18  2  0
 15 19  1  0
  2 20  1  0
 20 21  1  0
 21 22  1  0
 22 23  2  0
 20 24  1  0
 21 25  1  0
 23 26  1  0
 25 26  1  0
  4 27  1  0
 16 28  1  0
 12 13  2  0
 13 14  1  0
 14 15  2  0
 15 16  1  0
 16 17  2  0
 17 12  1  0
  1  2  2  0
  2  3  1  0
  3  4  2  0
  4  5  1  0
  5  6  2  0
  6  1  1  0
M  END

$$$$
