No_1968-gen_results/8p0m/2024-11-26-14-13-15/
     RDKit          3D

 18 20  0  0  0  0  0  0  0  0999 V2000
  -28.0162   -0.8135   28.8779 C   0  0  0  0  0  0  0  0  0  0  0  0
  -28.4690   -0.7850   29.8287 C   0  0  0  0  0  0  0  0  0  0  0  0
  -26.5455   -0.8762   28.8500 C   0  0  0  0  0  0  0  0  0  0  0  0
  -25.8041   -1.0324   30.0571 C   0  0  0  0  0  0  0  0  0  0  0  0
  -27.9437   -0.9869   31.2075 C   0  0  0  0  0  0  0  0  0  0  0  0
  -26.5825   -1.0386   31.2231 C   0  0  0  0  0  0  0  0  0  0  0  0
  -30.0606   -0.7371   29.9024 C   0  0  0  0  0  0  0  0  0  0  0  0
  -30.7252   -1.5544   30.2697 O   0  0  0  0  0  0  0  0  0  0  0  0
  -30.5563    0.4242   29.3124 N   0  0  0  0  0  0  0  0  0  0  0  0
  -31.9645    0.5638   29.1626 C   0  0  0  0  0  0  0  0  0  0  0  0
  -32.2853    1.2696   28.1337 C   0  0  0  0  0  0  0  0  0  0  0  0
  -33.4460    1.4316   27.6672 C   0  0  0  0  0  0  0  0  0  0  0  0
  -31.2909    2.2465   27.5624 C   0  0  0  0  0  0  0  0  0  0  0  0
  -29.8925    2.1500   27.8343 C   0  0  0  0  0  0  0  0  0  0  0  0
  -29.5810    1.1704   28.5962 C   0  0  0  0  0  0  0  0  0  0  0  0
  -33.8803    2.2152   26.6413 C   0  0  0  0  0  0  0  0  0  0  0  0
  -32.8796    3.1054   26.0602 C   0  0  0  0  0  0  0  0  0  0  0  0
  -31.6140    3.1115   26.4544 C   0  0  0  0  0  0  0  0  0  0  0  0
  2  7  1  0
  7  8  2  0
  7  9  1  0
  9 10  1  0
 10 11  1  0
 13 14  1  0
  9 15  1  0
 14 15  1  0
 11 12  2  0
 12 16  1  0
 16 17  2  0
 17 18  1  0
 18 13  2  0
 13 11  1  0
  1  2  2  0
  2  5  1  0
  5  6  2  0
  6  4  1  0
  4  3  2  0
  3  1  1  0
M  END

$$$$
