No_1855-gen_results/8p0m/2024-11-26-14-13-15/
     RDKit          3D

 18 19  0  0  0  0  0  0  0  0999 V2000
  -28.0162   -0.8135   28.8779 C   0  0  0  0  0  0  0  0  0  0  0  0
  -28.4690   -0.7850   29.8287 C   0  0  0  0  0  0  0  0  0  0  0  0
  -28.1816    0.4277   28.1134 C   0  0  0  0  0  0  0  0  0  0  0  0
  -27.4498    0.6435   26.8500 C   0  0  0  0  0  0  0  0  0  0  0  0
  -26.4529    0.9939   26.6681 C   0  0  0  0  0  0  0  0  0  0  0  0
  -25.1811    0.8624   26.8164 C   0  0  0  0  0  0  0  0  0  0  0  0
  -24.5152    0.1165   27.8117 C   0  0  0  0  0  0  0  0  0  0  0  0
  -23.1976    0.2649   28.2065 C   0  0  0  0  0  0  0  0  0  0  0  0
  -28.2893   -2.0095   30.8342 C   0  0  0  0  0  0  0  0  0  0  0  0
  -27.4463   -2.9880   30.3255 C   0  0  0  0  0  0  0  0  0  0  0  0
  -26.6003   -2.7617   29.2952 C   0  0  0  0  0  0  0  0  0  0  0  0
  -26.8204   -1.5439   28.5437 C   0  0  0  0  0  0  0  0  0  0  0  0
  -22.4367    1.2055   27.5640 C   0  0  0  0  0  0  0  0  0  0  0  0
  -22.9375    2.0319   26.5626 C   0  0  0  0  0  0  0  0  0  0  0  0
  -24.2713    1.9017   26.2641 C   0  0  0  0  0  0  0  0  0  0  0  0
  -26.5135    1.8905   25.3083 C   0  0  0  0  0  0  0  0  0  0  0  0
  -28.4180   -0.0132   25.8444 C   0  0  0  0  0  0  0  0  0  0  0  0
  -29.4024    0.5987   25.3310 C   0  0  0  0  0  0  0  0  0  0  0  0
  3  4  1  0
  4  5  2  3
  5  6  1  0
  5 16  1  0
  4 17  1  0
 17 18  1  0
  3  1  1  0
  1  2  2  0
  2  9  1  0
  9 10  2  0
 10 11  1  0
 11 12  2  0
 12  1  1  0
  6  7  2  0
  7  8  1  0
  8 13  2  0
 13 14  1  0
 14 15  2  0
 15  6  1  0
M  END

$$$$
