No_1026-gen_results/8p0m/2024-11-26-14-13-15/
     RDKit          3D

 21 23  0  0  0  0  0  0  0  0999 V2000
  -28.0162   -0.8135   28.8779 C   0  0  0  0  0  0  0  0  0  0  0  0
  -28.4690   -0.7850   29.8287 C   0  0  0  0  0  0  0  0  0  0  0  0
  -27.0871    0.2903   28.6377 C   0  0  0  0  0  0  0  0  0  0  0  0
  -26.2516    0.4114   27.4223 C   0  0  0  0  0  0  0  0  0  0  0  0
  -28.3913    0.1041   30.9805 C   0  0  0  0  0  0  0  0  0  0  0  0
  -27.5332    1.1666   30.7866 C   0  0  0  0  0  0  0  0  0  0  0  0
  -26.8281    1.2557   29.6454 C   0  0  0  0  0  0  0  0  0  0  0  0
  -25.1384    0.6748   27.2308 C   0  0  0  0  0  0  0  0  0  0  0  0
  -24.3157    0.8668   28.4419 C   0  0  0  0  0  0  0  0  0  0  0  0
  -22.9392    1.2959   28.0769 C   0  0  0  0  0  0  0  0  0  0  0  0
  -22.6163    1.8588   26.8861 C   0  0  0  0  0  0  0  0  0  0  0  0
  -23.5208    1.8266   25.8597 C   0  0  0  0  0  0  0  0  0  0  0  0
  -24.7474    1.2780   26.0176 C   0  0  0  0  0  0  0  0  0  0  0  0
  -27.3037   -0.2114   25.8895 Br  0  0  0  0  0  0  0  0  0  0  0  0
  -29.3407   -1.9500   30.0531 O   0  0  0  0  0  0  0  0  0  0  0  0
  -30.5246   -1.6863   30.4286 C   0  0  0  0  0  0  0  0  0  0  0  0
  -31.1185   -0.9130   30.7089 C   0  0  0  0  0  0  0  0  0  0  0  0
  -31.2038   -3.0857   30.5161 C   0  0  0  0  0  0  0  0  0  0  0  0
  -32.2403   -0.7266   30.6793 C   0  0  0  0  0  0  0  0  0  0  0  0
  -32.5640   -3.1082   30.6375 C   0  0  0  0  0  0  0  0  0  0  0  0
  -33.1544   -1.8617   30.8039 C   0  0  0  0  0  0  0  0  0  0  0  0
  3  4  1  0
  4 14  1  0
  2 15  1  0
 15 16  1  0
  4  8  1  0
  8  9  2  0
  9 10  1  0
 10 11  2  0
 11 12  1  0
 12 13  2  0
 13  8  1  0
  1  2  2  0
  2  5  1  0
  5  6  2  0
  6  7  1  0
  7  3  2  0
  3  1  1  0
 16 17  2  0
 17 19  1  0
 19 21  2  0
 21 20  1  0
 20 18  2  0
 18 16  1  0
M  END

$$$$
