No_1106-gen_results/8p0m/2024-11-26-14-13-15/
     RDKit          3D

 35 38  0  0  0  0  0  0  0  0999 V2000
  -28.0162   -0.8135   28.8779 C   0  0  0  0  0  0  0  0  0  0  0  0
  -28.4690   -0.7850   29.8287 C   0  0  0  0  0  0  0  0  0  0  0  0
  -26.5455   -0.8762   28.8500 C   0  0  0  0  0  0  0  0  0  0  0  0
  -25.8041   -1.0324   30.0571 C   0  0  0  0  0  0  0  0  0  0  0  0
  -27.9437   -0.9869   31.2075 C   0  0  0  0  0  0  0  0  0  0  0  0
  -26.5825   -1.0386   31.2231 C   0  0  0  0  0  0  0  0  0  0  0  0
  -30.0606   -0.7371   29.9024 C   0  0  0  0  0  0  0  0  0  0  0  0
  -30.7252   -1.5544   30.2697 O   0  0  0  0  0  0  0  0  0  0  0  0
  -30.5245    0.5663   29.6971 N   0  0  0  0  0  0  0  0  0  0  0  0
  -31.9302    0.7636   29.6237 C   0  0  0  0  0  0  0  0  0  0  0  0
  -29.6836    1.6912   29.3393 C   0  0  0  0  0  0  0  0  0  0  0  0
  -29.5347    2.2109   28.2744 C   0  0  0  0  0  0  0  0  0  0  0  0
  -28.5885    3.2634   28.0150 C   0  0  0  0  0  0  0  0  0  0  0  0
  -27.7335    3.3435   28.6167 C   0  0  0  0  0  0  0  0  0  0  0  0
  -27.5231    2.7919   29.9731 C   0  0  0  0  0  0  0  0  0  0  0  0
  -28.5559    1.7793   30.3317 C   0  0  0  0  0  0  0  0  0  0  0  0
  -25.7100   -0.7506   27.6132 C   0  0  0  0  0  0  0  0  0  0  0  0
  -25.3181    0.6363   27.2903 C   0  0  0  0  0  0  0  0  0  0  0  0
  -24.1951    1.1390   27.8590 C   0  0  0  0  0  0  0  0  0  0  0  0
  -23.6351    2.3737   27.3921 C   0  0  0  0  0  0  0  0  0  0  0  0
  -24.2327    3.0514   26.3407 C   0  0  0  0  0  0  0  0  0  0  0  0
  -25.9491    1.3087   26.2079 C   0  0  0  0  0  0  0  0  0  0  0  0
  -27.1112    0.8065   25.6826 C   0  0  0  0  0  0  0  0  0  0  0  0
  -25.4278    2.5551   25.8225 C   0  0  0  0  0  0  0  0  0  0  0  0
  -27.6112    1.2527   24.4536 C   0  0  0  0  0  0  0  0  0  0  0  0
  -28.7877    0.7229   23.9223 C   0  0  0  0  0  0  0  0  0  0  0  0
  -29.8472    1.4199   23.6175 C   0  0  0  0  0  0  0  0  0  0  0  0
  -31.0997    0.9852   23.2388 C   0  0  0  0  0  0  0  0  0  0  0  0
  -31.3051   -0.4060   23.4144 C   0  0  0  0  0  0  0  0  0  0  0  0
  -30.2499   -1.2589   23.8789 C   0  0  0  0  0  0  0  0  0  0  0  0
  -29.0138   -0.6811   24.2260 C   0  0  0  0  0  0  0  0  0  0  0  0
  -26.4155    3.0494   30.9014 C   0  0  0  0  0  0  0  0  0  0  0  0
  -25.2979    3.0667   30.4138 O   0  0  0  0  0  0  0  0  0  0  0  0
  -26.6139    3.5754   32.1006 N   0  0  0  0  0  0  0  0  0  0  0  0
  -25.4568    3.8580   33.0179 C   0  0  0  0  0  0  0  0  0  0  0  0
  2  7  1  0
  7  8  2  0
  7  9  1  0
  9 10  1  0
  9 11  1  0
  3 17  1  0
 17 18  1  0
 22 23  1  0
 23 25  2  3
 25 26  1  0
 15 32  1  0
 32 33  2  0
 32 34  1  0
 34 35  1  0
 18 19  2  0
 19 20  1  0
 20 21  2  0
 21 24  1  0
 24 22  2  0
 22 18  1  0
 11 12  2  0
 12 13  1  0
 13 14  2  0
 14 15  1  0
 15 16  2  0
 16 11  1  0
  1  2  2  0
  2  5  1  0
  5  6  2  0
  6  4  1  0
  4  3  2  0
  3  1  1  0
 26 27  2  0
 27 28  1  0
 28 29  2  0
 29 30  1  0
 30 31  2  0
 31 26  1  0
M  END

$$$$
