No_1207-gen_results/8p0m/2024-11-26-14-13-15/
     RDKit          3D

 34 38  0  0  0  0  0  0  0  0999 V2000
  -28.1229   -1.3353   28.4874 O   0  0  0  0  0  0  0  0  0  0  0  0
  -27.4806   -0.4044   28.7094 C   0  0  0  0  0  0  0  0  0  0  0  0
  -27.1904    0.2460   29.5268 C   0  0  0  0  0  0  0  0  0  0  0  0
  -26.6021   -0.1576   27.5515 N   0  0  0  0  0  0  0  0  0  0  0  0
  -25.6421    0.9030   27.5822 C   0  0  0  0  0  0  0  0  0  0  0  0
  -25.5003    1.6142   28.7368 C   0  0  0  0  0  0  0  0  0  0  0  0
  -26.2674    1.2888   29.8086 C   0  0  0  0  0  0  0  0  0  0  0  0
  -24.9621    0.9780   26.4257 N   0  0  0  0  0  0  0  0  0  0  0  0
  -23.8183    1.8131   26.4809 C   0  0  0  0  0  0  0  0  0  0  0  0
  -23.4325    2.4243   27.6485 C   0  0  0  0  0  0  0  0  0  0  0  0
  -24.2728    2.3155   28.7721 C   0  0  0  0  0  0  0  0  0  0  0  0
  -28.1112   -0.0235   30.8812 C   0  0  0  0  0  0  0  0  0  0  0  0
  -27.9292   -0.9011   31.4431 O   0  0  0  0  0  0  0  0  0  0  0  0
  -28.9697    0.9109   31.0954 O   0  0  0  0  0  0  0  0  0  0  0  0
  -23.0834    1.9454   25.3794 N   0  0  0  0  0  0  0  0  0  0  0  0
  -29.0246    1.9549   30.9575 C   0  0  0  0  0  0  0  0  0  0  0  0
  -29.7330    2.4901   29.9384 C   0  0  0  0  0  0  0  0  0  0  0  0
  -30.8644    1.9313   29.4715 C   0  0  0  0  0  0  0  0  0  0  0  0
  -31.5028    1.0963   30.2377 C   0  0  0  0  0  0  0  0  0  0  0  0
  -32.8085    0.4715   29.7735 C   0  0  0  0  0  0  0  0  0  0  0  0
  -33.1853    0.8182   28.4716 C   0  0  0  0  0  0  0  0  0  0  0  0
  -32.4669    1.6734   27.6746 C   0  0  0  0  0  0  0  0  0  0  0  0
  -31.3524    2.3006   28.1509 C   0  0  0  0  0  0  0  0  0  0  0  0
  -29.2533    3.7374   29.2035 C   0  0  0  0  0  0  0  0  0  0  0  0
  -28.9264    4.8350   29.8427 N   0  0  0  0  0  0  0  0  0  0  0  0
  -28.3299    5.8636   29.1947 C   0  0  0  0  0  0  0  0  0  0  0  0
  -28.8729    3.6307   28.0156 O   0  0  0  0  0  0  0  0  0  0  0  0
  -29.3627    5.0984   31.2460 C   0  0  0  0  0  0  0  0  0  0  0  0
  -29.6151    5.9475   31.7842 C   0  0  0  0  0  0  0  0  0  0  0  0
  -30.0741    6.0587   33.1618 C   0  0  0  0  0  0  0  0  0  0  0  0
  -30.1588    4.8530   33.8391 C   0  0  0  0  0  0  0  0  0  0  0  0
  -29.8124    3.6928   33.2378 C   0  0  0  0  0  0  0  0  0  0  0  0
  -29.3722    3.7534   31.9651 C   0  0  0  0  0  0  0  0  0  0  0  0
  -28.9284    2.6759   31.4823 N   0  0  0  0  0  0  0  0  0  0  0  0
  1  2  2  0
  2  3  1  0
  2  4  1  0
  4  5  1  0
  6  7  1  0
  3 12  1  0
 12 13  2  0
 12 14  1  0
  9 15  1  0
 14 16  1  0
 16 17  2  0
 17 18  1  0
 17 24  1  0
 24 25  1  0
 25 26  1  0
 24 27  2  0
 25 28  1  0
 16 34  1  0
 33 34  1  0
  3  7  1  0
 18 19  2  0
 19 20  1  0
 20 21  2  0
 21 22  1  0
 22 23  2  0
 23 18  1  0
 28 29  2  0
 29 30  1  0
 30 31  2  0
 31 32  1  0
 32 33  2  0
 33 28  1  0
  5  8  2  0
  8  9  1  0
  9 10  2  0
 10 11  1  0
 11  6  2  0
  6  5  1  0
M  END

$$$$
