No_1786-gen_results/8p0m/2024-11-26-14-13-15/
     RDKit          3D

 16 17  0  0  0  0  0  0  0  0999 V2000
  -28.0162   -0.8135   28.8779 C   0  0  0  0  0  0  0  0  0  0  0  0
  -27.0636   -0.1189   28.6079 C   0  0  0  0  0  0  0  0  0  0  0  0
  -26.9716    0.7139   27.5060 C   0  0  0  0  0  0  0  0  0  0  0  0
  -25.8206    1.4910   27.1160 C   0  0  0  0  0  0  0  0  0  0  0  0
  -24.6562    1.4242   27.9180 C   0  0  0  0  0  0  0  0  0  0  0  0
  -24.6847    0.5901   29.0659 C   0  0  0  0  0  0  0  0  0  0  0  0
  -25.8099   -0.1265   29.3338 C   0  0  0  0  0  0  0  0  0  0  0  0
  -28.6943   -0.4734   30.1587 C   0  0  0  0  0  0  0  0  0  0  0  0
  -29.7865   -1.3251   30.6371 C   0  0  0  0  0  0  0  0  0  0  0  0
  -23.4524    2.1889   27.6083 C   0  0  0  0  0  0  0  0  0  0  0  0
  -22.5786    2.2579   28.4956 O   0  0  0  0  0  0  0  0  0  0  0  0
  -23.2782    2.5789   26.3779 O   0  0  0  0  0  0  0  0  0  0  0  0
  -29.9978   -2.2975   30.0980 C   0  0  0  0  0  0  0  0  0  0  0  0
  -29.2553   -3.0463   29.2796 C   0  0  0  0  0  0  0  0  0  0  0  0
  -28.1334   -2.3510   28.7788 C   0  0  0  0  0  0  0  0  0  0  0  0
  -28.0367    0.8019   26.7236 O   0  0  0  0  0  0  0  0  0  0  0  0
  2  3  1  0
  3  4  1  0
  4  5  1  0
  5  6  1  0
  2  7  1  0
  5 10  1  0
 10 11  1  0
 10 12  2  0
  3 16  2  0
  1  2  1  0
  7  6  1  0
  1  8  2  0
  8  9  1  0
  9 13  2  0
 13 14  1  0
 14 15  2  0
 15  1  1  0
M  END

$$$$
