No_1599-gen_results/8p0m/2024-11-26-14-13-15/
     RDKit          3D

 35 37  0  0  0  0  0  0  0  0999 V2000
  -28.0162   -0.8135   28.8779 C   0  0  0  0  0  0  0  0  0  0  0  0
  -27.0636   -0.1189   28.6079 C   0  0  0  0  0  0  0  0  0  0  0  0
  -26.9716    0.7139   27.5060 C   0  0  0  0  0  0  0  0  0  0  0  0
  -28.1053    0.7744   26.6421 C   0  0  0  0  0  0  0  0  0  0  0  0
  -29.2008    0.1044   27.0527 C   0  0  0  0  0  0  0  0  0  0  0  0
  -29.2096   -0.6029   28.1853 C   0  0  0  0  0  0  0  0  0  0  0  0
  -30.2808    0.2156   26.2913 F   0  0  0  0  0  0  0  0  0  0  0  0
  -25.7162   -0.2143   29.4079 C   0  0  0  0  0  0  0  0  0  0  0  0
  -25.4115   -1.0242   30.0565 C   0  0  0  0  0  0  0  0  0  0  0  0
  -24.1408   -1.1410   30.8368 C   0  0  0  0  0  0  0  0  0  0  0  0
  -23.1947   -0.1347   30.6608 C   0  0  0  0  0  0  0  0  0  0  0  0
  -23.5357    0.9137   29.7572 C   0  0  0  0  0  0  0  0  0  0  0  0
  -24.8090    0.9435   29.0845 C   0  0  0  0  0  0  0  0  0  0  0  0
  -27.8755    1.4900   25.5598 F   0  0  0  0  0  0  0  0  0  0  0  0
  -28.0941   -1.5601   30.0254 O   0  0  0  0  0  0  0  0  0  0  0  0
  -28.3551   -2.9225   29.8680 C   0  0  0  0  0  0  0  0  0  0  0  0
  -28.5787   -3.5406   31.2716 C   0  0  0  0  0  0  0  0  0  0  0  0
  -29.4775   -2.7899   32.0419 C   0  0  0  0  0  0  0  0  0  0  0  0
  -29.6415   -3.3437   33.1072 O   0  0  0  0  0  0  0  0  0  0  0  0
  -29.0422   -4.8522   30.9535 O   0  0  0  0  0  0  0  0  0  0  0  0
  -29.5415   -1.5712   31.9346 O   0  0  0  0  0  0  0  0  0  0  0  0
  -30.4758   -0.8752   32.8015 C   0  0  0  0  0  0  0  0  0  0  0  0
  -31.0255    0.2860   32.2148 C   0  0  0  0  0  0  0  0  0  0  0  0
  -32.2018    0.3428   32.0790 C   0  0  0  0  0  0  0  0  0  0  0  0
  -30.1252    1.3416   31.7307 C   0  0  0  0  0  0  0  0  0  0  0  0
  -30.6394    2.3915   30.9333 C   0  0  0  0  0  0  0  0  0  0  0  0
  -32.8492    1.4876   31.2846 C   0  0  0  0  0  0  0  0  0  0  0  0
  -32.0120    2.4921   30.8060 C   0  0  0  0  0  0  0  0  0  0  0  0
  -29.7356    3.4384   30.4524 C   0  0  0  0  0  0  0  0  0  0  0  0
  -29.2646    3.2413   29.1559 C   0  0  0  0  0  0  0  0  0  0  0  0
  -28.0748    4.0180   28.8009 C   0  0  0  0  0  0  0  0  0  0  0  0
  -27.5925    3.9955   27.4704 C   0  0  0  0  0  0  0  0  0  0  0  0
  -26.3949    4.7070   27.2738 C   0  0  0  0  0  0  0  0  0  0  0  0
  -25.6777    5.3360   28.3058 C   0  0  0  0  0  0  0  0  0  0  0  0
  -26.2062    5.2763   29.5887 C   0  0  0  0  0  0  0  0  0  0  0  0
  5  7  1  0
  2  8  1  0
  4 14  1  0
  1 15  1  0
 15 16  1  0
 16 17  1  0
 17 18  1  0
 18 19  2  0
 17 20  1  0
 18 21  1  0
 21 22  1  0
 22 23  1  0
 26 29  1  0
 29 30  1  0
 30 31  2  3
 31 32  1  0
 32 33  2  3
 33 34  1  0
 34 35  2  0
  1  2  1  0
  2  3  2  0
  3  4  1  0
  4  5  2  0
  5  6  1  0
  6  1  2  0
 23 24  2  0
 24 27  1  0
 27 28  2  0
 28 26  1  0
 26 25  2  0
 25 23  1  0
  8  9  2  0
  9 10  1  0
 10 11  2  0
 11 12  1  0
 12 13  2  0
 13  8  1  0
M  END

$$$$
