No_1872-gen_results/8p0m/2024-11-26-14-13-15/
     RDKit          3D

 35 38  0  0  0  0  0  0  0  0999 V2000
  -28.1229   -1.3353   28.4874 O   0  0  0  0  0  0  0  0  0  0  0  0
  -27.4806   -0.4044   28.7094 C   0  0  0  0  0  0  0  0  0  0  0  0
  -27.1904    0.2460   29.5268 C   0  0  0  0  0  0  0  0  0  0  0  0
  -26.6021   -0.1576   27.5515 N   0  0  0  0  0  0  0  0  0  0  0  0
  -25.6821    0.8355   27.5846 C   0  0  0  0  0  0  0  0  0  0  0  0
  -25.5035    1.5913   28.7199 C   0  0  0  0  0  0  0  0  0  0  0  0
  -26.0207    1.3662   29.6140 C   0  0  0  0  0  0  0  0  0  0  0  0
  -24.9378    1.0572   26.4094 N   0  0  0  0  0  0  0  0  0  0  0  0
  -23.9106    2.0186   26.5090 C   0  0  0  0  0  0  0  0  0  0  0  0
  -23.6106    2.7174   27.5947 C   0  0  0  0  0  0  0  0  0  0  0  0
  -24.3393    2.5739   28.5943 C   0  0  0  0  0  0  0  0  0  0  0  0
  -27.9662    0.0492   30.9136 C   0  0  0  0  0  0  0  0  0  0  0  0
  -27.5337    0.0853   31.9119 O   0  0  0  0  0  0  0  0  0  0  0  0
  -29.2121   -0.2285   30.6319 O   0  0  0  0  0  0  0  0  0  0  0  0
  -23.1651    2.1780   25.3348 N   0  0  0  0  0  0  0  0  0  0  0  0
  -30.0601    0.4132   30.3891 C   0  0  0  0  0  0  0  0  0  0  0  0
  -30.1217    1.5199   30.3027 C   0  0  0  0  0  0  0  0  0  0  0  0
  -31.3025    2.4194   29.9043 C   0  0  0  0  0  0  0  0  0  0  0  0
  -32.4366    1.6495   29.6160 C   0  0  0  0  0  0  0  0  0  0  0  0
  -32.4338    0.2944   29.6360 C   0  0  0  0  0  0  0  0  0  0  0  0
  -31.3297   -0.3584   29.9945 C   0  0  0  0  0  0  0  0  0  0  0  0
  -34.0369    2.6124   29.1802 Br  0  0  0  0  0  0  0  0  0  0  0  0
  -33.6679   -0.4489   29.2836 C   0  0  0  0  0  0  0  0  0  0  0  0
  -33.7105   -1.2820   28.3622 C   0  0  0  0  0  0  0  0  0  0  0  0
  -32.4586   -1.6180   27.6244 C   0  0  0  0  0  0  0  0  0  0  0  0
  -32.5097   -2.6244   26.5406 C   0  0  0  0  0  0  0  0  0  0  0  0
  -31.3657   -2.7613   25.6804 C   0  0  0  0  0  0  0  0  0  0  0  0
  -30.6137   -1.5904   25.4133 C   0  0  0  0  0  0  0  0  0  0  0  0
  -30.7397   -0.4884   26.3784 C   0  0  0  0  0  0  0  0  0  0  0  0
  -31.6338   -0.4687   27.3152 C   0  0  0  0  0  0  0  0  0  0  0  0
  -29.7300    0.5792   26.0823 C   0  0  0  0  0  0  0  0  0  0  0  0
  -28.8826    0.5093   25.2120 O   0  0  0  0  0  0  0  0  0  0  0  0
  -29.9619    1.8085   26.7844 O   0  0  0  0  0  0  0  0  0  0  0  0
  -29.5890    2.9849   26.2017 C   0  0  0  0  0  0  0  0  0  0  0  0
  -28.3482    3.3688   26.6526 C   0  0  0  0  0  0  0  0  0  0  0  0
  1  2  2  0
  2  3  1  0
  2  4  1  0
  4  5  1  0
  3 12  1  0
 12 13  2  0
 12 14  1  0
  9 15  1  0
 14 16  1  0
 19 22  1  0
 20 23  1  0
 23 24  2  3
 24 25  1  0
 29 31  1  0
 31 32  2  0
 31 33  1  0
 33 34  1  0
 34 35  2  0
  3  7  1  0
  7  6  1  0
  5  6  2  0
  6 11  1  0
 11 10  2  0
 10  9  1  0
  9  8  2  0
  8  5  1  0
 25 26  2  0
 26 27  1  0
 27 28  2  0
 28 29  1  0
 29 30  2  0
 30 25  1  0
 16 17  2  0
 17 18  1  0
 18 19  2  0
 19 20  1  0
 20 21  2  0
 21 16  1  0
M  END

$$$$
