No_1805-gen_results/8p0m/2024-11-26-14-13-15/
     RDKit          3D

 21 22  0  0  0  0  0  0  0  0999 V2000
  -28.0162   -0.8135   28.8779 C   0  0  0  0  0  0  0  0  0  0  0  0
  -27.0636   -0.1190   28.6079 C   0  0  0  0  0  0  0  0  0  0  0  0
  -26.9716    0.7139   27.5060 C   0  0  0  0  0  0  0  0  0  0  0  0
  -28.1053    0.7744   26.6421 C   0  0  0  0  0  0  0  0  0  0  0  0
  -29.2008    0.1044   27.0527 C   0  0  0  0  0  0  0  0  0  0  0  0
  -28.0219   -1.5899   30.0879 C   0  0  0  0  0  0  0  0  0  0  0  0
  -29.1640   -0.6394   28.1484 C   0  0  0  0  0  0  0  0  0  0  0  0
  -28.8451   -1.9567   30.6618 O   0  0  0  0  0  0  0  0  0  0  0  0
  -26.8269   -1.6816   30.7401 F   0  0  0  0  0  0  0  0  0  0  0  0
  -30.4886    0.1311   26.3374 C   0  0  0  0  0  0  0  0  0  0  0  0
  -30.8922    1.0992   25.8260 N   0  0  0  0  0  0  0  0  0  0  0  0
  -31.1838   -0.9227   26.2445 O   0  0  0  0  0  0  0  0  0  0  0  0
  -32.1458    1.2852   25.0283 C   0  0  0  0  0  0  0  0  0  0  0  0
  -25.8078    1.4123   27.1040 N   0  0  0  0  0  0  0  0  0  0  0  0
  -24.6040    1.0918   27.5577 C   0  0  0  0  0  0  0  0  0  0  0  0
  -23.4790    1.9306   27.2304 C   0  0  0  0  0  0  0  0  0  0  0  0
  -22.2709    1.8016   27.8749 C   0  0  0  0  0  0  0  0  0  0  0  0
  -22.1084    0.7184   28.8023 C   0  0  0  0  0  0  0  0  0  0  0  0
  -23.1775   -0.2295   29.0305 C   0  0  0  0  0  0  0  0  0  0  0  0
  -24.3684    0.0384   28.4725 C   0  0  0  0  0  0  0  0  0  0  0  0
  -26.0251    2.8109   26.8220 C   0  0  0  0  0  0  0  0  0  0  0  0
  1  6  1  0
  6  8  2  0
  6  9  1  0
  5 10  1  0
 10 11  1  0
 10 12  2  0
 11 13  1  0
  3 14  1  0
 14 15  1  0
 14 21  1  0
 15 16  2  0
 16 17  1  0
 17 18  2  0
 18 19  1  0
 19 20  2  0
 20 15  1  0
  1  2  2  0
  2  3  1  0
  3  4  2  0
  4  5  1  0
  5  7  2  0
  7  1  1  0
M  END

$$$$
