No_1369-gen_results/8p0m/2024-11-26-14-13-15/
     RDKit          3D

 18 19  0  0  0  0  0  0  0  0999 V2000
  -28.0162   -0.8135   28.8779 C   0  0  0  0  0  0  0  0  0  0  0  0
  -28.4690   -0.7850   29.8287 C   0  0  0  0  0  0  0  0  0  0  0  0
  -28.1960    0.3478   28.0550 C   0  0  0  0  0  0  0  0  0  0  0  0
  -29.0191    1.3501   28.3782 C   0  0  0  0  0  0  0  0  0  0  0  0
  -29.6249    1.2683   29.6012 C   0  0  0  0  0  0  0  0  0  0  0  0
  -29.3821    0.1816   30.4004 C   0  0  0  0  0  0  0  0  0  0  0  0
  -27.4591    0.3787   26.7048 C   0  0  0  0  0  0  0  0  0  0  0  0
  -26.1348    0.3565   26.8183 C   0  0  0  0  0  0  0  0  0  0  0  0
  -25.3867    0.0255   27.9208 C   0  0  0  0  0  0  0  0  0  0  0  0
  -23.9776    0.0232   27.9125 C   0  0  0  0  0  0  0  0  0  0  0  0
  -23.3085    0.8404   27.0012 C   0  0  0  0  0  0  0  0  0  0  0  0
  -21.9048    1.1476   27.1696 C   0  0  0  0  0  0  0  0  0  0  0  0
  -21.2386    0.6056   28.3240 C   0  0  0  0  0  0  0  0  0  0  0  0
  -21.9333   -0.3279   29.1500 C   0  0  0  0  0  0  0  0  0  0  0  0
  -23.3014   -0.5493   29.0060 C   0  0  0  0  0  0  0  0  0  0  0  0
  -28.2432    0.3499   25.5804 C   0  0  0  0  0  0  0  0  0  0  0  0
  -27.8061    0.6314   24.4360 C   0  0  0  0  0  0  0  0  0  0  0  0
  -28.6614    0.7752   23.3849 C   0  0  0  0  0  0  0  0  0  0  0  0
  3  7  1  0
  7  8  1  0
  8  9  2  3
  9 10  1  0
  7 16  1  0
 16 17  2  3
 17 18  1  0
  1  2  2  0
  2  6  1  0
  6  5  2  0
  5  4  1  0
  4  3  2  0
  3  1  1  0
 10 11  2  0
 11 12  1  0
 12 13  2  0
 13 14  1  0
 14 15  2  0
 15 10  1  0
M  END

$$$$
