No_1362-gen_results/8p0m/2024-11-26-14-13-15/
     RDKit          3D

 22 23  0  0  0  0  0  0  0  0999 V2000
  -28.0162   -0.8135   28.8779 C   0  0  0  0  0  0  0  0  0  0  0  0
  -27.0636   -0.1190   28.6079 C   0  0  0  0  0  0  0  0  0  0  0  0
  -27.0788    0.9846   29.1738 F   0  0  0  0  0  0  0  0  0  0  0  0
  -25.9956   -0.3885   27.6940 C   0  0  0  0  0  0  0  0  0  0  0  0
  -24.6945    0.2058   28.0100 C   0  0  0  0  0  0  0  0  0  0  0  0
  -28.7535   -1.0740   30.0380 C   0  0  0  0  0  0  0  0  0  0  0  0
  -28.3552   -0.8456   30.9276 C   0  0  0  0  0  0  0  0  0  0  0  0
  -23.8118   -0.4906   28.8008 C   0  0  0  0  0  0  0  0  0  0  0  0
  -22.5445    0.1301   29.1509 C   0  0  0  0  0  0  0  0  0  0  0  0
  -22.2264    1.3317   28.5117 C   0  0  0  0  0  0  0  0  0  0  0  0
  -24.1335    1.3965   27.4386 C   0  0  0  0  0  0  0  0  0  0  0  0
  -22.9667    1.9596   27.6535 C   0  0  0  0  0  0  0  0  0  0  0  0
  -29.1213   -1.0696   32.3199 C   0  0  0  0  0  0  0  0  0  0  0  0
  -30.3071   -1.7046   32.1801 C   0  0  0  0  0  0  0  0  0  0  0  0
  -30.7693   -2.0578   30.9330 C   0  0  0  0  0  0  0  0  0  0  0  0
  -30.0042   -1.7991   29.8690 C   0  0  0  0  0  0  0  0  0  0  0  0
  -32.0550   -2.7625   30.8163 C   0  0  0  0  0  0  0  0  0  0  0  0
  -32.3610   -3.4820   30.1360 O   0  0  0  0  0  0  0  0  0  0  0  0
  -33.1628   -2.0537   31.4932 N   0  0  0  0  0  0  0  0  0  0  0  0
  -34.4595   -2.5290   31.3838 C   0  0  0  0  0  0  0  0  0  0  0  0
  -35.2210   -1.7395   30.5440 C   0  0  0  0  0  0  0  0  0  0  0  0
  -36.2783   -2.1161   30.0496 C   0  0  0  0  0  0  0  0  0  0  0  0
  1  2  1  0
  2  3  1  0
  2  4  1  0
  4  5  1  0
  1  6  1  0
 15 17  1  0
 17 18  2  0
 17 19  1  0
 19 20  1  0
 20 21  1  0
 21 22  2  0
  5  8  2  0
  8  9  1  0
  9 10  2  0
 10 12  1  0
 12 11  2  0
 11  5  1  0
  6  7  2  0
  7 13  1  0
 13 14  2  0
 14 15  1  0
 15 16  2  0
 16  6  1  0
M  END

$$$$
