No_1431-gen_results/8p0m/2024-11-26-14-13-15/
     RDKit          3D

 18 20  0  0  0  0  0  0  0  0999 V2000
  -28.0162   -0.8135   28.8779 C   0  0  0  0  0  0  0  0  0  0  0  0
  -28.4690   -0.7850   29.8287 C   0  0  0  0  0  0  0  0  0  0  0  0
  -26.5455   -0.8762   28.8500 C   0  0  0  0  0  0  0  0  0  0  0  0
  -25.8041   -1.0324   30.0571 C   0  0  0  0  0  0  0  0  0  0  0  0
  -27.9437   -0.9869   31.2075 C   0  0  0  0  0  0  0  0  0  0  0  0
  -26.5825   -1.0386   31.2231 C   0  0  0  0  0  0  0  0  0  0  0  0
  -30.0279   -0.6588   29.6965 C   0  0  0  0  0  0  0  0  0  0  0  0
  -30.4923   -0.1050   28.7753 N   0  0  0  0  0  0  0  0  0  0  0  0
  -30.7936   -1.1568   30.6838 O   0  0  0  0  0  0  0  0  0  0  0  0
  -31.9213    0.0138   28.4676 C   0  0  0  0  0  0  0  0  0  0  0  0
  -32.2267    0.2440   27.2543 C   0  0  0  0  0  0  0  0  0  0  0  0
  -31.2587    0.5848   26.2439 C   0  0  0  0  0  0  0  0  0  0  0  0
  -29.9303    0.4877   26.5205 C   0  0  0  0  0  0  0  0  0  0  0  0
  -29.5634    0.0725   27.7095 C   0  0  0  0  0  0  0  0  0  0  0  0
  -28.4050   -0.2252   27.7227 N   0  0  0  0  0  0  0  0  0  0  0  0
  -25.6188   -0.8106   27.6605 C   0  0  0  0  0  0  0  0  0  0  0  0
  -24.2735   -0.5200   27.8592 C   0  0  0  0  0  0  0  0  0  0  0  0
  -23.6282   -0.8471   29.1045 C   0  0  0  0  0  0  0  0  0  0  0  0
  2  7  1  0
  7  8  1  0
  7  9  2  0
  8 10  1  0
 11 12  1  0
  8 14  1  0
 13 14  1  0
  1 15  1  0
 14 15  1  0
  3 16  1  0
 16 17  2  3
 17 18  1  0
 10 11  1  0
 12 13  1  0
  1  3  2  0
  3  4  1  0
  4  6  2  0
  6  5  1  0
  5  2  2  0
  2  1  1  0
M  END

$$$$
