No_1257-gen_results/8p0m/2024-11-26-14-13-15/
     RDKit          3D

 16 17  0  0  0  0  0  0  0  0999 V2000
  -28.0162   -0.8135   28.8779 C   0  0  0  0  0  0  0  0  0  0  0  0
  -27.0636   -0.1189   28.6079 C   0  0  0  0  0  0  0  0  0  0  0  0
  -25.7923   -0.4302   29.0761 C   0  0  0  0  0  0  0  0  0  0  0  0
  -25.5756   -1.5654   29.9363 C   0  0  0  0  0  0  0  0  0  0  0  0
  -26.7354   -2.3004   30.2173 C   0  0  0  0  0  0  0  0  0  0  0  0
  -27.9184   -1.9537   29.7629 C   0  0  0  0  0  0  0  0  0  0  0  0
  -27.1463    1.2916   27.6407 Cl  0  0  0  0  0  0  0  0  0  0  0  0
  -29.0683   -2.7883   30.1813 C   0  0  0  0  0  0  0  0  0  0  0  0
  -28.9567   -4.0769   30.4359 N   0  0  0  0  0  0  0  0  0  0  0  0
  -30.0665   -4.8365   30.7255 C   0  0  0  0  0  0  0  0  0  0  0  0
  -30.4999   -4.8333   31.7244 C   0  0  0  0  0  0  0  0  0  0  0  0
  -31.0432   -5.9302   32.4237 C   0  0  0  0  0  0  0  0  0  0  0  0
  -31.6060   -5.9538   33.7187 C   0  0  0  0  0  0  0  0  0  0  0  0
  -31.6457   -4.6996   34.3835 C   0  0  0  0  0  0  0  0  0  0  0  0
  -31.1494   -3.5787   33.8473 C   0  0  0  0  0  0  0  0  0  0  0  0
  -30.5535   -3.5813   32.6496 C   0  0  0  0  0  0  0  0  0  0  0  0
  2  7  1  0
  6  8  1  0
  8  9  2  3
  9 10  1  0
 10 11  1  0
 11 12  2  0
 12 13  1  0
 13 14  2  0
 14 15  1  0
 15 16  2  0
 16 11  1  0
  1  2  2  0
  2  3  1  0
  3  4  2  0
  4  5  1  0
  5  6  2  0
  6  1  1  0
M  END

$$$$
