No_1990-gen_results/8p0m/2024-11-26-14-13-15/
     RDKit          3D

 14 15  0  0  0  0  0  0  0  0999 V2000
  -28.1229   -1.3353   28.4874 O   0  0  0  0  0  0  0  0  0  0  0  0
  -28.5208   -0.4363   29.0779 C   0  0  0  0  0  0  0  0  0  0  0  0
  -27.6655    0.1129   30.0346 C   0  0  0  0  0  0  0  0  0  0  0  0
  -29.7419    0.1102   28.8873 N   0  0  0  0  0  0  0  0  0  0  0  0
  -27.8398    1.2287   30.6424 C   0  0  0  0  0  0  0  0  0  0  0  0
  -30.0783    1.2810   29.5952 C   0  0  0  0  0  0  0  0  0  0  0  0
  -29.1559    1.8186   30.5021 C   0  0  0  0  0  0  0  0  0  0  0  0
  -29.5353    3.2359   31.3411 Cl  0  0  0  0  0  0  0  0  0  0  0  0
  -26.2959   -0.5589   30.2007 C   0  0  0  0  0  0  0  0  0  0  0  0
  -25.6864   -0.6019   31.1288 C   0  0  0  0  0  0  0  0  0  0  0  0
  -24.3092   -1.1613   31.2601 C   0  0  0  0  0  0  0  0  0  0  0  0
  -23.7939   -1.9087   30.2004 C   0  0  0  0  0  0  0  0  0  0  0  0
  -24.6575   -2.0252   29.0667 C   0  0  0  0  0  0  0  0  0  0  0  0
  -25.8686   -1.3672   29.0338 C   0  0  0  0  0  0  0  0  0  0  0  0
  1  2  2  0
  2  3  1  0
  2  4  1  0
  3  5  1  0
  5  7  1  0
  6  7  1  0
  7  8  1  0
  3  9  1  0
  6  4  1  0
  9 10  2  0
 10 11  1  0
 11 12  2  0
 12 13  1  0
 13 14  2  0
 14  9  1  0
M  END

$$$$
