No_1152-gen_results/8p0m/2024-11-26-14-13-15/
     RDKit          3D

 13 14  0  0  0  0  0  0  0  0999 V2000
  -28.0162   -0.8135   28.8779 C   0  0  0  0  0  0  0  0  0  0  0  0
  -28.4690   -0.7850   29.8287 C   0  0  0  0  0  0  0  0  0  0  0  0
  -27.0871    0.2903   28.6377 C   0  0  0  0  0  0  0  0  0  0  0  0
  -26.9103    0.8486   27.4199 C   0  0  0  0  0  0  0  0  0  0  0  0
  -27.8904   -0.5560   31.0200 N   0  0  0  0  0  0  0  0  0  0  0  0
  -25.8256    1.5951   27.1696 C   0  0  0  0  0  0  0  0  0  0  0  0
  -24.8456    1.9389   28.1846 C   0  0  0  0  0  0  0  0  0  0  0  0
  -25.0221    1.3337   29.4095 C   0  0  0  0  0  0  0  0  0  0  0  0
  -26.0684    0.4931   29.6090 C   0  0  0  0  0  0  0  0  0  0  0  0
  -26.7059    0.2777   30.9419 C   0  0  0  0  0  0  0  0  0  0  0  0
  -27.2926    0.2028   26.1916 C   0  0  0  0  0  0  0  0  0  0  0  0
  -27.1014    0.7508   24.9384 C   0  0  0  0  0  0  0  0  0  0  0  0
  -26.1293    1.7361   24.7979 C   0  0  0  0  0  0  0  0  0  0  0  0
  1  2  1  0
  1  3  1  0
  2  5  1  0
  5 10  1  0
  9 10  1  0
  4 11  1  0
 11 12  2  3
 12 13  1  0
  3  4  2  0
  4  6  1  0
  6  7  2  0
  7  8  1  0
  8  9  2  0
  9  3  1  0
M  END

$$$$
