No_1911-gen_results/8p0m/2024-11-26-14-13-15/
     RDKit          3D

 10  9  0  0  0  0  0  0  0  0999 V2000
  -28.1493   -0.8198   28.9079 Cl  0  0  0  0  0  0  0  0  0  0  0  0
  -27.8339    0.4961   29.0598 C   0  0  0  0  0  0  0  0  0  0  0  0
  -27.5135    1.2383   28.0485 C   0  0  0  0  0  0  0  0  0  0  0  0
  -26.8806    2.5191   28.1751 C   0  0  0  0  0  0  0  0  0  0  0  0
  -26.7030    3.0526   29.4791 C   0  0  0  0  0  0  0  0  0  0  0  0
  -26.0889    4.3116   29.7526 C   0  0  0  0  0  0  0  0  0  0  0  0
  -25.6059    5.0033   28.6416 C   0  0  0  0  0  0  0  0  0  0  0  0
  -25.7145    4.5213   27.3244 C   0  0  0  0  0  0  0  0  0  0  0  0
  -26.3469    3.2861   27.1232 C   0  0  0  0  0  0  0  0  0  0  0  0
  -26.9524    2.7618   29.1541 Cl  0  0  0  0  0  0  0  0  0  0  0  0
  1  2  1  0
  2  3  1  0
  3  4  2  3
  4  5  1  0
  5  6  1  0
  6  7  2  3
  7  8  1  0
  8  9  2  0
  5 10  1  0
M  END

$$$$
