No_1804-gen_results/8p0m/2024-11-26-14-13-15/
     RDKit          3D

 20 21  0  0  0  0  0  0  0  0999 V2000
  -28.0727   -1.2542   28.5316 F   0  0  0  0  0  0  0  0  0  0  0  0
  -27.3591   -0.3792   28.7224 C   0  0  0  0  0  0  0  0  0  0  0  0
  -26.8100    0.1885   27.6513 C   0  0  0  0  0  0  0  0  0  0  0  0
  -25.6015    0.9529   27.6828 C   0  0  0  0  0  0  0  0  0  0  0  0
  -25.0371    1.2332   29.0000 C   0  0  0  0  0  0  0  0  0  0  0  0
  -25.6162    0.5855   30.0870 C   0  0  0  0  0  0  0  0  0  0  0  0
  -26.6061   -0.2296   29.9624 C   0  0  0  0  0  0  0  0  0  0  0  0
  -23.8926    2.1100   29.0763 C   0  0  0  0  0  0  0  0  0  0  0  0
  -23.4042    2.7123   28.1758 O   0  0  0  0  0  0  0  0  0  0  0  0
  -23.5996    2.3758   30.3512 O   0  0  0  0  0  0  0  0  0  0  0  0
  -27.3480   -1.0748   31.4953 Br  0  0  0  0  0  0  0  0  0  0  0  0
  -27.2247   -0.0054   26.4062 O   0  0  0  0  0  0  0  0  0  0  0  0
  -28.1028    0.8590   25.9660 C   0  0  0  0  0  0  0  0  0  0  0  0
  -29.4768    0.5737   26.1994 C   0  0  0  0  0  0  0  0  0  0  0  0
  -29.9000    0.2905   27.3932 C   0  0  0  0  0  0  0  0  0  0  0  0
  -31.2110    0.7745   27.6866 C   0  0  0  0  0  0  0  0  0  0  0  0
  -32.0410    0.8808   26.6813 C   0  0  0  0  0  0  0  0  0  0  0  0
  -30.4549    0.7569   25.2104 C   0  0  0  0  0  0  0  0  0  0  0  0
  -31.6895    1.0672   25.4208 C   0  0  0  0  0  0  0  0  0  0  0  0
  -27.6635    1.8112   25.2194 O   0  0  0  0  0  0  0  0  0  0  0  0
  1  2  1  0
  5  8  1  0
  8  9  2  0
  8 10  1  0
  7 11  1  0
  3 12  1  0
 12 13  1  0
 13 14  1  0
 13 20  2  0
  2  3  2  0
  3  4  1  0
  4  5  2  0
  5  6  1  0
  6  7  2  0
  7  2  1  0
 14 15  2  0
 15 16  1  0
 16 17  2  0
 17 19  1  0
 19 18  2  0
 18 14  1  0
M  END

$$$$
