No_1177-gen_results/8p0m/2024-11-26-14-13-15/
     RDKit          3D

 14 15  0  0  0  0  0  0  0  0999 V2000
  -28.0162   -0.8135   28.8779 C   0  0  0  0  0  0  0  0  0  0  0  0
  -28.4690   -0.7850   29.8287 C   0  0  0  0  0  0  0  0  0  0  0  0
  -27.1356    0.2359   28.5352 C   0  0  0  0  0  0  0  0  0  0  0  0
  -26.3351    0.2900   27.2835 C   0  0  0  0  0  0  0  0  0  0  0  0
  -28.3692    0.1957   30.9236 C   0  0  0  0  0  0  0  0  0  0  0  0
  -27.5158    1.2655   30.6540 C   0  0  0  0  0  0  0  0  0  0  0  0
  -26.8411    1.2942   29.4761 C   0  0  0  0  0  0  0  0  0  0  0  0
  -25.3613    0.7751   26.9672 C   0  0  0  0  0  0  0  0  0  0  0  0
  -24.8303    1.7670   28.0167 C   0  0  0  0  0  0  0  0  0  0  0  0
  -23.5894    2.5261   27.8396 C   0  0  0  0  0  0  0  0  0  0  0  0
  -25.5947    1.9375   29.2524 C   0  0  0  0  0  0  0  0  0  0  0  0
  -23.2094    2.6614   26.6559 F   0  0  0  0  0  0  0  0  0  0  0  0
  -22.5180    1.6829   28.3091 F   0  0  0  0  0  0  0  0  0  0  0  0
  -23.4964    3.6985   28.3912 F   0  0  0  0  0  0  0  0  0  0  0  0
  9 10  1  0
 10 12  1  0
 10 13  1  0
 10 14  1  0
  3  4  2  0
  4  8  1  0
  8  9  2  0
  9 11  1  0
 11  7  2  0
  1  2  2  0
  2  5  1  0
  5  6  2  0
  6  7  1  0
  7  3  1  0
  3  1  1  0
M  END

$$$$
