No_1081-gen_results/8p0m/2024-11-26-14-13-15/
     RDKit          3D

 35 38  0  0  0  0  0  0  0  0999 V2000
  -28.0162   -0.8135   28.8779 C   0  0  0  0  0  0  0  0  0  0  0  0
  -28.4690   -0.7850   29.8287 C   0  0  0  0  0  0  0  0  0  0  0  0
  -26.5042   -0.7777   28.8766 C   0  0  0  0  0  0  0  0  0  0  0  0
  -25.6540   -0.6597   27.7191 C   0  0  0  0  0  0  0  0  0  0  0  0
  -27.9180   -0.9374   31.1824 C   0  0  0  0  0  0  0  0  0  0  0  0
  -26.5424   -0.9399   31.2606 C   0  0  0  0  0  0  0  0  0  0  0  0
  -25.7832   -0.8935   30.1201 C   0  0  0  0  0  0  0  0  0  0  0  0
  -24.3096   -0.3015   27.8531 C   0  0  0  0  0  0  0  0  0  0  0  0
  -23.6669   -0.4595   29.0986 C   0  0  0  0  0  0  0  0  0  0  0  0
  -24.3700   -0.6645   30.2027 C   0  0  0  0  0  0  0  0  0  0  0  0
  -22.3572   -0.2482   29.1369 F   0  0  0  0  0  0  0  0  0  0  0  0
  -30.0712   -0.8656   29.8821 C   0  0  0  0  0  0  0  0  0  0  0  0
  -30.7100   -0.0922   30.7561 O   0  0  0  0  0  0  0  0  0  0  0  0
  -30.6603   -1.4584   29.0296 O   0  0  0  0  0  0  0  0  0  0  0  0
  -23.6724   -0.7583   31.5308 C   0  0  0  0  0  0  0  0  0  0  0  0
  -23.9792    0.0121   32.5527 N   0  0  0  0  0  0  0  0  0  0  0  0
  -22.7353   -1.5511   31.6863 O   0  0  0  0  0  0  0  0  0  0  0  0
  -32.0006   -0.0509   30.9015 C   0  0  0  0  0  0  0  0  0  0  0  0
  -32.7822    0.7155   30.5252 C   0  0  0  0  0  0  0  0  0  0  0  0
  -34.1838    0.6727   30.6060 C   0  0  0  0  0  0  0  0  0  0  0  0
  -35.0712    1.6419   30.1082 C   0  0  0  0  0  0  0  0  0  0  0  0
  -36.4746    1.5686   30.2408 C   0  0  0  0  0  0  0  0  0  0  0  0
  -36.9286    0.3745   30.8776 C   0  0  0  0  0  0  0  0  0  0  0  0
  -36.1082   -0.5917   31.3453 C   0  0  0  0  0  0  0  0  0  0  0  0
  -34.7260   -0.4554   31.2094 C   0  0  0  0  0  0  0  0  0  0  0  0
  -32.4407   -1.2988   31.6484 C   0  0  0  0  0  0  0  0  0  0  0  0
  -33.8646   -1.4411   31.7307 C   0  0  0  0  0  0  0  0  0  0  0  0
  -37.3198    2.5882   29.7604 C   0  0  0  0  0  0  0  0  0  0  0  0
  -38.2710    2.9013   30.3325 O   0  0  0  0  0  0  0  0  0  0  0  0
  -36.9278    3.1844   28.6982 O   0  0  0  0  0  0  0  0  0  0  0  0
  -34.3046   -2.4943   32.3601 O   0  0  0  0  0  0  0  0  0  0  0  0
  -32.2278    1.9839   29.7611 C   0  0  0  0  0  0  0  0  0  0  0  0
  -31.0860    2.2510   29.4209 C   0  0  0  0  0  0  0  0  0  0  0  0
  -30.7610    3.3889   28.6518 C   0  0  0  0  0  0  0  0  0  0  0  0
  -31.7451    4.2124   28.2495 C   0  0  0  0  0  0  0  0  0  0  0  0
  9 11  1  0
  2 12  1  0
 12 13  1  0
 12 14  2  0
 10 15  1  0
 15 16  1  0
 15 17  2  0
 13 18  1  0
 18 19  1  0
 18 26  1  0
 25 27  1  0
 26 27  1  0
 22 28  1  0
 28 29  1  0
 28 30  2  0
 27 31  2  0
 19 32  1  0
 32 33  1  0
 33 34  2  3
 34 35  1  0
 20 19  1  0
  1  2  2  0
  2  5  1  0
  5  6  2  0
  6  7  1  0
  3  1  1  0
 20 21  2  0
 21 22  1  0
 22 23  2  0
 23 24  1  0
 24 25  2  0
 25 20  1  0
  3  4  2  0
  4  8  1  0
  8  9  2  0
  9 10  1  0
 10  7  2  0
  7  3  1  0
M  END

$$$$
