No_1161-gen_results/8p0m/2024-11-26-14-13-15/
     RDKit          3D

 24 25  0  0  0  0  0  0  0  0999 V2000
  -28.0162   -0.8135   28.8779 C   0  0  0  0  0  0  0  0  0  0  0  0
  -27.0636   -0.1189   28.6079 C   0  0  0  0  0  0  0  0  0  0  0  0
  -26.9716    0.7139   27.5060 C   0  0  0  0  0  0  0  0  0  0  0  0
  -28.1053    0.7744   26.6421 C   0  0  0  0  0  0  0  0  0  0  0  0
  -29.2008    0.1044   27.0527 C   0  0  0  0  0  0  0  0  0  0  0  0
  -29.2096   -0.6029   28.1853 C   0  0  0  0  0  0  0  0  0  0  0  0
  -30.3886    0.2163   26.4306 F   0  0  0  0  0  0  0  0  0  0  0  0
  -25.7001   -0.2321   29.3790 C   0  0  0  0  0  0  0  0  0  0  0  0
  -25.3495   -1.1305   29.9359 C   0  0  0  0  0  0  0  0  0  0  0  0
  -24.0807   -1.2557   30.6763 C   0  0  0  0  0  0  0  0  0  0  0  0
  -23.1889   -0.1877   30.6271 C   0  0  0  0  0  0  0  0  0  0  0  0
  -23.5915    0.9551   29.8459 C   0  0  0  0  0  0  0  0  0  0  0  0
  -24.8643    0.9837   29.1898 C   0  0  0  0  0  0  0  0  0  0  0  0
  -25.0449    2.0318   28.4794 F   0  0  0  0  0  0  0  0  0  0  0  0
  -28.0551    1.7799   25.2623 Cl  0  0  0  0  0  0  0  0  0  0  0  0
  -28.0797   -1.5948   29.9875 O   0  0  0  0  0  0  0  0  0  0  0  0
  -28.8542   -1.3359   31.0247 C   0  0  0  0  0  0  0  0  0  0  0  0
  -30.1886   -1.4261   30.9564 C   0  0  0  0  0  0  0  0  0  0  0  0
  -30.9802   -0.9334   31.3411 Cl  0  0  0  0  0  0  0  0  0  0  0  0
  -30.2828   -3.0161   30.6742 C   0  0  0  0  0  0  0  0  0  0  0  0
  -30.9180   -3.5590   31.5650 O   0  0  0  0  0  0  0  0  0  0  0  0
  -30.0090   -3.5953   29.6266 O   0  0  0  0  0  0  0  0  0  0  0  0
  -28.2486   -1.9918   32.3020 C   0  0  0  0  0  0  0  0  0  0  0  0
  -28.4897   -1.3189   33.4320 O   0  0  0  0  0  0  0  0  0  0  0  0
  5  7  1  0
  2  8  1  0
 13 14  1  0
  4 15  1  0
  1 16  1  0
 16 17  1  0
 17 18  1  0
 18 19  1  0
 18 20  1  0
 20 21  2  0
 20 22  1  0
 17 23  1  0
 23 24  2  0
  1  2  2  0
  2  3  1  0
  3  4  2  0
  4  5  1  0
  5  6  2  0
  6  1  1  0
  8  9  2  0
  9 10  1  0
 10 11  2  0
 11 12  1  0
 12 13  2  0
 13  8  1  0
M  END

$$$$
