No_1625-gen_results/8p0m/2024-11-26-14-13-15/
     RDKit          3D

 32 36  0  0  0  0  0  0  0  0999 V2000
  -28.0162   -0.8135   28.8779 C   0  0  0  0  0  0  0  0  0  0  0  0
  -27.0636   -0.1189   28.6079 C   0  0  0  0  0  0  0  0  0  0  0  0
  -26.8756    1.1325   28.9134 C   0  0  0  0  0  0  0  0  0  0  0  0
  -27.9014    1.8066   29.6436 C   0  0  0  0  0  0  0  0  0  0  0  0
  -29.0458   -0.2316   29.7181 C   0  0  0  0  0  0  0  0  0  0  0  0
  -27.7521    3.2005   30.0171 C   0  0  0  0  0  0  0  0  0  0  0  0
  -28.9510    1.0411   30.0482 C   0  0  0  0  0  0  0  0  0  0  0  0
  -27.7772    3.6042   31.1953 C   0  0  0  0  0  0  0  0  0  0  0  0
  -27.6009    5.0205   31.5876 C   0  0  0  0  0  0  0  0  0  0  0  0
  -27.5163    5.4868   32.9117 C   0  0  0  0  0  0  0  0  0  0  0  0
  -27.5052    4.1683   28.9391 C   0  0  0  0  0  0  0  0  0  0  0  0
  -27.3060    5.5557   29.2478 C   0  0  0  0  0  0  0  0  0  0  0  0
  -27.2946    5.9629   30.5643 C   0  0  0  0  0  0  0  0  0  0  0  0
  -25.7023   -0.8353   27.6681 Cl  0  0  0  0  0  0  0  0  0  0  0  0
  -26.9043    5.9536   33.6172 C   0  0  0  0  0  0  0  0  0  0  0  0
  -27.0257    6.2883   34.9832 C   0  0  0  0  0  0  0  0  0  0  0  0
  -28.1658    5.7478   35.5892 C   0  0  0  0  0  0  0  0  0  0  0  0
  -29.0167    5.0301   34.8655 C   0  0  0  0  0  0  0  0  0  0  0  0
  -28.8017    4.7833   33.5769 C   0  0  0  0  0  0  0  0  0  0  0  0
  -30.1722   -1.0923   30.1475 C   0  0  0  0  0  0  0  0  0  0  0  0
  -29.9781   -2.1295   30.4848 O   0  0  0  0  0  0  0  0  0  0  0  0
  -31.3879   -0.5391   30.1678 N   0  0  0  0  0  0  0  0  0  0  0  0
  -32.4188   -0.9006   30.2745 C   0  0  0  0  0  0  0  0  0  0  0  0
  -33.4905   -0.1741   30.2517 C   0  0  0  0  0  0  0  0  0  0  0  0
  -33.1831    1.1601   30.0368 C   0  0  0  0  0  0  0  0  0  0  0  0
  -32.0732    1.7719   29.8059 C   0  0  0  0  0  0  0  0  0  0  0  0
  -31.0969    0.9486   29.8454 C   0  0  0  0  0  0  0  0  0  0  0  0
  -29.8872    1.4446   29.7578 N   0  0  0  0  0  0  0  0  0  0  0  0
  -25.5071    6.5861   33.0923 C   0  0  0  0  0  0  0  0  0  0  0  0
  -24.7160    6.0593   33.5737 F   0  0  0  0  0  0  0  0  0  0  0  0
  -25.4905    7.9263   33.3572 F   0  0  0  0  0  0  0  0  0  0  0  0
  -25.4583    6.4160   31.7542 F   0  0  0  0  0  0  0  0  0  0  0  0
  4  6  1  0
  2 14  1  0
  5 20  1  0
 20 21  2  0
 20 22  1  0
 22 23  1  0
 24 25  1  0
 22 27  1  0
 26 27  1  0
  7 28  1  0
 15 29  1  0
 29 30  1  0
 29 31  1  0
 29 32  1  0
  9 10  1  0
 23 24  1  0
 25 26  1  0
 28 27  1  0
 10 15  2  0
 15 16  1  0
 16 17  2  0
 17 18  1  0
 18 19  2  0
 19 10  1  0
  1  2  2  0
  2  3  1  0
  3  4  2  0
  4  7  1  0
  7  5  2  0
  5  1  1  0
  6  8  2  0
  8  9  1  0
  9 13  2  0
 13 12  1  0
 12 11  2  0
 11  6  1  0
M  END

$$$$
