No_1382-gen_results/8p0m/2024-11-26-14-13-15/
     RDKit          3D

 23 25  0  0  0  0  0  0  0  0999 V2000
  -28.0162   -0.8135   28.8779 C   0  0  0  0  0  0  0  0  0  0  0  0
  -28.4690   -0.7850   29.8287 C   0  0  0  0  0  0  0  0  0  0  0  0
  -26.5042   -0.7777   28.8766 C   0  0  0  0  0  0  0  0  0  0  0  0
  -25.8103   -0.8531   30.1028 C   0  0  0  0  0  0  0  0  0  0  0  0
  -27.9906   -0.8916   31.2257 C   0  0  0  0  0  0  0  0  0  0  0  0
  -24.3976   -0.8364   30.1775 C   0  0  0  0  0  0  0  0  0  0  0  0
  -26.5754   -0.8899   31.2661 C   0  0  0  0  0  0  0  0  0  0  0  0
  -23.7708   -0.9176   31.0960 C   0  0  0  0  0  0  0  0  0  0  0  0
  -24.4514   -0.9719   32.4391 C   0  0  0  0  0  0  0  0  0  0  0  0
  -25.8238   -0.8806   32.4918 C   0  0  0  0  0  0  0  0  0  0  0  0
  -25.7119   -0.7135   27.6230 C   0  0  0  0  0  0  0  0  0  0  0  0
  -25.6147    0.6344   27.1022 C   0  0  0  0  0  0  0  0  0  0  0  0
  -24.5255    1.0393   26.5398 C   0  0  0  0  0  0  0  0  0  0  0  0
  -24.3963    2.4306   26.0337 C   0  0  0  0  0  0  0  0  0  0  0  0
  -25.4910    3.2117   26.0953 C   0  0  0  0  0  0  0  0  0  0  0  0
  -26.6959    1.5998   27.1416 C   0  0  0  0  0  0  0  0  0  0  0  0
  -26.6071    2.8199   26.6420 C   0  0  0  0  0  0  0  0  0  0  0  0
  -30.1079   -0.8116   29.8641 C   0  0  0  0  0  0  0  0  0  0  0  0
  -30.6360   -0.1294   29.1117 O   0  0  0  0  0  0  0  0  0  0  0  0
  -30.7537   -1.6527   30.6885 N   0  0  0  0  0  0  0  0  0  0  0  0
  -32.1737   -1.7707   30.6360 C   0  0  0  0  0  0  0  0  0  0  0  0
  -32.9763   -1.1695   30.2858 C   0  0  0  0  0  0  0  0  0  0  0  0
  -32.7066    0.1727   29.9419 C   0  0  0  0  0  0  0  0  0  0  0  0
  3 11  1  0
 11 12  1  0
  2 18  1  0
 18 19  2  0
 18 20  1  0
 20 21  1  0
 21 22  2  3
 22 23  1  0
 12 13  2  0
 13 14  1  0
 14 15  2  0
 15 17  1  0
 17 16  2  0
 16 12  1  0
  4  6  1  0
  6  8  2  0
  8  9  1  0
  9 10  2  0
 10  7  1  0
  1  2  2  0
  2  5  1  0
  5  7  2  0
  7  4  1  0
  4  3  2  0
  3  1  1  0
M  END

$$$$
