No_1559-gen_results/8p0m/2024-11-26-14-13-15/
     RDKit          3D

 13 14  0  0  0  0  0  0  0  0999 V2000
  -28.0162   -0.8135   28.8779 C   0  0  0  0  0  0  0  0  0  0  0  0
  -28.4690   -0.7850   29.8287 C   0  0  0  0  0  0  0  0  0  0  0  0
  -28.1960    0.3478   28.0550 C   0  0  0  0  0  0  0  0  0  0  0  0
  -29.0191    1.3501   28.3782 C   0  0  0  0  0  0  0  0  0  0  0  0
  -29.2330    0.0588   30.3450 C   0  0  0  0  0  0  0  0  0  0  0  0
  -29.5334    1.2062   29.6597 C   0  0  0  0  0  0  0  0  0  0  0  0
  -27.5343    0.3634   26.7886 O   0  0  0  0  0  0  0  0  0  0  0  0
  -26.1667    0.4178   26.7066 C   0  0  0  0  0  0  0  0  0  0  0  0
  -25.6059    1.1999   25.7323 C   0  0  0  0  0  0  0  0  0  0  0  0
  -25.2963   -0.3839   27.5422 C   0  0  0  0  0  0  0  0  0  0  0  0
  -24.1591    1.2149   25.6121 C   0  0  0  0  0  0  0  0  0  0  0  0
  -23.9199   -0.1815   27.5496 C   0  0  0  0  0  0  0  0  0  0  0  0
  -23.3647    0.6589   26.5722 C   0  0  0  0  0  0  0  0  0  0  0  0
  3  7  1  0
  7  8  1  0
  8  9  2  0
  9 11  1  0
 11 13  2  0
 13 12  1  0
 12 10  2  0
 10  8  1  0
  1  2  2  0
  2  5  1  0
  5  6  2  0
  6  4  1  0
  4  3  2  0
  3  1  1  0
M  END

$$$$
