No_1126-gen_results/8p0m/2024-11-26-14-13-15/
     RDKit          3D

 35 38  0  0  0  0  0  0  0  0999 V2000
  -28.0162   -0.8135   28.8779 C   0  0  0  0  0  0  0  0  0  0  0  0
  -28.4690   -0.7850   29.8287 C   0  0  0  0  0  0  0  0  0  0  0  0
  -28.1960    0.3478   28.0550 C   0  0  0  0  0  0  0  0  0  0  0  0
  -29.0191    1.3501   28.3782 C   0  0  0  0  0  0  0  0  0  0  0  0
  -29.4107    0.1803   30.3782 C   0  0  0  0  0  0  0  0  0  0  0  0
  -29.6059    1.2495   29.6193 C   0  0  0  0  0  0  0  0  0  0  0  0
  -27.4597    0.3802   26.7091 C   0  0  0  0  0  0  0  0  0  0  0  0
  -27.9298    0.5836   25.6804 C   0  0  0  0  0  0  0  0  0  0  0  0
  -29.3518    0.8141   25.5930 C   0  0  0  0  0  0  0  0  0  0  0  0
  -30.0874    0.3793   24.7862 C   0  0  0  0  0  0  0  0  0  0  0  0
  -29.6805   -0.8473   24.1145 C   0  0  0  0  0  0  0  0  0  0  0  0
  -28.3368   -1.0851   23.9338 C   0  0  0  0  0  0  0  0  0  0  0  0
  -27.5553   -0.3969   24.6094 C   0  0  0  0  0  0  0  0  0  0  0  0
  -26.0147    0.7359   27.0230 C   0  0  0  0  0  0  0  0  0  0  0  0
  -25.6202    1.8875   27.5013 C   0  0  0  0  0  0  0  0  0  0  0  0
  -24.2811    2.1951   27.6890 C   0  0  0  0  0  0  0  0  0  0  0  0
  -23.3220    1.1613   27.5712 C   0  0  0  0  0  0  0  0  0  0  0  0
  -25.0704   -0.3203   26.8697 C   0  0  0  0  0  0  0  0  0  0  0  0
  -21.9003    1.4439   27.8601 C   0  0  0  0  0  0  0  0  0  0  0  0
  -23.7296   -0.0414   27.1847 C   0  0  0  0  0  0  0  0  0  0  0  0
  -21.2022    0.9805   28.8128 N   0  0  0  0  0  0  0  0  0  0  0  0
  -21.3535    2.3354   27.0377 O   0  0  0  0  0  0  0  0  0  0  0  0
  -31.5812    0.6871   24.7392 C   0  0  0  0  0  0  0  0  0  0  0  0
  -31.9213    1.9167   25.0446 C   0  0  0  0  0  0  0  0  0  0  0  0
  -33.2717    2.3438   25.0269 C   0  0  0  0  0  0  0  0  0  0  0  0
  -34.1774    1.4319   24.5098 C   0  0  0  0  0  0  0  0  0  0  0  0
  -32.5369   -0.1508   24.3268 C   0  0  0  0  0  0  0  0  0  0  0  0
  -33.8419    0.1852   24.2133 C   0  0  0  0  0  0  0  0  0  0  0  0
  -30.7606    2.4891   30.1051 Cl  0  0  0  0  0  0  0  0  0  0  0  0
  -28.2543   -1.8793   30.7562 F   0  0  0  0  0  0  0  0  0  0  0  0
  -35.8606    1.8979   24.4175 Cl  0  0  0  0  0  0  0  0  0  0  0  0
  -21.6553   -0.1795   29.5247 C   0  0  0  0  0  0  0  0  0  0  0  0
  -22.5732    0.0820   30.5429 C   0  0  0  0  0  0  0  0  0  0  0  0
  -23.3092    1.1420   30.6379 C   0  0  0  0  0  0  0  0  0  0  0  0
  -24.3460    1.3714   31.6514 C   0  0  0  0  0  0  0  0  0  0  0  0
  3  7  1  0
  7 14  1  0
 17 19  1  0
 19 21  1  0
 19 22  2  0
 10 23  1  0
  6 29  1  0
  2 30  1  0
 26 31  1  0
 21 32  1  0
 32 33  1  0
 33 34  2  3
 34 35  1  0
  7  8  1  0
  8  9  2  0
  9 10  1  0
 10 11  2  0
 11 12  1  0
 12 13  2  0
 13  8  1  0
  1  2  2  0
  2  5  1  0
  5  6  2  0
  6  4  1  0
  4  3  2  0
  3  1  1  0
 23 24  2  0
 24 25  1  0
 25 26  2  0
 26 28  1  0
 28 27  2  0
 27 23  1  0
 14 15  2  0
 15 16  1  0
 16 17  2  0
 17 20  1  0
 20 18  2  0
 18 14  1  0
M  END

$$$$
