No_1790-gen_results/8p0m/2024-11-26-14-13-15/
     RDKit          3D

 21 23  0  0  0  0  0  0  0  0999 V2000
  -28.0162   -0.8135   28.8779 C   0  0  0  0  0  0  0  0  0  0  0  0
  -27.0636   -0.1190   28.6079 C   0  0  0  0  0  0  0  0  0  0  0  0
  -25.7923   -0.4302   29.0761 C   0  0  0  0  0  0  0  0  0  0  0  0
  -25.5756   -1.5654   29.9363 C   0  0  0  0  0  0  0  0  0  0  0  0
  -26.7354   -2.3004   30.2173 C   0  0  0  0  0  0  0  0  0  0  0  0
  -27.9184   -1.9537   29.7629 C   0  0  0  0  0  0  0  0  0  0  0  0
  -29.0001   -2.7012   30.1151 O   0  0  0  0  0  0  0  0  0  0  0  0
  -24.5290    0.3490   28.7998 C   0  0  0  0  0  0  0  0  0  0  0  0
  -23.3442    0.0060   29.1658 C   0  0  0  0  0  0  0  0  0  0  0  0
  -22.1783    0.7811   28.7783 C   0  0  0  0  0  0  0  0  0  0  0  0
  -22.3620    1.5200   27.6330 C   0  0  0  0  0  0  0  0  0  0  0  0
  -24.3689    1.1644   27.5471 C   0  0  0  0  0  0  0  0  0  0  0  0
  -23.4113    1.8425   27.1382 C   0  0  0  0  0  0  0  0  0  0  0  0
  -30.1254   -2.1327   30.5832 C   0  0  0  0  0  0  0  0  0  0  0  0
  -30.2222   -1.1441   31.0475 C   0  0  0  0  0  0  0  0  0  0  0  0
  -30.7657   -0.2596   31.2673 C   0  0  0  0  0  0  0  0  0  0  0  0
  -30.7636    0.9342   31.7613 C   0  0  0  0  0  0  0  0  0  0  0  0
  -29.4460    1.3473   32.2209 C   0  0  0  0  0  0  0  0  0  0  0  0
  -28.4365    0.4445   32.1132 C   0  0  0  0  0  0  0  0  0  0  0  0
  -28.6851   -0.7895   31.4988 C   0  0  0  0  0  0  0  0  0  0  0  0
  -27.9941   -1.6232   32.1649 O   0  0  0  0  0  0  0  0  0  0  0  0
  6  7  1  0
  3  8  1  0
  7 14  1  0
 14 15  1  0
 20 21  1  0
 15 16  2  0
 16 17  1  0
 17 18  2  0
 18 19  1  0
 19 20  2  0
 20 15  1  0
  1  2  2  0
  2  3  1  0
  3  4  2  0
  4  5  1  0
  5  6  2  0
  6  1  1  0
  8  9  2  0
  9 10  1  0
 10 11  2  0
 11 13  1  0
 13 12  2  0
 12  8  1  0
M  END

$$$$
