No_184-gen_results/8p0m/2024-11-26-14-13-15/
     RDKit          3D

 21 23  0  0  0  0  0  0  0  0999 V2000
  -28.0162   -0.8135   28.8779 C   0  0  0  0  0  0  0  0  0  0  0  0
  -28.4690   -0.7850   29.8287 C   0  0  0  0  0  0  0  0  0  0  0  0
  -26.5455   -0.8762   28.8500 C   0  0  0  0  0  0  0  0  0  0  0  0
  -25.8041   -1.0324   30.0571 C   0  0  0  0  0  0  0  0  0  0  0  0
  -24.3697   -1.0998   30.0718 C   0  0  0  0  0  0  0  0  0  0  0  0
  -27.9902   -1.0051   31.2092 C   0  0  0  0  0  0  0  0  0  0  0  0
  -26.5616   -1.1368   31.2600 C   0  0  0  0  0  0  0  0  0  0  0  0
  -23.6342   -0.7825   29.0667 C   0  0  0  0  0  0  0  0  0  0  0  0
  -22.1763   -0.6779   29.1657 C   0  0  0  0  0  0  0  0  0  0  0  0
  -21.5613    0.4612   28.8574 C   0  0  0  0  0  0  0  0  0  0  0  0
  -22.1205    1.3911   27.9070 C   0  0  0  0  0  0  0  0  0  0  0  0
  -23.5405    1.2730   27.6656 C   0  0  0  0  0  0  0  0  0  0  0  0
  -24.2761    0.3472   28.2811 C   0  0  0  0  0  0  0  0  0  0  0  0
  -25.6991   -0.2115   27.8066 C   0  0  0  0  0  0  0  0  0  0  0  0
  -24.1540    2.2954   26.7968 C   0  0  0  0  0  0  0  0  0  0  0  0
  -24.5730    3.2569   27.3389 O   0  0  0  0  0  0  0  0  0  0  0  0
  -24.2017    1.9689   25.5544 O   0  0  0  0  0  0  0  0  0  0  0  0
  -30.0792   -0.7926   29.8754 C   0  0  0  0  0  0  0  0  0  0  0  0
  -30.6510    0.1597   30.4818 O   0  0  0  0  0  0  0  0  0  0  0  0
  -30.6781   -1.6815   29.2714 O   0  0  0  0  0  0  0  0  0  0  0  0
  -26.1802    0.2190   26.7544 O   0  0  0  0  0  0  0  0  0  0  0  0
  4  5  1  0
  3 14  1  0
 13 14  1  0
 12 15  1  0
 15 16  2  0
 15 17  1  0
  2 18  1  0
 18 19  2  0
 18 20  1  0
 14 21  2  0
  5  8  1  0
  1  2  2  0
  2  6  1  0
  6  7  2  0
  7  4  1  0
  4  3  2  0
  3  1  1  0
  8  9  2  0
  9 10  1  0
 10 11  2  0
 11 12  1  0
 12 13  2  0
 13  8  1  0
M  END

$$$$
