No_1720-gen_results/8p0m/2024-11-26-14-13-15/
     RDKit          3D

 12 12  0  0  0  0  0  0  0  0999 V2000
  -28.0162   -0.8135   28.8779 C   0  0  0  0  0  0  0  0  0  0  0  0
  -28.4690   -0.7850   29.8287 C   0  0  0  0  0  0  0  0  0  0  0  0
  -27.0871    0.2903   28.6377 C   0  0  0  0  0  0  0  0  0  0  0  0
  -26.2516    0.4114   27.4223 C   0  0  0  0  0  0  0  0  0  0  0  0
  -29.4309   -1.9307   30.2714 C   0  0  0  0  0  0  0  0  0  0  0  0
  -28.2721    0.2103   30.9866 C   0  0  0  0  0  0  0  0  0  0  0  0
  -27.4384    1.2352   30.7769 C   0  0  0  0  0  0  0  0  0  0  0  0
  -26.7524    1.2946   29.5985 C   0  0  0  0  0  0  0  0  0  0  0  0
  -25.2022    1.0449   27.2092 C   0  0  0  0  0  0  0  0  0  0  0  0
  -24.4051    1.0984   26.0906 C   0  0  0  0  0  0  0  0  0  0  0  0
  -23.2925    1.9145   25.9934 C   0  0  0  0  0  0  0  0  0  0  0  0
  -22.8553    2.5958   27.1448 C   0  0  0  0  0  0  0  0  0  0  0  0
  3  4  1  0
  2  5  1  0
  4  9  2  3
  9 10  1  0
 10 11  2  3
 11 12  1  0
  1  2  2  0
  2  6  1  0
  6  7  2  0
  7  8  1  0
  8  3  2  0
  3  1  1  0
M  END

$$$$
