No_1434-gen_results/8p0m/2024-11-26-14-13-15/
     RDKit          3D

 27 28  0  0  0  0  0  0  0  0999 V2000
  -28.0727   -1.2542   28.5316 F   0  0  0  0  0  0  0  0  0  0  0  0
  -27.0607   -0.6291   28.8721 C   0  0  0  0  0  0  0  0  0  0  0  0
  -26.4722   -0.5474   28.0086 F   0  0  0  0  0  0  0  0  0  0  0  0
  -26.4368   -1.4050   29.8552 F   0  0  0  0  0  0  0  0  0  0  0  0
  -27.3897    0.6485   29.6104 C   0  0  0  0  0  0  0  0  0  0  0  0
  -27.0466    1.5863   29.4456 N   0  0  0  0  0  0  0  0  0  0  0  0
  -27.1322    2.3960   28.3279 C   0  0  0  0  0  0  0  0  0  0  0  0
  -26.3527    3.5592   28.2426 C   0  0  0  0  0  0  0  0  0  0  0  0
  -25.2071    3.8522   27.8695 C   0  0  0  0  0  0  0  0  0  0  0  0
  -24.5562    5.1575   27.8089 C   0  0  0  0  0  0  0  0  0  0  0  0
  -25.3359    6.3008   28.1235 C   0  0  0  0  0  0  0  0  0  0  0  0
  -26.5889    6.0795   28.5528 C   0  0  0  0  0  0  0  0  0  0  0  0
  -27.1375    4.8303   28.6283 C   0  0  0  0  0  0  0  0  0  0  0  0
  -24.3315    2.8688   27.4735 O   0  0  0  0  0  0  0  0  0  0  0  0
  -23.9292    2.5129   26.2493 C   0  0  0  0  0  0  0  0  0  0  0  0
  -28.3275    0.4901   30.5837 O   0  0  0  0  0  0  0  0  0  0  0  0
  -24.1111    1.0498   26.0605 C   0  0  0  0  0  0  0  0  0  0  0  0
  -24.9501    0.7091   24.9577 C   0  0  0  0  0  0  0  0  0  0  0  0
  -26.2300    0.2215   25.2525 C   0  0  0  0  0  0  0  0  0  0  0  0
  -27.1910    0.0427   24.2467 C   0  0  0  0  0  0  0  0  0  0  0  0
  -28.4212   -0.5378   24.6643 C   0  0  0  0  0  0  0  0  0  0  0  0
  -29.5444    0.1788   24.8626 C   0  0  0  0  0  0  0  0  0  0  0  0
  -29.4518    1.5199   25.2220 C   0  0  0  0  0  0  0  0  0  0  0  0
  -30.5018    2.1118   26.0096 C   0  0  0  0  0  0  0  0  0  0  0  0
  -31.7288    1.3967   25.9703 C   0  0  0  0  0  0  0  0  0  0  0  0
  -31.8602    0.1326   25.4159 C   0  0  0  0  0  0  0  0  0  0  0  0
  -30.7633   -0.5094   24.9593 C   0  0  0  0  0  0  0  0  0  0  0  0
  1  2  1  0
  2  3  1  0
  2  4  1  0
  2  5  1  0
  5  6  1  0
  6  7  2  3
  7  8  1  0
  9 14  1  0
 14 15  1  0
  5 16  2  0
 15 17  1  0
 17 18  1  0
 18 19  1  0
 19 20  2  3
 20 21  1  0
 21 22  1  0
 22 23  2  0
 23 24  1  0
 24 25  2  0
 25 26  1  0
 26 27  2  0
 27 22  1  0
  8  9  2  0
  9 10  1  0
 10 11  2  0
 11 12  1  0
 12 13  2  0
 13  8  1  0
M  END

$$$$
