No_1071-gen_results/8p0m/2024-11-26-14-13-15/
     RDKit          3D

 25 28  0  0  0  0  0  0  0  0999 V2000
  -28.0162   -0.8135   28.8779 C   0  0  0  0  0  0  0  0  0  0  0  0
  -28.4690   -0.7850   29.8287 C   0  0  0  0  0  0  0  0  0  0  0  0
  -26.5042   -0.7777   28.8766 C   0  0  0  0  0  0  0  0  0  0  0  0
  -25.8103   -0.8531   30.1028 C   0  0  0  0  0  0  0  0  0  0  0  0
  -27.9906   -0.8916   31.2257 C   0  0  0  0  0  0  0  0  0  0  0  0
  -26.6042   -0.8676   31.2652 C   0  0  0  0  0  0  0  0  0  0  0  0
  -24.3894   -0.8049   30.1638 C   0  0  0  0  0  0  0  0  0  0  0  0
  -23.7660   -0.9500   31.0679 C   0  0  0  0  0  0  0  0  0  0  0  0
  -24.4866   -1.0287   32.3849 C   0  0  0  0  0  0  0  0  0  0  0  0
  -25.8375   -0.9259   32.4678 C   0  0  0  0  0  0  0  0  0  0  0  0
  -25.5987   -0.6958   27.4185 Cl  0  0  0  0  0  0  0  0  0  0  0  0
  -30.1040   -0.8568   29.8235 C   0  0  0  0  0  0  0  0  0  0  0  0
  -30.5056   -0.3049   28.9165 O   0  0  0  0  0  0  0  0  0  0  0  0
  -30.7595   -1.3746   30.7419 O   0  0  0  0  0  0  0  0  0  0  0  0
  -31.7866    0.1986   28.7818 C   0  0  0  0  0  0  0  0  0  0  0  0
  -31.9615    1.0977   27.8200 C   0  0  0  0  0  0  0  0  0  0  0  0
  -33.1514    1.5027   27.5257 C   0  0  0  0  0  0  0  0  0  0  0  0
  -30.8734    1.6450   27.0469 C   0  0  0  0  0  0  0  0  0  0  0  0
  -31.0351    2.5644   25.9990 C   0  0  0  0  0  0  0  0  0  0  0  0
  -33.3985    2.5155   26.4420 C   0  0  0  0  0  0  0  0  0  0  0  0
  -32.3421    3.0254   25.7410 C   0  0  0  0  0  0  0  0  0  0  0  0
  -34.7567    3.0052   26.1725 C   0  0  0  0  0  0  0  0  0  0  0  0
  -35.0523    3.5725   25.1294 C   0  0  0  0  0  0  0  0  0  0  0  0
  -33.9238    4.1498   24.2700 C   0  0  0  0  0  0  0  0  0  0  0  0
  -32.5718    3.8946   24.5863 C   0  0  0  0  0  0  0  0  0  0  0  0
  3 11  1  0
  2 12  1  0
 12 13  1  0
 12 14  2  0
 13 15  1  0
 15 16  1  0
  6 10  1  0
 10  9  2  0
  9  8  1  0
  8  7  2  0
  7  4  1  0
 16 17  2  0
 17 20  1  0
 21 19  1  0
 19 18  2  0
 18 16  1  0
 20 21  2  0
 21 25  1  0
 25 24  2  0
 24 23  1  0
 23 22  2  0
 22 20  1  0
  1  2  2  0
  2  5  1  0
  5  6  2  0
  6  4  1  0
  4  3  2  0
  3  1  1  0
M  END

$$$$
