No_1927-gen_results/8p0m/2024-11-26-14-13-15/
     RDKit          3D

 22 24  0  0  0  0  0  0  0  0999 V2000
  -28.0162   -0.8135   28.8779 C   0  0  0  0  0  0  0  0  0  0  0  0
  -28.4690   -0.7850   29.8287 C   0  0  0  0  0  0  0  0  0  0  0  0
  -26.5042   -0.7777   28.8766 C   0  0  0  0  0  0  0  0  0  0  0  0
  -25.8103   -0.8531   30.1028 C   0  0  0  0  0  0  0  0  0  0  0  0
  -27.9906   -0.8916   31.2257 C   0  0  0  0  0  0  0  0  0  0  0  0
  -26.6042   -0.8676   31.2652 C   0  0  0  0  0  0  0  0  0  0  0  0
  -24.3894   -0.8049   30.1638 C   0  0  0  0  0  0  0  0  0  0  0  0
  -23.7660   -0.9500   31.0679 C   0  0  0  0  0  0  0  0  0  0  0  0
  -22.6512   -0.6461   31.4344 C   0  0  0  0  0  0  0  0  0  0  0  0
  -21.7485   -0.3305   30.3721 C   0  0  0  0  0  0  0  0  0  0  0  0
  -22.3144   -0.1125   29.1112 C   0  0  0  0  0  0  0  0  0  0  0  0
  -23.7531   -0.3708   28.9587 C   0  0  0  0  0  0  0  0  0  0  0  0
  -29.9473   -0.7684   29.8291 O   0  0  0  0  0  0  0  0  0  0  0  0
  -30.5760    0.4027   30.1117 C   0  0  0  0  0  0  0  0  0  0  0  0
  -31.5198    0.7496   29.5598 C   0  0  0  0  0  0  0  0  0  0  0  0
  -32.1904   -0.0755   28.6117 C   0  0  0  0  0  0  0  0  0  0  0  0
  -32.1251   -1.2624   28.6555 C   0  0  0  0  0  0  0  0  0  0  0  0
  -32.8773   -2.0287   27.5906 C   0  0  0  0  0  0  0  0  0  0  0  0
  -33.4101   -1.3640   26.5422 C   0  0  0  0  0  0  0  0  0  0  0  0
  -33.4031    0.0075   26.4984 C   0  0  0  0  0  0  0  0  0  0  0  0
  -32.8419    0.6924   27.5115 C   0  0  0  0  0  0  0  0  0  0  0  0
  -25.6297   -0.6816   27.4097 Cl  0  0  0  0  0  0  0  0  0  0  0  0
  4  7  1  0
  2 13  1  0
 13 14  1  0
 14 15  2  3
 15 16  1  0
  3 22  1  0
  1  2  2  0
  2  5  1  0
  5  6  2  0
  6  4  1  0
  4  3  2  0
  3  1  1  0
  7  8  2  0
  8  9  1  0
  9 10  2  0
 10 11  1  0
 11 12  2  0
 12  7  1  0
 16 17  2  0
 17 18  1  0
 18 19  2  0
 19 20  1  0
 20 21  2  0
 21 16  1  0
M  END

$$$$
