No_1677-gen_results/8p0m/2024-11-26-14-13-15/
     RDKit          3D

 24 26  0  0  0  0  0  0  0  0999 V2000
  -28.0162   -0.8135   28.8779 C   0  0  0  0  0  0  0  0  0  0  0  0
  -28.4690   -0.7850   29.8287 C   0  0  0  0  0  0  0  0  0  0  0  0
  -26.5455   -0.8762   28.8500 C   0  0  0  0  0  0  0  0  0  0  0  0
  -25.8041   -1.0324   30.0571 C   0  0  0  0  0  0  0  0  0  0  0  0
  -27.9437   -0.9869   31.2075 C   0  0  0  0  0  0  0  0  0  0  0  0
  -26.5825   -1.0386   31.2231 C   0  0  0  0  0  0  0  0  0  0  0  0
  -30.0606   -0.7371   29.9024 C   0  0  0  0  0  0  0  0  0  0  0  0
  -30.5524   -0.2769   29.0111 O   0  0  0  0  0  0  0  0  0  0  0  0
  -30.7281   -1.6248   30.8070 N   0  0  0  0  0  0  0  0  0  0  0  0
  -32.1405   -1.6790   30.7351 C   0  0  0  0  0  0  0  0  0  0  0  0
  -24.3700   -1.0727   30.0681 C   0  0  0  0  0  0  0  0  0  0  0  0
  -23.7283    0.2057   30.0349 C   0  0  0  0  0  0  0  0  0  0  0  0
  -22.4834    0.3436   29.3418 C   0  0  0  0  0  0  0  0  0  0  0  0
  -21.8193   -0.8991   29.0113 C   0  0  0  0  0  0  0  0  0  0  0  0
  -22.5569   -2.0444   28.9486 C   0  0  0  0  0  0  0  0  0  0  0  0
  -23.8045   -2.1896   29.4804 C   0  0  0  0  0  0  0  0  0  0  0  0
  -32.9074   -0.9851   30.4678 C   0  0  0  0  0  0  0  0  0  0  0  0
  -34.3212   -1.1893   30.4263 C   0  0  0  0  0  0  0  0  0  0  0  0
  -32.5148   -3.0373   31.2264 C   0  0  0  0  0  0  0  0  0  0  0  0
  -33.8754   -3.3301   31.2341 C   0  0  0  0  0  0  0  0  0  0  0  0
  -34.7540   -2.3748   30.8705 C   0  0  0  0  0  0  0  0  0  0  0  0
  -36.0845   -2.6773   30.9309 O   0  0  0  0  0  0  0  0  0  0  0  0
  -36.7174   -3.3721   30.1998 C   0  0  0  0  0  0  0  0  0  0  0  0
  -37.8884   -3.4388   30.2100 C   0  0  0  0  0  0  0  0  0  0  0  0
  2  7  1  0
  7  8  2  0
  7  9  1  0
  9 10  1  0
  4 11  1  0
 21 22  1  0
 22 23  1  0
 23 24  2  0
 11 12  2  0
 12 13  1  0
 13 14  2  0
 14 15  1  0
 15 16  2  0
 16 11  1  0
  1  2  2  0
  2  5  1  0
  5  6  2  0
  6  4  1  0
  4  3  2  0
  3  1  1  0
 10 17  2  0
 17 18  1  0
 18 21  2  0
 21 20  1  0
 20 19  2  0
 19 10  1  0
M  END

$$$$
