No_1072-gen_results/8p0m/2024-11-26-14-13-15/
     RDKit          3D

 30 31  0  0  0  0  0  0  0  0999 V2000
  -28.0162   -0.8135   28.8779 C   0  0  0  0  0  0  0  0  0  0  0  0
  -28.4690   -0.7850   29.8287 C   0  0  0  0  0  0  0  0  0  0  0  0
  -27.0871    0.2903   28.6377 C   0  0  0  0  0  0  0  0  0  0  0  0
  -26.2516    0.4114   27.4223 C   0  0  0  0  0  0  0  0  0  0  0  0
  -28.3913    0.1041   30.9805 C   0  0  0  0  0  0  0  0  0  0  0  0
  -27.5332    1.1666   30.7866 C   0  0  0  0  0  0  0  0  0  0  0  0
  -26.8281    1.2557   29.6454 C   0  0  0  0  0  0  0  0  0  0  0  0
  -25.1382    0.6747   27.2309 C   0  0  0  0  0  0  0  0  0  0  0  0
  -24.3156    0.8664   28.4421 C   0  0  0  0  0  0  0  0  0  0  0  0
  -24.4954    1.5107   29.5562 C   0  0  0  0  0  0  0  0  0  0  0  0
  -25.5259    1.8219   30.0101 C   0  0  0  0  0  0  0  0  0  0  0  0
  -22.8844    0.4468   28.2234 C   0  0  0  0  0  0  0  0  0  0  0  0
  -22.0699    1.2800   27.7468 F   0  0  0  0  0  0  0  0  0  0  0  0
  -22.2874    0.0317   29.4743 F   0  0  0  0  0  0  0  0  0  0  0  0
  -22.7552   -0.6649   27.5167 F   0  0  0  0  0  0  0  0  0  0  0  0
  -27.1011    0.3156   26.1625 C   0  0  0  0  0  0  0  0  0  0  0  0
  -26.5792   -0.0100   25.1167 O   0  0  0  0  0  0  0  0  0  0  0  0
  -28.3050    0.8755   26.0838 N   0  0  0  0  0  0  0  0  0  0  0  0
  -29.1458    0.8623   24.9501 C   0  0  0  0  0  0  0  0  0  0  0  0
  -30.1186   -0.0669   24.8146 C   0  0  0  0  0  0  0  0  0  0  0  0
  -29.7934   -1.1752   24.9584 F   0  0  0  0  0  0  0  0  0  0  0  0
  -31.0791    0.1090   25.8342 F   0  0  0  0  0  0  0  0  0  0  0  0
  -30.8426    0.0259   23.6759 F   0  0  0  0  0  0  0  0  0  0  0  0
  -25.5878    2.7943   30.9276 F   0  0  0  0  0  0  0  0  0  0  0  0
  -29.5890   -1.7522   30.0318 O   0  0  0  0  0  0  0  0  0  0  0  0
  -29.4974   -2.9773   30.6601 C   0  0  0  0  0  0  0  0  0  0  0  0
  -30.2994   -3.9249   30.0494 C   0  0  0  0  0  0  0  0  0  0  0  0
  -31.4456   -3.9078   30.4923 O   0  0  0  0  0  0  0  0  0  0  0  0
  -29.7763   -5.1054   29.7138 O   0  0  0  0  0  0  0  0  0  0  0  0
  -28.4395   -3.1065   31.3931 O   0  0  0  0  0  0  0  0  0  0  0  0
  3  4  1  0
  4  8  2  0
  8  9  1  0
  9 10  2  0
  7 11  1  0
 10 11  1  0
  9 12  1  0
 12 13  1  0
 12 14  1  0
 12 15  1  0
  4 16  1  0
 16 17  2  0
 16 18  1  0
 18 19  1  0
 19 20  1  0
 20 21  1  0
 20 22  1  0
 20 23  1  0
 11 24  1  0
  2 25  1  0
 25 26  1  0
 26 27  1  0
 27 28  2  0
 27 29  1  0
 26 30  2  0
  1  2  2  0
  2  5  1  0
  5  6  2  0
  6  7  1  0
  7  3  2  0
  3  1  1  0
M  END

$$$$
