No_1744-gen_results/8p0m/2024-11-26-14-13-15/
     RDKit          3D

 16 17  0  0  0  0  0  0  0  0999 V2000
  -28.0162   -0.8135   28.8779 C   0  0  0  0  0  0  0  0  0  0  0  0
  -27.0636   -0.1190   28.6079 C   0  0  0  0  0  0  0  0  0  0  0  0
  -25.7923   -0.4302   29.0761 C   0  0  0  0  0  0  0  0  0  0  0  0
  -25.5756   -1.5654   29.9363 C   0  0  0  0  0  0  0  0  0  0  0  0
  -26.7354   -2.3004   30.2173 C   0  0  0  0  0  0  0  0  0  0  0  0
  -27.9184   -1.9537   29.7629 C   0  0  0  0  0  0  0  0  0  0  0  0
  -27.1354    0.9934   27.8754 F   0  0  0  0  0  0  0  0  0  0  0  0
  -29.0659   -2.8011   30.1862 C   0  0  0  0  0  0  0  0  0  0  0  0
  -28.9333   -4.0796   30.4492 N   0  0  0  0  0  0  0  0  0  0  0  0
  -30.2001   -2.2941   30.2818 O   0  0  0  0  0  0  0  0  0  0  0  0
  -29.9910   -5.0131   30.7731 C   0  0  0  0  0  0  0  0  0  0  0  0
  -29.8379   -5.6502   31.9406 C   0  0  0  0  0  0  0  0  0  0  0  0
  -30.5432   -6.8953   32.1027 C   0  0  0  0  0  0  0  0  0  0  0  0
  -31.4888   -7.2820   31.1320 C   0  0  0  0  0  0  0  0  0  0  0  0
  -31.5868   -6.5071   29.9581 C   0  0  0  0  0  0  0  0  0  0  0  0
  -30.6982   -5.4188   29.7453 C   0  0  0  0  0  0  0  0  0  0  0  0
  2  7  1  0
  6  8  1  0
  8  9  1  0
  8 10  2  0
  9 11  1  0
 11 12  2  0
 12 13  1  0
 13 14  2  0
 14 15  1  0
 15 16  2  0
 16 11  1  0
  1  2  2  0
  2  3  1  0
  3  4  2  0
  4  5  1  0
  5  6  2  0
  6  1  1  0
M  END

$$$$
