No_1293-gen_results/8p0m/2024-11-26-14-13-15/
     RDKit          3D

 13 13  0  0  0  0  0  0  0  0999 V2000
  -28.0162   -0.8135   28.8779 C   0  0  0  0  0  0  0  0  0  0  0  0
  -28.4690   -0.7850   29.8287 C   0  0  0  0  0  0  0  0  0  0  0  0
  -26.5455   -0.8762   28.8500 C   0  0  0  0  0  0  0  0  0  0  0  0
  -25.6825   -0.7773   27.6829 C   0  0  0  0  0  0  0  0  0  0  0  0
  -27.9181   -1.0034   31.1877 C   0  0  0  0  0  0  0  0  0  0  0  0
  -26.5308   -1.0794   31.2463 C   0  0  0  0  0  0  0  0  0  0  0  0
  -25.7798   -1.0462   30.0905 C   0  0  0  0  0  0  0  0  0  0  0  0
  -25.8976    0.2387   26.7449 C   0  0  0  0  0  0  0  0  0  0  0  0
  -25.0024    0.4172   25.6959 C   0  0  0  0  0  0  0  0  0  0  0  0
  -27.0304    1.0599   26.8181 C   0  0  0  0  0  0  0  0  0  0  0  0
  -27.3110    1.9122   25.7252 C   0  0  0  0  0  0  0  0  0  0  0  0
  -28.1697    2.9130   26.0276 C   0  0  0  0  0  0  0  0  0  0  0  0
  -28.3361    3.9209   25.0308 C   0  0  0  0  0  0  0  0  0  0  0  0
  3  4  1  0
  4  8  2  3
  8  9  1  0
  8 10  1  0
 10 11  1  0
 11 12  2  3
 12 13  1  0
  1  2  2  0
  2  5  1  0
  5  6  2  0
  6  7  1  0
  7  3  2  0
  3  1  1  0
M  END

$$$$
