No_1079-gen_results/8p0m/2024-11-26-14-13-15/
     RDKit          3D

 12 12  0  0  0  0  0  0  0  0999 V2000
  -28.0162   -0.8135   28.8779 C   0  0  0  0  0  0  0  0  0  0  0  0
  -27.0636   -0.1189   28.6079 C   0  0  0  0  0  0  0  0  0  0  0  0
  -26.8756    1.1325   28.9134 C   0  0  0  0  0  0  0  0  0  0  0  0
  -25.6883    1.9515   28.5672 C   0  0  0  0  0  0  0  0  0  0  0  0
  -24.6394    1.2834   27.8753 C   0  0  0  0  0  0  0  0  0  0  0  0
  -23.4556    1.9996   27.5653 C   0  0  0  0  0  0  0  0  0  0  0  0
  -25.8432   -0.7373   27.9210 C   0  0  0  0  0  0  0  0  0  0  0  0
  -24.6903   -0.0521   27.5832 C   0  0  0  0  0  0  0  0  0  0  0  0
  -22.5238    1.5575   27.3583 F   0  0  0  0  0  0  0  0  0  0  0  0
  -23.2698    3.0428   28.5371 F   0  0  0  0  0  0  0  0  0  0  0  0
  -23.7792    2.8850   26.4818 F   0  0  0  0  0  0  0  0  0  0  0  0
  -29.2121   -0.3798   28.7688 O   0  0  0  0  0  0  0  0  0  0  0  0
  5  6  1  0
  6  9  1  0
  6 10  1  0
  6 11  1  0
  1 12  2  0
  1  2  1  0
  2  3  2  0
  3  4  1  0
  4  5  2  0
  5  8  1  0
  8  7  2  0
  7  2  1  0
M  END

$$$$
