No_1224-gen_results/8p0m/2024-11-26-14-13-15/
     RDKit          3D

 29 31  0  0  0  0  0  0  0  0999 V2000
  -28.1229   -1.3353   28.4874 O   0  0  0  0  0  0  0  0  0  0  0  0
  -27.0637   -0.8242   28.8687 C   0  0  0  0  0  0  0  0  0  0  0  0
  -26.4017   -0.0623   28.6224 C   0  0  0  0  0  0  0  0  0  0  0  0
  -26.2652   -1.8674   29.7609 N   0  0  0  0  0  0  0  0  0  0  0  0
  -26.8442    1.1343   27.8798 C   0  0  0  0  0  0  0  0  0  0  0  0
  -26.6915   -3.0657   30.1340 C   0  0  0  0  0  0  0  0  0  0  0  0
  -25.1977    0.4601   29.4503 C   0  0  0  0  0  0  0  0  0  0  0  0
  -24.4614    1.5974   29.1797 C   0  0  0  0  0  0  0  0  0  0  0  0
  -24.9364    2.5924   28.3485 C   0  0  0  0  0  0  0  0  0  0  0  0
  -26.1103    2.3166   27.5990 C   0  0  0  0  0  0  0  0  0  0  0  0
  -25.0196   -1.5758   30.3187 C   0  0  0  0  0  0  0  0  0  0  0  0
  -24.4760   -0.4836   30.2089 C   0  0  0  0  0  0  0  0  0  0  0  0
  -28.0274    0.9454   27.0075 C   0  0  0  0  0  0  0  0  0  0  0  0
  -29.0500    1.1988   27.4027 O   0  0  0  0  0  0  0  0  0  0  0  0
  -27.8463    0.3880   25.8481 O   0  0  0  0  0  0  0  0  0  0  0  0
  -26.1016   -4.0450   29.5567 F   0  0  0  0  0  0  0  0  0  0  0  0
  -28.1784   -3.2074   29.7105 N   0  0  0  0  0  0  0  0  0  0  0  0
  -28.8586   -4.2101   30.4512 C   0  0  0  0  0  0  0  0  0  0  0  0
  -28.2326   -5.2121   31.7950 Br  0  0  0  0  0  0  0  0  0  0  0  0
  -30.2247   -4.4477   29.9738 C   0  0  0  0  0  0  0  0  0  0  0  0
  -30.9448   -3.6303   29.7400 O   0  0  0  0  0  0  0  0  0  0  0  0
  -30.5378   -5.8288   29.7466 N   0  0  0  0  0  0  0  0  0  0  0  0
  -31.7414   -6.2436   29.1665 C   0  0  0  0  0  0  0  0  0  0  0  0
  -32.6333   -6.4566   29.9395 C   0  0  0  0  0  0  0  0  0  0  0  0
  -33.9390   -6.7735   29.4145 C   0  0  0  0  0  0  0  0  0  0  0  0
  -34.0677   -6.9127   28.0026 C   0  0  0  0  0  0  0  0  0  0  0  0
  -32.9909   -6.6191   27.1672 C   0  0  0  0  0  0  0  0  0  0  0  0
  -31.7188   -6.2146   27.7267 C   0  0  0  0  0  0  0  0  0  0  0  0
  -30.7124   -5.9345   26.9949 F   0  0  0  0  0  0  0  0  0  0  0  0
  1  2  2  0
  2  3  1  0
  2  4  1  0
  4  6  1  0
  4 11  1  0
  7 12  1  0
  5 13  1  0
 13 14  2  0
 13 15  1  0
  6 16  1  0
  6 17  1  0
 17 18  1  0
 18 19  1  0
 18 20  1  0
 20 21  2  0
 20 22  1  0
 22 23  1  0
 28 29  1  0
 12 11  1  0
  3  5  2  0
  5 10  1  0
 10  9  2  0
  9  8  1  0
  8  7  2  0
  7  3  1  0
 23 24  2  0
 24 25  1  0
 25 26  2  0
 26 27  1  0
 27 28  2  0
 28 23  1  0
M  END

$$$$
