No_1554-gen_results/8p0m/2024-11-26-14-13-15/
     RDKit          3D

 35 38  0  0  0  0  0  0  0  0999 V2000
  -28.0162   -0.8135   28.8779 C   0  0  0  0  0  0  0  0  0  0  0  0
  -27.0636   -0.1190   28.6079 C   0  0  0  0  0  0  0  0  0  0  0  0
  -26.9287    1.1713   29.0083 C   0  0  0  0  0  0  0  0  0  0  0  0
  -25.7702    2.0341   28.6884 C   0  0  0  0  0  0  0  0  0  0  0  0
  -24.7141    1.4431   27.9188 C   0  0  0  0  0  0  0  0  0  0  0  0
  -24.8590    0.0783   27.5836 C   0  0  0  0  0  0  0  0  0  0  0  0
  -25.9647   -0.6606   27.9164 C   0  0  0  0  0  0  0  0  0  0  0  0
  -27.9821   -1.6367   30.0748 N   0  0  0  0  0  0  0  0  0  0  0  0
  -29.2163   -0.4132   28.6627 O   0  0  0  0  0  0  0  0  0  0  0  0
  -29.0156   -2.4825   30.5856 C   0  0  0  0  0  0  0  0  0  0  0  0
  -23.5339    2.1607   27.5674 C   0  0  0  0  0  0  0  0  0  0  0  0
  -22.2486    1.6915   27.5195 C   0  0  0  0  0  0  0  0  0  0  0  0
  -23.5574    3.4337   28.0413 C   0  0  0  0  0  0  0  0  0  0  0  0
  -26.6979   -2.4535   30.1481 C   0  0  0  0  0  0  0  0  0  0  0  0
  -29.5953   -1.9837   31.6958 C   0  0  0  0  0  0  0  0  0  0  0  0
  -30.6636   -1.7370   31.9341 C   0  0  0  0  0  0  0  0  0  0  0  0
  -31.6477   -1.8981   30.8436 C   0  0  0  0  0  0  0  0  0  0  0  0
  -31.3855   -2.8665   29.9560 C   0  0  0  0  0  0  0  0  0  0  0  0
  -28.4748   -3.7745   30.6571 F   0  0  0  0  0  0  0  0  0  0  0  0
  -32.2562   -3.2311   28.8953 C   0  0  0  0  0  0  0  0  0  0  0  0
  -30.0062   -3.1938   29.7731 C   0  0  0  0  0  0  0  0  0  0  0  0
  -32.4564   -4.3415   28.6923 O   0  0  0  0  0  0  0  0  0  0  0  0
  -32.5531   -2.3382   27.8361 O   0  0  0  0  0  0  0  0  0  0  0  0
  -29.7475   -4.1328   28.8937 O   0  0  0  0  0  0  0  0  0  0  0  0
  -24.7076    4.0041   28.1957 N   0  0  0  0  0  0  0  0  0  0  0  0
  -25.7802    3.3644   28.6479 C   0  0  0  0  0  0  0  0  0  0  0  0
  -26.8335    4.1423   29.0600 N   0  0  0  0  0  0  0  0  0  0  0  0
  -27.8931    4.3689   28.2248 C   0  0  0  0  0  0  0  0  0  0  0  0
  -26.9466    4.5489   30.4390 C   0  0  0  0  0  0  0  0  0  0  0  0
  -28.0103    4.5790   30.9812 C   0  0  0  0  0  0  0  0  0  0  0  0
  -28.1203    4.7868   32.3787 C   0  0  0  0  0  0  0  0  0  0  0  0
  -26.9633    5.1017   33.1332 C   0  0  0  0  0  0  0  0  0  0  0  0
  -25.6917    5.0776   32.4728 C   0  0  0  0  0  0  0  0  0  0  0  0
  -25.6543    4.7828   31.1862 C   0  0  0  0  0  0  0  0  0  0  0  0
  -27.7980    4.7900   27.0799 C   0  0  0  0  0  0  0  0  0  0  0  0
  1  2  1  0
  1  8  1  0
  1  9  2  0
  8 10  1  0
 11 12  1  0
  8 14  1  0
 10 15  1  0
 15 16  2  0
 16 17  1  0
 17 18  2  0
 10 19  1  0
 18 20  1  0
 10 21  1  0
 18 21  1  0
 20 22  2  0
 20 23  1  0
 21 24  1  0
 26 27  1  0
 27 28  1  0
 27 29  1  0
 28 35  2  0
 29 30  2  0
 30 31  1  0
 31 32  2  0
 32 33  1  0
 33 34  2  0
 34 29  1  0
  2  3  2  0
  3  4  1  0
  5  6  1  0
  6  7  2  0
  7  2  1  0
  4  5  2  0
  5 11  1  0
 11 13  2  0
 13 25  1  0
 25 26  2  0
 26  4  1  0
M  END

$$$$
