No_1380-gen_results/8p0m/2024-11-26-14-13-15/
     RDKit          3D

 35 37  0  0  0  0  0  0  0  0999 V2000
  -28.0162   -0.8135   28.8779 C   0  0  0  0  0  0  0  0  0  0  0  0
  -27.0636   -0.1190   28.6079 C   0  0  0  0  0  0  0  0  0  0  0  0
  -25.7647   -0.3897   29.0360 C   0  0  0  0  0  0  0  0  0  0  0  0
  -25.5296   -1.5302   29.9014 C   0  0  0  0  0  0  0  0  0  0  0  0
  -26.6888   -2.2893   30.1810 C   0  0  0  0  0  0  0  0  0  0  0  0
  -27.8727   -1.9508   29.7373 C   0  0  0  0  0  0  0  0  0  0  0  0
  -24.5491    0.4100   28.7341 C   0  0  0  0  0  0  0  0  0  0  0  0
  -24.0931    1.3779   29.5761 C   0  0  0  0  0  0  0  0  0  0  0  0
  -22.7272    2.2872   29.2471 P   0  0  0  0  0  0  0  0  0  0  0  0
  -21.6133    1.6527   28.8323 O   0  0  0  0  0  0  0  0  0  0  0  0
  -22.4987    3.0647   30.2288 O   0  0  0  0  0  0  0  0  0  0  0  0
  -23.4488    3.1173   28.0167 O   0  0  0  0  0  0  0  0  0  0  0  0
  -24.0160    4.0996   28.2380 F   0  0  0  0  0  0  0  0  0  0  0  0
  -28.9709   -2.7250   30.0961 O   0  0  0  0  0  0  0  0  0  0  0  0
  -28.8461   -3.9518   30.6947 C   0  0  0  0  0  0  0  0  0  0  0  0
  -28.9739   -4.9964   29.8159 C   0  0  0  0  0  0  0  0  0  0  0  0
  -30.3733   -5.1007   29.4560 C   0  0  0  0  0  0  0  0  0  0  0  0
  -31.1498   -5.5325   29.9618 C   0  0  0  0  0  0  0  0  0  0  0  0
  -31.0085   -6.0221   31.3313 C   0  0  0  0  0  0  0  0  0  0  0  0
  -30.3246   -5.2233   32.3348 C   0  0  0  0  0  0  0  0  0  0  0  0
  -29.8538   -4.0412   31.9071 C   0  0  0  0  0  0  0  0  0  0  0  0
  -29.9846   -2.9822   32.5501 F   0  0  0  0  0  0  0  0  0  0  0  0
  -27.1930    1.0894   27.6774 C   0  0  0  0  0  0  0  0  0  0  0  0
  -27.9149    1.0207   26.5809 C   0  0  0  0  0  0  0  0  0  0  0  0
  -28.0066    2.1265   25.7531 C   0  0  0  0  0  0  0  0  0  0  0  0
  -27.6150    3.0452   26.0147 C   0  0  0  0  0  0  0  0  0  0  0  0
  -26.7596    3.4035   27.1770 C   0  0  0  0  0  0  0  0  0  0  0  0
  -26.5840    2.3583   28.0073 C   0  0  0  0  0  0  0  0  0  0  0  0
  -27.6769   -4.1324   31.4657 O   0  0  0  0  0  0  0  0  0  0  0  0
  -29.4407   -5.9583   33.1445 N   0  0  0  0  0  0  0  0  0  0  0  0
  -29.9268   -7.1633   33.7220 C   0  0  0  0  0  0  0  0  0  0  0  0
  -28.8211   -7.8608   34.3213 C   0  0  0  0  0  0  0  0  0  0  0  0
  -28.6278   -9.1539   33.9933 C   0  0  0  0  0  0  0  0  0  0  0  0
  -29.5175   -9.7404   33.0965 C   0  0  0  0  0  0  0  0  0  0  0  0
  -30.5844   -9.0559   32.5344 C   0  0  0  0  0  0  0  0  0  0  0  0
  3  7  1  0
  7  8  1  0
  8  9  1  0
  9 10  2  0
  9 11  1  0
  9 12  1  0
 12 13  1  0
  6 14  1  0
 14 15  1  0
 15 16  1  0
 16 17  1  0
 17 18  2  0
 18 19  1  0
 19 20  2  0
 15 21  1  0
 20 21  1  0
 21 22  1  0
  2 23  1  0
 15 29  1  0
 20 30  1  0
 30 31  2  3
 31 32  1  0
 32 33  2  3
 33 34  1  0
 34 35  2  0
  1  2  2  0
  2  3  1  0
  3  4  2  0
  4  5  1  0
  5  6  2  0
  6  1  1  0
 23 24  2  0
 24 25  1  0
 25 26  2  0
 26 27  1  0
 27 28  2  0
 28 23  1  0
M  END

$$$$
