No_1642-gen_results/8p0m/2024-11-26-14-13-15/
     RDKit          3D

  6  5  0  0  0  0  0  0  0  0999 V2000
  -28.0162   -0.8135   28.8779 C   0  0  0  0  0  0  0  0  0  0  0  0
  -27.0636   -0.1189   28.6079 C   0  0  0  0  0  0  0  0  0  0  0  0
  -27.0010    0.6913   27.4910 C   0  0  0  0  0  0  0  0  0  0  0  0
  -27.9685   -1.6045   30.1257 C   0  0  0  0  0  0  0  0  0  0  0  0
  -26.7302   -1.8813   30.7074 C   0  0  0  0  0  0  0  0  0  0  0  0
  -25.5837   -1.2729   30.2513 C   0  0  0  0  0  0  0  0  0  0  0  0
  1  2  1  0
  2  3  3  0
  1  4  1  0
  4  5  2  3
  5  6  1  0
M  END

$$$$
