No_1707-gen_results/8p0m/2024-11-26-14-13-15/
     RDKit          3D

  7  6  0  0  0  0  0  0  0  0999 V2000
  -28.0544   -1.0498   28.7246 N   0  0  0  0  0  0  0  0  0  0  0  0
  -27.7460   -0.0733   29.0098 C   0  0  0  0  0  0  0  0  0  0  0  0
  -27.1737    0.7565   28.1070 C   0  0  0  0  0  0  0  0  0  0  0  0
  -26.9667    0.3705   26.7848 C   0  0  0  0  0  0  0  0  0  0  0  0
  -26.3605    1.1964   25.8054 C   0  0  0  0  0  0  0  0  0  0  0  0
  -25.8496    2.4469   26.1842 C   0  0  0  0  0  0  0  0  0  0  0  0
  -25.9731    2.9022   27.4884 C   0  0  0  0  0  0  0  0  0  0  0  0
  1  2  1  0
  2  3  2  3
  3  4  1  0
  4  5  1  0
  5  6  2  3
  6  7  1  0
M  END

$$$$
