No_194-gen_results/8p0m/2024-11-26-14-13-15/
     RDKit          3D

 19 20  0  0  0  0  0  0  0  0999 V2000
  -28.0162   -0.8135   28.8779 C   0  0  0  0  0  0  0  0  0  0  0  0
  -27.0636   -0.1189   28.6079 C   0  0  0  0  0  0  0  0  0  0  0  0
  -26.9287    1.1713   29.0083 C   0  0  0  0  0  0  0  0  0  0  0  0
  -25.7702    2.0341   28.6884 C   0  0  0  0  0  0  0  0  0  0  0  0
  -24.7141    1.4431   27.9188 C   0  0  0  0  0  0  0  0  0  0  0  0
  -24.8590    0.0783   27.5836 C   0  0  0  0  0  0  0  0  0  0  0  0
  -25.9647   -0.6606   27.9164 C   0  0  0  0  0  0  0  0  0  0  0  0
  -27.9821   -1.6367   30.0748 N   0  0  0  0  0  0  0  0  0  0  0  0
  -29.1950   -0.6035   28.4621 O   0  0  0  0  0  0  0  0  0  0  0  0
  -29.0495   -2.5038   30.5225 C   0  0  0  0  0  0  0  0  0  0  0  0
  -26.6889   -1.8860   30.7613 C   0  0  0  0  0  0  0  0  0  0  0  0
  -23.5137    2.1536   27.5449 C   0  0  0  0  0  0  0  0  0  0  0  0
  -22.4324    1.7032   27.1484 N   0  0  0  0  0  0  0  0  0  0  0  0
  -23.5124    3.4363   27.8570 O   0  0  0  0  0  0  0  0  0  0  0  0
  -28.8682   -3.8323   30.2753 C   0  0  0  0  0  0  0  0  0  0  0  0
  -30.0612   -4.6373   30.0533 C   0  0  0  0  0  0  0  0  0  0  0  0
  -31.2053   -4.0053   29.8514 C   0  0  0  0  0  0  0  0  0  0  0  0
  -31.3472   -2.6462   30.0823 C   0  0  0  0  0  0  0  0  0  0  0  0
  -30.1097   -1.8353   29.8279 C   0  0  0  0  0  0  0  0  0  0  0  0
  1  2  1  0
  1  8  1  0
  1  9  2  0
  8 10  1  0
  8 11  1  0
  5 12  1  0
 12 13  2  0
 12 14  1  0
  2  3  2  0
  3  4  1  0
  4  5  2  0
  5  6  1  0
  6  7  2  0
  7  2  1  0
 10 15  2  0
 15 16  1  0
 16 17  2  0
 17 18  1  0
 18 19  2  0
 19 10  1  0
M  END

$$$$
