No_1636-gen_results/8p0m/2024-11-26-14-13-15/
     RDKit          3D

 26 28  0  0  0  0  0  0  0  0999 V2000
  -28.1229   -1.3353   28.4874 O   0  0  0  0  0  0  0  0  0  0  0  0
  -27.4806   -0.4044   28.7094 C   0  0  0  0  0  0  0  0  0  0  0  0
  -26.3804   -0.0867   27.9394 C   0  0  0  0  0  0  0  0  0  0  0  0
  -27.6664    0.4468   29.8988 N   0  0  0  0  0  0  0  0  0  0  0  0
  -25.1773   -0.4388   28.3946 C   0  0  0  0  0  0  0  0  0  0  0  0
  -26.5259    0.6036   26.6867 C   0  0  0  0  0  0  0  0  0  0  0  0
  -24.8099   -1.1180   29.5646 C   0  0  0  0  0  0  0  0  0  0  0  0
  -26.9560    1.5703   30.2630 C   0  0  0  0  0  0  0  0  0  0  0  0
  -26.9574    1.7767   31.4608 C   0  0  0  0  0  0  0  0  0  0  0  0
  -23.5530   -1.5597   29.8834 C   0  0  0  0  0  0  0  0  0  0  0  0
  -22.5089   -1.0601   29.0780 C   0  0  0  0  0  0  0  0  0  0  0  0
  -22.6783   -0.1146   28.0825 C   0  0  0  0  0  0  0  0  0  0  0  0
  -23.9886    0.1357   27.6956 C   0  0  0  0  0  0  0  0  0  0  0  0
  -26.1759    2.9153   31.9961 C   0  0  0  0  0  0  0  0  0  0  0  0
  -25.4739    3.7599   31.0858 C   0  0  0  0  0  0  0  0  0  0  0  0
  -25.4908    3.3946   29.7472 C   0  0  0  0  0  0  0  0  0  0  0  0
  -26.1950    2.2978   29.3474 C   0  0  0  0  0  0  0  0  0  0  0  0
  -27.2459    0.1350   25.7056 C   0  0  0  0  0  0  0  0  0  0  0  0
  -27.4143    0.8732   24.5047 C   0  0  0  0  0  0  0  0  0  0  0  0
  -28.4144    0.5610   23.6492 C   0  0  0  0  0  0  0  0  0  0  0  0
  -29.2962   -0.5092   24.0273 C   0  0  0  0  0  0  0  0  0  0  0  0
  -30.3010   -0.9214   23.2399 C   0  0  0  0  0  0  0  0  0  0  0  0
  -31.5127   -1.1394   23.9594 C   0  0  0  0  0  0  0  0  0  0  0  0
  -31.6174   -1.6363   25.2766 C   0  0  0  0  0  0  0  0  0  0  0  0
  -30.5232   -1.0841   26.0877 C   0  0  0  0  0  0  0  0  0  0  0  0
  -29.5018   -0.4476   25.5565 C   0  0  0  0  0  0  0  0  0  0  0  0
  1  2  2  0
  2  3  1  0
  2  4  1  0
  3  5  1  0
  3  6  1  0
  4  8  1  0
  6 18  2  3
 18 19  1  0
 19 20  1  0
 20 21  1  0
  5  7  2  0
  7 10  1  0
 10 11  2  0
 11 12  1  0
 12 13  2  0
 13  5  1  0
  8  9  2  0
  9 14  1  0
 14 15  2  0
 15 16  1  0
 16 17  2  0
 17  8  1  0
 21 22  2  0
 22 23  1  0
 23 24  2  0
 24 25  1  0
 25 26  2  0
 26 21  1  0
M  END

$$$$
