No_1792-gen_results/8p0m/2024-11-26-14-13-15/
     RDKit          3D

 35 38  0  0  0  0  0  0  0  0999 V2000
  -28.0162   -0.8135   28.8779 C   0  0  0  0  0  0  0  0  0  0  0  0
  -28.4690   -0.7850   29.8287 C   0  0  0  0  0  0  0  0  0  0  0  0
  -26.5042   -0.7777   28.8766 C   0  0  0  0  0  0  0  0  0  0  0  0
  -25.6540   -0.6597   27.7191 C   0  0  0  0  0  0  0  0  0  0  0  0
  -27.9180   -0.9374   31.1824 C   0  0  0  0  0  0  0  0  0  0  0  0
  -26.5424   -0.9399   31.2606 C   0  0  0  0  0  0  0  0  0  0  0  0
  -25.7832   -0.8935   30.1201 C   0  0  0  0  0  0  0  0  0  0  0  0
  -25.2134    0.6923   27.3830 C   0  0  0  0  0  0  0  0  0  0  0  0
  -23.9202    0.9215   27.7698 C   0  0  0  0  0  0  0  0  0  0  0  0
  -23.2631    2.0064   27.5373 C   0  0  0  0  0  0  0  0  0  0  0  0
  -23.7976    3.0044   26.6905 C   0  0  0  0  0  0  0  0  0  0  0  0
  -25.8362    1.5144   26.4962 C   0  0  0  0  0  0  0  0  0  0  0  0
  -25.1149    2.7198   26.1438 C   0  0  0  0  0  0  0  0  0  0  0  0
  -30.4438   -0.7652   29.8330 Br  0  0  0  0  0  0  0  0  0  0  0  0
  -27.2850    1.2539   25.8251 Cl  0  0  0  0  0  0  0  0  0  0  0  0
  -22.0235    2.3479   27.9943 O   0  0  0  0  0  0  0  0  0  0  0  0
  -21.3485    1.0741   28.2956 C   0  0  0  0  0  0  0  0  0  0  0  0
  -23.3426   -0.0630   28.5573 N   0  0  0  0  0  0  0  0  0  0  0  0
  -21.9211    0.0537   28.8666 C   0  0  0  0  0  0  0  0  0  0  0  0
  -28.6920   -0.9876   32.2986 O   0  0  0  0  0  0  0  0  0  0  0  0
  -29.1074   -2.1141   32.7350 C   0  0  0  0  0  0  0  0  0  0  0  0
  -29.4142   -2.1553   34.0946 C   0  0  0  0  0  0  0  0  0  0  0  0
  -28.7642   -1.5171   34.7973 O   0  0  0  0  0  0  0  0  0  0  0  0
  -28.1562   -1.9560   35.9449 C   0  0  0  0  0  0  0  0  0  0  0  0
  -30.8790   -1.7287   34.2599 C   0  0  0  0  0  0  0  0  0  0  0  0
  -31.2027   -0.4618   34.1193 C   0  0  0  0  0  0  0  0  0  0  0  0
  -30.7084    0.4009   34.4861 C   0  0  0  0  0  0  0  0  0  0  0  0
  -31.0351    1.8795   34.2412 C   0  0  0  0  0  0  0  0  0  0  0  0
  -32.0621    2.0823   33.3674 C   0  0  0  0  0  0  0  0  0  0  0  0
  -32.7378    0.9919   32.8479 C   0  0  0  0  0  0  0  0  0  0  0  0
  -32.3266   -0.2722   33.1534 C   0  0  0  0  0  0  0  0  0  0  0  0
  -28.0187   -1.1182   37.0325 C   0  0  0  0  0  0  0  0  0  0  0  0
  -27.4348   -1.5721   38.0466 C   0  0  0  0  0  0  0  0  0  0  0  0
  -26.8534   -2.8718   38.1257 C   0  0  0  0  0  0  0  0  0  0  0  0
  -26.9230   -3.6675   36.9884 C   0  0  0  0  0  0  0  0  0  0  0  0
  3  4  1  0
  4  8  1  0
  2 14  1  0
 12 15  1  0
 10 16  1  0
 16 17  1  0
  9 18  1  0
 17 19  2  0
 18 19  1  0
  5 20  1  0
 20 21  1  0
 21 22  1  0
 22 23  1  0
 23 24  1  0
 22 25  1  0
 25 26  1  0
 24 32  1  0
 32 33  2  3
 33 34  1  0
 34 35  2  0
 26 27  2  0
 27 28  1  0
 28 29  2  0
 29 30  1  0
 30 31  2  0
 31 26  1  0
  1  2  2  0
  2  5  1  0
  5  6  2  0
  6  7  1  0
  7  3  2  0
  3  1  1  0
  8  9  2  0
  9 10  1  0
 10 11  2  0
 11 13  1  0
 13 12  2  0
 12  8  1  0
M  END

$$$$
