No_1176-gen_results/8p0m/2024-11-26-14-13-15/
     RDKit          3D

 31 34  0  0  0  0  0  0  0  0999 V2000
  -28.0162   -0.8135   28.8779 C   0  0  0  0  0  0  0  0  0  0  0  0
  -28.4690   -0.7850   29.8287 C   0  0  0  0  0  0  0  0  0  0  0  0
  -28.1960    0.3478   28.0550 C   0  0  0  0  0  0  0  0  0  0  0  0
  -27.4421    0.5100   26.7946 C   0  0  0  0  0  0  0  0  0  0  0  0
  -26.1689   -0.0794   26.6787 C   0  0  0  0  0  0  0  0  0  0  0  0
  -25.7312   -0.9607   27.6875 C   0  0  0  0  0  0  0  0  0  0  0  0
  -26.5043   -1.2222   28.7582 C   0  0  0  0  0  0  0  0  0  0  0  0
  -28.3432   -2.0040   30.7789 C   0  0  0  0  0  0  0  0  0  0  0  0
  -27.1022   -2.6901   30.6797 C   0  0  0  0  0  0  0  0  0  0  0  0
  -26.1200   -2.3552   29.6514 C   0  0  0  0  0  0  0  0  0  0  0  0
  -24.7812   -3.2569   29.4112 Cl  0  0  0  0  0  0  0  0  0  0  0  0
  -29.5056    0.9851   27.9945 C   0  0  0  0  0  0  0  0  0  0  0  0
  -29.7416    1.9291   27.1707 O   0  0  0  0  0  0  0  0  0  0  0  0
  -30.3570    0.7181   28.8796 O   0  0  0  0  0  0  0  0  0  0  0  0
  -25.2907    0.2052   25.5797 C   0  0  0  0  0  0  0  0  0  0  0  0
  -24.5352    1.4333   25.5283 C   0  0  0  0  0  0  0  0  0  0  0  0
  -23.7326    1.8131   26.6020 C   0  0  0  0  0  0  0  0  0  0  0  0
  -22.4123    1.5978   26.6736 C   0  0  0  0  0  0  0  0  0  0  0  0
  -21.6738    1.9020   27.9336 C   0  0  0  0  0  0  0  0  0  0  0  0
  -24.3250    2.8137   27.5170 C   0  0  0  0  0  0  0  0  0  0  0  0
  -25.5679    3.3737   27.2765 C   0  0  0  0  0  0  0  0  0  0  0  0
  -22.4395    2.4851   28.9411 C   0  0  0  0  0  0  0  0  0  0  0  0
  -23.6913    3.0299   28.7741 C   0  0  0  0  0  0  0  0  0  0  0  0
  -25.8140    4.4461   26.5221 C   0  0  0  0  0  0  0  0  0  0  0  0
  -26.2518    3.7656   28.7406 C   0  0  0  0  0  0  0  0  0  0  0  0
  -27.5435    4.3444   28.6085 C   0  0  0  0  0  0  0  0  0  0  0  0
  -28.1360    4.5996   29.9046 C   0  0  0  0  0  0  0  0  0  0  0  0
  -29.3132    5.2509   29.9782 C   0  0  0  0  0  0  0  0  0  0  0  0
  -27.5508    3.9682   31.0414 C   0  0  0  0  0  0  0  0  0  0  0  0
  -26.3925    3.2236   31.0460 C   0  0  0  0  0  0  0  0  0  0  0  0
  -25.7593    3.1352   29.8714 C   0  0  0  0  0  0  0  0  0  0  0  0
 10 11  1  0
  3 12  1  0
 12 13  2  0
 12 14  1  0
  5 15  1  0
 15 16  1  0
 16 17  1  0
 20 21  1  0
 21 24  1  0
 21 25  1  0
 28 27  1  0
 25 26  2  0
 26 27  1  0
 27 29  2  0
 29 30  1  0
 30 31  2  0
 31 25  1  0
  1  2  2  0
  2  8  1  0
  8  9  2  0
  9 10  1  0
 10  7  2  0
 17 18  2  0
 18 19  1  0
 19 22  2  0
 22 23  1  0
 23 20  2  0
 20 17  1  0
  1  3  1  0
  3  4  2  0
  4  5  1  0
  5  6  2  0
  6  7  1  0
  7  1  1  0
M  END

$$$$
