No_1164-gen_results/8p0m/2024-11-26-14-13-15/
     RDKit          3D

 20 22  0  0  0  0  0  0  0  0999 V2000
  -28.0162   -0.8135   28.8779 C   0  0  0  0  0  0  0  0  0  0  0  0
  -28.4690   -0.7850   29.8287 C   0  0  0  0  0  0  0  0  0  0  0  0
  -26.5455   -0.8762   28.8500 C   0  0  0  0  0  0  0  0  0  0  0  0
  -25.8041   -1.0324   30.0571 C   0  0  0  0  0  0  0  0  0  0  0  0
  -27.9437   -0.9869   31.2075 C   0  0  0  0  0  0  0  0  0  0  0  0
  -26.5825   -1.0386   31.2231 C   0  0  0  0  0  0  0  0  0  0  0  0
  -30.0606   -0.7371   29.9024 C   0  0  0  0  0  0  0  0  0  0  0  0
  -30.7252   -1.5544   30.2697 O   0  0  0  0  0  0  0  0  0  0  0  0
  -30.5286    0.5506   29.7350 N   0  0  0  0  0  0  0  0  0  0  0  0
  -31.9373    0.7368   29.6672 C   0  0  0  0  0  0  0  0  0  0  0  0
  -29.6946    1.6909   29.3805 C   0  0  0  0  0  0  0  0  0  0  0  0
  -29.9003    2.1374   28.2573 C   0  0  0  0  0  0  0  0  0  0  0  0
  -32.2517    1.5147   28.4723 C   0  0  0  0  0  0  0  0  0  0  0  0
  -33.6503    1.7091   28.2061 C   0  0  0  0  0  0  0  0  0  0  0  0
  -31.2829    2.2935   27.8361 C   0  0  0  0  0  0  0  0  0  0  0  0
  -34.5412    1.4653   29.0076 C   0  0  0  0  0  0  0  0  0  0  0  0
  -35.9657    1.5484   28.6881 C   0  0  0  0  0  0  0  0  0  0  0  0
  -34.0219    1.4885   26.8832 C   0  0  0  0  0  0  0  0  0  0  0  0
  -35.3304    1.5792   26.4260 C   0  0  0  0  0  0  0  0  0  0  0  0
  -36.3001    1.5802   27.4049 C   0  0  0  0  0  0  0  0  0  0  0  0
  2  7  1  0
  7  8  1  0
  7  9  1  0
  9 10  1  0
  9 11  1  0
 13 14  1  0
 12 15  1  0
 13 15  1  0
 10 13  1  0
 12 11  1  0
  1  2  2  0
  2  5  1  0
  5  6  2  0
  6  4  1  0
  4  3  2  0
  3  1  1  0
 14 16  2  0
 16 17  1  0
 17 20  2  0
 20 19  1  0
 19 18  2  0
 18 14  1  0
M  END

$$$$
