No_1234-gen_results/8p0m/2024-11-26-14-13-15/
     RDKit          3D

 10 10  0  0  0  0  0  0  0  0999 V2000
  -28.0162   -0.8135   28.8779 C   0  0  0  0  0  0  0  0  0  0  0  0
  -27.0636   -0.1190   28.6079 C   0  0  0  0  0  0  0  0  0  0  0  0
  -25.7923   -0.4302   29.0761 C   0  0  0  0  0  0  0  0  0  0  0  0
  -25.5756   -1.5654   29.9363 C   0  0  0  0  0  0  0  0  0  0  0  0
  -26.7354   -2.3004   30.2173 C   0  0  0  0  0  0  0  0  0  0  0  0
  -27.9184   -1.9537   29.7629 C   0  0  0  0  0  0  0  0  0  0  0  0
  -27.1463    1.2916   27.6407 Cl  0  0  0  0  0  0  0  0  0  0  0  0
  -29.0683   -2.7883   30.1813 C   0  0  0  0  0  0  0  0  0  0  0  0
  -30.1058   -2.4376   29.9921 O   0  0  0  0  0  0  0  0  0  0  0  0
  -28.8030   -3.9112   30.8167 O   0  0  0  0  0  0  0  0  0  0  0  0
  2  7  1  0
  6  8  1  0
  8  9  1  0
  8 10  2  0
  1  2  2  0
  2  3  1  0
  3  4  2  0
  4  5  1  0
  5  6  2  0
  6  1  1  0
M  END

$$$$
