No_1874-gen_results/8p0m/2024-11-26-14-13-15/
     RDKit          3D

 34 37  0  0  0  0  0  0  0  0999 V2000
  -28.0162   -0.8135   28.8779 C   0  0  0  0  0  0  0  0  0  0  0  0
  -28.4690   -0.7850   29.8287 C   0  0  0  0  0  0  0  0  0  0  0  0
  -28.1960    0.3478   28.0550 C   0  0  0  0  0  0  0  0  0  0  0  0
  -29.0191    1.3501   28.3782 C   0  0  0  0  0  0  0  0  0  0  0  0
  -29.4107    0.1803   30.3782 C   0  0  0  0  0  0  0  0  0  0  0  0
  -29.6059    1.2495   29.6193 C   0  0  0  0  0  0  0  0  0  0  0  0
  -27.5426    0.5225   26.6829 C   0  0  0  0  0  0  0  0  0  0  0  0
  -26.1273    0.4463   26.7062 C   0  0  0  0  0  0  0  0  0  0  0  0
  -25.3758    0.9284   25.6757 C   0  0  0  0  0  0  0  0  0  0  0  0
  -23.9823    0.9392   25.7555 C   0  0  0  0  0  0  0  0  0  0  0  0
  -23.3195    0.7725   26.9821 C   0  0  0  0  0  0  0  0  0  0  0  0
  -24.1219    0.4278   28.0985 C   0  0  0  0  0  0  0  0  0  0  0  0
  -25.4742    0.3066   27.9922 C   0  0  0  0  0  0  0  0  0  0  0  0
  -28.1081   -0.4777   25.6783 C   0  0  0  0  0  0  0  0  0  0  0  0
  -27.9777    1.9346   26.1695 C   0  0  0  0  0  0  0  0  0  0  0  0
  -28.7587    0.0746   24.5092 C   0  0  0  0  0  0  0  0  0  0  0  0
  -29.2323    1.1532   24.6037 C   0  0  0  0  0  0  0  0  0  0  0  0
  -28.7606    2.2356   25.1749 C   0  0  0  0  0  0  0  0  0  0  0  0
  -23.4004    0.2121   29.3964 C   0  0  0  0  0  0  0  0  0  0  0  0
  -24.0094    0.5170   30.4919 C   0  0  0  0  0  0  0  0  0  0  0  0
  -24.2544    1.8612   30.8989 C   0  0  0  0  0  0  0  0  0  0  0  0
  -24.9708    2.1960   32.1013 C   0  0  0  0  0  0  0  0  0  0  0  0
  -25.4407    1.1421   32.8858 C   0  0  0  0  0  0  0  0  0  0  0  0
  -24.6361   -0.4487   31.3694 C   0  0  0  0  0  0  0  0  0  0  0  0
  -25.2852   -0.1615   32.5264 C   0  0  0  0  0  0  0  0  0  0  0  0
  -22.0774   -0.3110   29.4062 C   0  0  0  0  0  0  0  0  0  0  0  0
  -25.1196    3.6233   32.5149 C   0  0  0  0  0  0  0  0  0  0  0  0
  -24.4077    4.4616   32.0217 O   0  0  0  0  0  0  0  0  0  0  0  0
  -25.7909    3.8829   33.5747 O   0  0  0  0  0  0  0  0  0  0  0  0
  -28.2907   -2.0422   30.8330 C   0  0  0  0  0  0  0  0  0  0  0  0
  -28.7021   -2.0376   31.8960 O   0  0  0  0  0  0  0  0  0  0  0  0
  -27.6057   -3.0056   30.2865 O   0  0  0  0  0  0  0  0  0  0  0  0
  -24.4769   -1.7299   30.9653 O   0  0  0  0  0  0  0  0  0  0  0  0
  -27.7553    2.9635   27.1711 N   0  0  0  0  0  0  0  0  0  0  0  0
  3  7  1  0
  7  8  1  0
  7 14  1  0
  7 15  1  0
 16 17  1  0
 12 19  1  0
 19 20  1  0
 19 26  1  0
 22 27  1  0
 27 28  2  0
 27 29  1  0
  2 30  1  0
 30 31  2  0
 30 32  1  0
 24 33  1  0
 15 34  1  0
 14 16  1  0
 17 18  1  0
 18 15  1  0
 20 21  2  0
 21 22  1  0
 22 23  2  0
 23 25  1  0
 25 24  2  0
 24 20  1  0
  8  9  2  0
  9 10  1  0
 10 11  2  0
 11 12  1  0
 12 13  2  0
 13  8  1  0
  1  2  2  0
  2  5  1  0
  5  6  2  0
  6  4  1  0
  4  3  2  0
  3  1  1  0
M  END

$$$$
