No_196-gen_results/8p0m/2024-11-26-14-13-15/
     RDKit          3D

 35 38  0  0  0  0  0  0  0  0999 V2000
  -28.0162   -0.8135   28.8779 C   0  0  0  0  0  0  0  0  0  0  0  0
  -27.0636   -0.1189   28.6079 C   0  0  0  0  0  0  0  0  0  0  0  0
  -25.7647   -0.3897   29.0360 C   0  0  0  0  0  0  0  0  0  0  0  0
  -24.5517    0.4058   28.7646 C   0  0  0  0  0  0  0  0  0  0  0  0
  -24.6957    1.4480   27.7988 C   0  0  0  0  0  0  0  0  0  0  0  0
  -26.0010    1.6784   27.2965 C   0  0  0  0  0  0  0  0  0  0  0  0
  -27.0736    0.9682   27.6500 C   0  0  0  0  0  0  0  0  0  0  0  0
  -28.6416   -0.4618   30.2155 C   0  0  0  0  0  0  0  0  0  0  0  0
  -29.7677   -1.2518   30.6953 C   0  0  0  0  0  0  0  0  0  0  0  0
  -23.5034    2.1858   27.4595 C   0  0  0  0  0  0  0  0  0  0  0  0
  -23.6127    3.1203   26.6374 O   0  0  0  0  0  0  0  0  0  0  0  0
  -22.2494    1.6972   27.6334 O   0  0  0  0  0  0  0  0  0  0  0  0
  -30.0776   -2.2915   29.9597 C   0  0  0  0  0  0  0  0  0  0  0  0
  -29.5636   -3.1329   29.6889 N   0  0  0  0  0  0  0  0  0  0  0  0
  -31.2692   -2.1486   29.2829 O   0  0  0  0  0  0  0  0  0  0  0  0
  -28.3704   -3.5777   30.5432 C   0  0  0  0  0  0  0  0  0  0  0  0
  -27.3913   -4.5465   29.8046 C   0  0  0  0  0  0  0  0  0  0  0  0
  -29.5896   -1.6361   32.2042 C   0  0  0  0  0  0  0  0  0  0  0  0
  -29.6089   -0.4904   33.0633 C   0  0  0  0  0  0  0  0  0  0  0  0
  -30.3662    0.5103   32.7817 C   0  0  0  0  0  0  0  0  0  0  0  0
  -31.6246    0.4335   32.6908 C   0  0  0  0  0  0  0  0  0  0  0  0
  -32.4946    1.5358   32.3476 C   0  0  0  0  0  0  0  0  0  0  0  0
  -31.8632    2.7709   32.1120 C   0  0  0  0  0  0  0  0  0  0  0  0
  -30.5019    2.9364   32.2342 C   0  0  0  0  0  0  0  0  0  0  0  0
  -29.7265    1.8599   32.5655 C   0  0  0  0  0  0  0  0  0  0  0  0
  -28.7494   -0.5306   34.2116 C   0  0  0  0  0  0  0  0  0  0  0  0
  -26.1708   -4.3016   29.9602 O   0  0  0  0  0  0  0  0  0  0  0  0
  -25.7726   -3.0791   29.5181 C   0  0  0  0  0  0  0  0  0  0  0  0
  -25.6371   -1.6917   29.3697 C   0  0  0  0  0  0  0  0  0  0  0  0
  -24.1989   -1.6439   30.0438 O   0  0  0  0  0  0  0  0  0  0  0  0
  -27.4817   -0.0922   34.2100 C   0  0  0  0  0  0  0  0  0  0  0  0
  -26.6178   -0.3514   35.2429 C   0  0  0  0  0  0  0  0  0  0  0  0
  -29.3215   -0.9321   35.4510 C   0  0  0  0  0  0  0  0  0  0  0  0
  -28.5044   -1.0888   36.5779 C   0  0  0  0  0  0  0  0  0  0  0  0
  -27.1324   -0.7839   36.4889 C   0  0  0  0  0  0  0  0  0  0  0  0
  1  8  1  0
  8  9  1  0
  5 10  1  0
 10 11  2  0
 10 12  1  0
  9 13  1  0
 13 14  1  0
 13 15  2  0
 14 16  1  0
 16 17  1  0
  9 18  1  0
 18 19  1  0
 19 20  1  0
 19 26  1  0
 17 27  1  0
 27 28  1  0
  3 29  1  0
 28 29  1  0
 29 30  1  0
  1  2  1  0
  2  3  2  0
  3  4  1  0
  4  5  2  0
  5  6  1  0
  6  7  2  0
  7  2  1  0
 20 21  2  0
 21 22  1  0
 22 23  2  0
 23 24  1  0
 24 25  2  0
 25 20  1  0
 26 31  2  0
 31 32  1  0
 32 35  2  0
 35 34  1  0
 34 33  2  0
 33 26  1  0
M  END

$$$$
