No_1881-gen_results/8p0m/2024-11-26-14-13-15/
     RDKit          3D

 35 35  0  0  0  0  0  0  0  0999 V2000
  -28.0162   -0.8135   28.8779 C   0  0  0  0  0  0  0  0  0  0  0  0
  -27.0636   -0.1189   28.6079 C   0  0  0  0  0  0  0  0  0  0  0  0
  -26.9716    0.7139   27.5060 C   0  0  0  0  0  0  0  0  0  0  0  0
  -28.1053    0.7744   26.6421 C   0  0  0  0  0  0  0  0  0  0  0  0
  -29.2008    0.1044   27.0527 C   0  0  0  0  0  0  0  0  0  0  0  0
  -29.2096   -0.6029   28.1853 C   0  0  0  0  0  0  0  0  0  0  0  0
  -30.3702    0.2264   26.1604 C   0  0  0  0  0  0  0  0  0  0  0  0
  -30.9928    1.1454   26.0580 N   0  0  0  0  0  0  0  0  0  0  0  0
  -30.7351   -0.8643   25.5339 O   0  0  0  0  0  0  0  0  0  0  0  0
  -32.1949    1.3553   25.1703 C   0  0  0  0  0  0  0  0  0  0  0  0
  -28.0372   -1.8891   30.4666 Br  0  0  0  0  0  0  0  0  0  0  0  0
  -25.5209   -0.1956   29.5870 Cl  0  0  0  0  0  0  0  0  0  0  0  0
  -27.9166    1.7499   25.2580 Cl  0  0  0  0  0  0  0  0  0  0  0  0
  -25.7961    1.3867   27.1849 O   0  0  0  0  0  0  0  0  0  0  0  0
  -25.2159    2.2694   28.0191 C   0  0  0  0  0  0  0  0  0  0  0  0
  -24.6133    3.1505   27.7727 C   0  0  0  0  0  0  0  0  0  0  0  0
  -24.1904    3.2249   26.3953 C   0  0  0  0  0  0  0  0  0  0  0  0
  -24.7291    3.9501   25.5283 C   0  0  0  0  0  0  0  0  0  0  0  0
  -23.0471    2.3502   26.0370 C   0  0  0  0  0  0  0  0  0  0  0  0
  -22.5148    1.6632   26.9537 O   0  0  0  0  0  0  0  0  0  0  0  0
  -22.3857    2.5385   24.9388 N   0  0  0  0  0  0  0  0  0  0  0  0
  -25.8740    4.5365   25.8807 F   0  0  0  0  0  0  0  0  0  0  0  0
  -21.1977    1.8126   27.2980 C   0  0  0  0  0  0  0  0  0  0  0  0
  -20.9078    0.8617   28.4298 C   0  0  0  0  0  0  0  0  0  0  0  0
  -22.0234    0.2693   29.0247 C   0  0  0  0  0  0  0  0  0  0  0  0
  -21.8644   -0.8742   29.4385 O   0  0  0  0  0  0  0  0  0  0  0  0
  -23.1420   -1.5900   29.7513 C   0  0  0  0  0  0  0  0  0  0  0  0
  -23.7273   -1.5740   28.4932 C   0  0  0  0  0  0  0  0  0  0  0  0
  -24.7703   -2.5928   28.4755 C   0  0  0  0  0  0  0  0  0  0  0  0
  -24.8987   -3.5627   29.4672 C   0  0  0  0  0  0  0  0  0  0  0  0
  -25.9761   -4.5139   29.2933 C   0  0  0  0  0  0  0  0  0  0  0  0
  -26.6941   -4.2167   28.6410 F   0  0  0  0  0  0  0  0  0  0  0  0
  -26.4588   -4.7561   30.6885 F   0  0  0  0  0  0  0  0  0  0  0  0
  -25.2086   -5.5763   28.9442 F   0  0  0  0  0  0  0  0  0  0  0  0
  -30.7580    2.5106   26.8312 C   0  0  0  0  0  0  0  0  0  0  0  0
  5  7  1  0
  7  8  1  0
  7  9  2  0
  8 10  1  0
  1 11  1  0
  2 12  1  0
  4 13  1  0
  3 14  1  0
 14 15  1  0
 15 16  2  3
 16 17  1  0
 17 18  2  3
 17 19  1  0
 19 20  1  0
 19 21  1  0
 18 22  1  0
 20 23  1  0
 23 24  2  3
 24 25  1  0
 25 26  1  0
 26 27  1  0
 27 28  1  0
 28 29  2  3
 29 30  1  0
 30 31  1  0
 31 32  1  0
 31 33  1  0
 31 34  1  0
  8 35  1  0
  1  2  2  0
  2  3  1  0
  3  4  2  0
  4  5  1  0
  5  6  2  0
  6  1  1  0
M  END

$$$$
