No_1773-gen_results/8p0m/2024-11-26-14-13-15/
     RDKit          3D

 29 31  0  0  0  0  0  0  0  0999 V2000
  -28.0162   -0.8135   28.8779 C   0  0  0  0  0  0  0  0  0  0  0  0
  -27.0636   -0.1189   28.6079 C   0  0  0  0  0  0  0  0  0  0  0  0
  -26.9716    0.7139   27.5060 C   0  0  0  0  0  0  0  0  0  0  0  0
  -25.8205    1.4910   27.1160 C   0  0  0  0  0  0  0  0  0  0  0  0
  -24.6562    1.4242   27.9180 C   0  0  0  0  0  0  0  0  0  0  0  0
  -24.7114    0.5419   29.0507 C   0  0  0  0  0  0  0  0  0  0  0  0
  -25.8042   -0.2058   29.3881 C   0  0  0  0  0  0  0  0  0  0  0  0
  -28.6958   -0.4989   30.1325 C   0  0  0  0  0  0  0  0  0  0  0  0
  -29.8501   -1.3254   30.5771 C   0  0  0  0  0  0  0  0  0  0  0  0
  -30.8391   -1.1037   30.7567 C   0  0  0  0  0  0  0  0  0  0  0  0
  -31.9113   -2.0747   31.1821 C   0  0  0  0  0  0  0  0  0  0  0  0
  -31.5096   -3.4047   31.2170 C   0  0  0  0  0  0  0  0  0  0  0  0
  -30.2262   -3.7872   30.9227 C   0  0  0  0  0  0  0  0  0  0  0  0
  -29.2820   -2.7949   30.5959 C   0  0  0  0  0  0  0  0  0  0  0  0
  -23.4400    2.1508   27.6392 C   0  0  0  0  0  0  0  0  0  0  0  0
  -22.5960    2.0875   28.4828 F   0  0  0  0  0  0  0  0  0  0  0  0
  -23.7074    3.4892   27.4637 F   0  0  0  0  0  0  0  0  0  0  0  0
  -22.9379    1.7527   26.4141 F   0  0  0  0  0  0  0  0  0  0  0  0
  -28.1263    0.8858   26.6370 C   0  0  0  0  0  0  0  0  0  0  0  0
  -28.1820    0.4017   25.4498 N   0  0  0  0  0  0  0  0  0  0  0  0
  -29.2783    0.0294   24.8221 C   0  0  0  0  0  0  0  0  0  0  0  0
  -28.6652    2.3184   26.5699 C   0  0  0  0  0  0  0  0  0  0  0  0
  -30.5009    0.2024   25.4816 C   0  0  0  0  0  0  0  0  0  0  0  0
  -31.6167   -0.2703   25.0233 C   0  0  0  0  0  0  0  0  0  0  0  0
  -31.5307   -0.9476   23.7688 C   0  0  0  0  0  0  0  0  0  0  0  0
  -30.3764   -1.1667   23.1222 C   0  0  0  0  0  0  0  0  0  0  0  0
  -29.2150   -0.7076   23.6480 C   0  0  0  0  0  0  0  0  0  0  0  0
  -29.4892    2.8054   27.5822 C   0  0  0  0  0  0  0  0  0  0  0  0
  -29.8893    4.1069   27.6469 C   0  0  0  0  0  0  0  0  0  0  0  0
  1  8  1  0
  8  9  1  0
  5 15  1  0
 15 16  1  0
 15 17  1  0
 15 18  1  0
  3 19  1  0
 19 20  1  0
 19 22  1  0
 22 28  2  3
 28 29  1  0
  1  2  1  0
 20 21  1  0
  2  3  1  0
  3  4  2  0
  4  5  1  0
  5  6  2  0
  6  7  1  0
  7  2  2  0
  9 10  2  0
 10 11  1  0
 11 12  2  0
 12 13  1  0
 13 14  2  0
 14  9  1  0
 21 23  2  0
 23 24  1  0
 24 25  2  0
 25 26  1  0
 26 27  2  0
 27 21  1  0
M  END

$$$$
