No_1278-gen_results/8p0m/2024-11-26-14-13-15/
     RDKit          3D

 15 16  0  0  0  0  0  0  0  0999 V2000
  -28.0162   -0.8135   28.8779 C   0  0  0  0  0  0  0  0  0  0  0  0
  -27.0636   -0.1189   28.6079 C   0  0  0  0  0  0  0  0  0  0  0  0
  -26.9716    0.7139   27.5060 C   0  0  0  0  0  0  0  0  0  0  0  0
  -28.1053    0.7744   26.6421 C   0  0  0  0  0  0  0  0  0  0  0  0
  -29.2041    0.1179   27.0477 C   0  0  0  0  0  0  0  0  0  0  0  0
  -29.2127   -0.6088   28.1281 C   0  0  0  0  0  0  0  0  0  0  0  0
  -30.3053    0.2258   26.1930 N   0  0  0  0  0  0  0  0  0  0  0  0
  -31.4543   -0.1603   26.5600 C   0  0  0  0  0  0  0  0  0  0  0  0
  -30.3105    1.3214   25.2746 C   0  0  0  0  0  0  0  0  0  0  0  0
  -25.6430    1.3877   27.1319 C   0  0  0  0  0  0  0  0  0  0  0  0
  -25.4618    2.2166   26.2388 C   0  0  0  0  0  0  0  0  0  0  0  0
  -24.1649    2.8590   26.0568 C   0  0  0  0  0  0  0  0  0  0  0  0
  -23.0603    2.3800   26.7362 C   0  0  0  0  0  0  0  0  0  0  0  0
  -23.2087    1.3274   27.6365 C   0  0  0  0  0  0  0  0  0  0  0  0
  -24.5218    0.8494   27.8821 C   0  0  0  0  0  0  0  0  0  0  0  0
  5  7  1  0
  7  8  1  0
  7  9  1  0
  3 10  1  0
  1  2  2  0
  2  3  1  0
  3  4  2  0
  4  5  1  0
  5  6  2  0
  6  1  1  0
 10 11  2  0
 11 12  1  0
 12 13  2  0
 13 14  1  0
 14 15  2  0
 15 10  1  0
M  END

$$$$
