No_1785-gen_results/8p0m/2024-11-26-14-13-15/
     RDKit          3D

 15 16  0  0  0  0  0  0  0  0999 V2000
  -28.0162   -0.8135   28.8779 C   0  0  0  0  0  0  0  0  0  0  0  0
  -28.4690   -0.7850   29.8287 C   0  0  0  0  0  0  0  0  0  0  0  0
  -26.5042   -0.7777   28.8766 C   0  0  0  0  0  0  0  0  0  0  0  0
  -25.8103   -0.8531   30.1028 C   0  0  0  0  0  0  0  0  0  0  0  0
  -27.9906   -0.8916   31.2257 C   0  0  0  0  0  0  0  0  0  0  0  0
  -26.6042   -0.8676   31.2652 C   0  0  0  0  0  0  0  0  0  0  0  0
  -30.0773   -0.8857   30.0240 C   0  0  0  0  0  0  0  0  0  0  0  0
  -30.7067   -0.1575   29.2595 N   0  0  0  0  0  0  0  0  0  0  0  0
  -31.8823   -0.3471   28.7837 C   0  0  0  0  0  0  0  0  0  0  0  0
  -32.4711    0.5045   27.8022 C   0  0  0  0  0  0  0  0  0  0  0  0
  -32.5923   -1.3746   29.0774 F   0  0  0  0  0  0  0  0  0  0  0  0
  -32.1146    1.8104   27.8670 C   0  0  0  0  0  0  0  0  0  0  0  0
  -30.7707    2.1352   28.2865 C   0  0  0  0  0  0  0  0  0  0  0  0
  -30.1389    1.1992   29.0368 C   0  0  0  0  0  0  0  0  0  0  0  0
  -30.4599   -2.0107   30.4982 O   0  0  0  0  0  0  0  0  0  0  0  0
  2  7  1  0
  7  8  1  0
  8  9  1  0
  9 11  1  0
 10 12  1  0
  8 14  1  0
 13 14  1  0
  7 15  2  0
  9 10  1  0
 12 13  1  0
  1  2  2  0
  2  5  1  0
  5  6  2  0
  6  4  1  0
  4  3  2  0
  3  1  1  0
M  END

$$$$
