No_1409-gen_results/8p0m/2024-11-26-14-13-15/
     RDKit          3D

 23 25  0  0  0  0  0  0  0  0999 V2000
  -28.0162   -0.8135   28.8779 C   0  0  0  0  0  0  0  0  0  0  0  0
  -28.4690   -0.7850   29.8287 C   0  0  0  0  0  0  0  0  0  0  0  0
  -26.5455   -0.8762   28.8500 C   0  0  0  0  0  0  0  0  0  0  0  0
  -25.8041   -1.0324   30.0571 C   0  0  0  0  0  0  0  0  0  0  0  0
  -26.5373   -1.0386   31.2171 C   0  0  0  0  0  0  0  0  0  0  0  0
  -27.8929   -0.9601   31.1743 C   0  0  0  0  0  0  0  0  0  0  0  0
  -25.8001   -0.8259   27.7108 O   0  0  0  0  0  0  0  0  0  0  0  0
  -24.5257   -0.3180   27.8415 C   0  0  0  0  0  0  0  0  0  0  0  0
  -24.3971   -0.9843   30.0860 C   0  0  0  0  0  0  0  0  0  0  0  0
  -23.6959   -0.6545   28.8571 C   0  0  0  0  0  0  0  0  0  0  0  0
  -30.0572   -0.7689   29.8962 C   0  0  0  0  0  0  0  0  0  0  0  0
  -30.7099   -1.7520   30.0363 O   0  0  0  0  0  0  0  0  0  0  0  0
  -30.5881    0.4680   29.7481 N   0  0  0  0  0  0  0  0  0  0  0  0
  -32.0080    0.6406   29.7018 C   0  0  0  0  0  0  0  0  0  0  0  0
  -29.8137    1.7137   29.6137 C   0  0  0  0  0  0  0  0  0  0  0  0
  -29.8469    2.4741   30.7785 C   0  0  0  0  0  0  0  0  0  0  0  0
  -30.9781    3.3885   30.7050 C   0  0  0  0  0  0  0  0  0  0  0  0
  -32.3066    2.7871   30.5692 C   0  0  0  0  0  0  0  0  0  0  0  0
  -32.6082    1.5090   30.5505 C   0  0  0  0  0  0  0  0  0  0  0  0
  -33.3700    3.8526   30.7220 C   0  0  0  0  0  0  0  0  0  0  0  0
  -34.3859    3.3219   30.9646 F   0  0  0  0  0  0  0  0  0  0  0  0
  -33.4703    4.4828   29.5062 F   0  0  0  0  0  0  0  0  0  0  0  0
  -33.0650    4.8122   31.6199 F   0  0  0  0  0  0  0  0  0  0  0  0
  3  7  1  0
  7  8  1  0
  4  9  1  0
  8 10  2  0
  9 10  2  0
  2 11  1  0
 11 12  2  0
 11 13  1  0
 13 14  1  0
 13 15  1  0
 15 16  2  0
 16 17  1  0
 17 18  2  0
 14 19  1  0
 18 19  1  0
 18 20  1  0
 20 21  1  0
 20 22  1  0
 20 23  1  0
  1  2  2  0
  2  6  1  0
  6  5  2  0
  5  4  1  0
  4  3  2  0
  3  1  1  0
M  END

$$$$
