No_156-gen_results/8p0m/2024-11-26-14-13-15/
     RDKit          3D

 23 25  0  0  0  0  0  0  0  0999 V2000
  -28.0162   -0.8135   28.8779 C   0  0  0  0  0  0  0  0  0  0  0  0
  -27.0636   -0.1190   28.6079 C   0  0  0  0  0  0  0  0  0  0  0  0
  -27.0010    0.6913   27.4910 C   0  0  0  0  0  0  0  0  0  0  0  0
  -28.1373    0.7363   26.6350 C   0  0  0  0  0  0  0  0  0  0  0  0
  -29.2360    0.0765   27.0690 C   0  0  0  0  0  0  0  0  0  0  0  0
  -29.2177   -0.6429   28.1747 C   0  0  0  0  0  0  0  0  0  0  0  0
  -30.2580    0.2555   26.0835 N   0  0  0  0  0  0  0  0  0  0  0  0
  -31.3287   -0.4493   26.2990 C   0  0  0  0  0  0  0  0  0  0  0  0
  -31.5203   -1.0998   27.5316 C   0  0  0  0  0  0  0  0  0  0  0  0
  -30.4720   -1.2918   28.4052 C   0  0  0  0  0  0  0  0  0  0  0  0
  -27.7754   -1.6263   30.1687 C   0  0  0  0  0  0  0  0  0  0  0  0
  -26.7803   -2.0002   30.5802 O   0  0  0  0  0  0  0  0  0  0  0  0
  -28.9646   -2.0005   30.7319 O   0  0  0  0  0  0  0  0  0  0  0  0
  -32.8173   -1.8396   27.7686 C   0  0  0  0  0  0  0  0  0  0  0  0
  -33.4629   -1.7515   28.7572 O   0  0  0  0  0  0  0  0  0  0  0  0
  -33.1281   -2.6921   26.8959 O   0  0  0  0  0  0  0  0  0  0  0  0
  -25.7101    1.3873   27.0884 C   0  0  0  0  0  0  0  0  0  0  0  0
  -25.6104    2.5052   26.5354 C   0  0  0  0  0  0  0  0  0  0  0  0
  -24.3149    3.1374   26.2230 C   0  0  0  0  0  0  0  0  0  0  0  0
  -23.1485    2.4483   26.5702 C   0  0  0  0  0  0  0  0  0  0  0  0
  -23.2621    1.2329   27.1870 C   0  0  0  0  0  0  0  0  0  0  0  0
  -24.4795    0.6360   27.4844 C   0  0  0  0  0  0  0  0  0  0  0  0
  -21.7334    0.6472   27.7222 Cl  0  0  0  0  0  0  0  0  0  0  0  0
  1 11  1  0
 11 12  2  0
 11 13  1  0
  9 14  1  0
 14 15  1  0
 14 16  2  0
  3 17  1  0
 21 23  1  0
 17 18  2  0
 18 19  1  0
 19 20  2  0
 20 21  1  0
 21 22  2  0
 22 17  1  0
  1  2  2  0
  2  3  1  0
  3  4  2  0
  4  5  1  0
  6  1  1  0
  5  6  2  0
  6 10  1  0
 10  9  2  0
  9  8  1  0
  8  7  2  0
  7  5  1  0
M  END

$$$$
