No_1837-gen_results/8p0m/2024-11-26-14-13-15/
     RDKit          3D

 31 31  0  0  0  0  0  0  0  0999 V2000
  -28.0162   -0.8135   28.8779 C   0  0  0  0  0  0  0  0  0  0  0  0
  -27.0636   -0.1190   28.6079 C   0  0  0  0  0  0  0  0  0  0  0  0
  -27.0010    0.6913   27.4910 C   0  0  0  0  0  0  0  0  0  0  0  0
  -25.8548    1.4825   27.0830 C   0  0  0  0  0  0  0  0  0  0  0  0
  -24.6901    1.4526   27.8807 C   0  0  0  0  0  0  0  0  0  0  0  0
  -24.7379    0.6010   29.0416 C   0  0  0  0  0  0  0  0  0  0  0  0
  -25.8234   -0.1688   29.3887 C   0  0  0  0  0  0  0  0  0  0  0  0
  -28.7300   -0.5298   30.0429 N   0  0  0  0  0  0  0  0  0  0  0  0
  -29.6775   -1.3126   30.5974 C   0  0  0  0  0  0  0  0  0  0  0  0
  -30.1069   -2.3641   29.9909 C   0  0  0  0  0  0  0  0  0  0  0  0
  -30.4711   -3.4422   30.8081 C   0  0  0  0  0  0  0  0  0  0  0  0
  -30.7773   -4.6757   30.1957 C   0  0  0  0  0  0  0  0  0  0  0  0
  -29.8350   -5.5814   29.9422 C   0  0  0  0  0  0  0  0  0  0  0  0
  -31.5899   -4.4664   28.8599 C   0  0  0  0  0  0  0  0  0  0  0  0
  -23.5303    2.2171   27.5713 C   0  0  0  0  0  0  0  0  0  0  0  0
  -23.4399    2.7623   26.3423 N   0  0  0  0  0  0  0  0  0  0  0  0
  -22.4587    2.0694   28.2090 F   0  0  0  0  0  0  0  0  0  0  0  0
  -30.4799   -0.6358   31.3855 O   0  0  0  0  0  0  0  0  0  0  0  0
  -32.4363   -3.6841   28.8370 O   0  0  0  0  0  0  0  0  0  0  0  0
  -31.4604   -5.5472   27.9905 N   0  0  0  0  0  0  0  0  0  0  0  0
  -32.2667   -5.5357   26.8296 C   0  0  0  0  0  0  0  0  0  0  0  0
  -28.9857   -5.6859   31.1451 N   0  0  0  0  0  0  0  0  0  0  0  0
  -32.6395   -6.9028   26.5122 C   0  0  0  0  0  0  0  0  0  0  0  0
  -31.6478   -7.5796   26.1378 O   0  0  0  0  0  0  0  0  0  0  0  0
  -31.6978   -8.6303   25.2168 C   0  0  0  0  0  0  0  0  0  0  0  0
  -30.3913   -8.9347   24.8542 C   0  0  0  0  0  0  0  0  0  0  0  0
  -29.7201   -7.8585   24.0969 C   0  0  0  0  0  0  0  0  0  0  0  0
  -29.7702  -10.2259   24.9703 C   0  0  0  0  0  0  0  0  0  0  0  0
  -30.2992  -11.0650   25.8780 C   0  0  0  0  0  0  0  0  0  0  0  0
  -29.6356  -12.3139   26.0486 C   0  0  0  0  0  0  0  0  0  0  0  0
  -28.5075  -12.5459   25.2766 C   0  0  0  0  0  0  0  0  0  0  0  0
  1  2  1  0
  1  8  1  0
  8  9  1  0
  9 10  1  0
 10 11  2  3
 11 12  1  0
 12 13  1  0
 12 14  1  0
  5 15  1  0
 15 16  2  0
 15 17  1  0
  9 18  2  0
 14 19  2  0
 14 20  1  0
 20 21  1  0
 13 22  1  0
 21 23  1  0
 23 24  1  0
 24 25  1  0
 25 26  1  0
 26 27  1  0
 26 28  1  0
 28 29  2  3
 29 30  1  0
 30 31  2  0
  2  3  2  0
  3  4  1  0
  4  5  2  0
  5  6  1  0
  6  7  2  0
  7  2  1  0
M  END

$$$$
