No_150-gen_results/8p0m/2024-11-26-14-13-15/
     RDKit          3D

 11 10  0  0  0  0  0  0  0  0999 V2000
  -28.1493   -0.8198   28.9079 Cl  0  0  0  0  0  0  0  0  0  0  0  0
  -28.5324   -0.0471   29.7727 C   0  0  0  0  0  0  0  0  0  0  0  0
  -29.6682   -0.0995   30.1894 F   0  0  0  0  0  0  0  0  0  0  0  0
  -27.5674   -0.0766   31.0006 C   0  0  0  0  0  0  0  0  0  0  0  0
  -28.3579    1.2470   29.2780 F   0  0  0  0  0  0  0  0  0  0  0  0
  -26.7230   -0.9630   31.1936 C   0  0  0  0  0  0  0  0  0  0  0  0
  -25.9457   -0.9721   32.2383 F   0  0  0  0  0  0  0  0  0  0  0  0
  -25.7823   -1.0476   30.1236 F   0  0  0  0  0  0  0  0  0  0  0  0
  -27.2779   -2.2334   31.2497 F   0  0  0  0  0  0  0  0  0  0  0  0
  -27.8136    0.7939   32.0083 F   0  0  0  0  0  0  0  0  0  0  0  0
  -27.2097    0.8600   31.0576 F   0  0  0  0  0  0  0  0  0  0  0  0
  1  2  1  0
  2  3  1  0
  2  4  1  0
  2  5  1  0
  4  6  1  0
  6  7  1  0
  6  8  1  0
  6  9  1  0
  4 10  1  0
  4 11  1  0
M  END

$$$$
