No_1483-gen_results/8p0m/2024-11-26-14-13-15/
     RDKit          3D

 15 17  0  0  0  0  0  0  0  0999 V2000
  -28.0162   -0.8135   28.8779 C   0  0  0  0  0  0  0  0  0  0  0  0
  -28.4690   -0.7850   29.8287 C   0  0  0  0  0  0  0  0  0  0  0  0
  -26.5042   -0.7777   28.8766 C   0  0  0  0  0  0  0  0  0  0  0  0
  -25.9150   -0.6580   29.9230 C   0  0  0  0  0  0  0  0  0  0  0  0
  -27.9691   -0.7243   31.2047 C   0  0  0  0  0  0  0  0  0  0  0  0
  -26.5847   -0.6393   31.2062 C   0  0  0  0  0  0  0  0  0  0  0  0
  -30.0752   -0.8832   29.9049 C   0  0  0  0  0  0  0  0  0  0  0  0
  -30.5929   -0.4839   28.9435 O   0  0  0  0  0  0  0  0  0  0  0  0
  -30.7193   -1.4724   30.9693 N   0  0  0  0  0  0  0  0  0  0  0  0
  -32.1432   -1.6018   30.9198 C   0  0  0  0  0  0  0  0  0  0  0  0
  -32.6113   -2.4567   31.6415 C   0  0  0  0  0  0  0  0  0  0  0  0
  -31.8546   -3.1496   32.7241 C   0  0  0  0  0  0  0  0  0  0  0  0
  -30.4529   -2.9913   32.7039 C   0  0  0  0  0  0  0  0  0  0  0  0
  -29.8749   -2.2733   31.8010 C   0  0  0  0  0  0  0  0  0  0  0  0
  -28.5591   -1.9445   31.9851 N   0  0  0  0  0  0  0  0  0  0  0  0
  2  7  1  0
  7  8  2  0
  7  9  1  0
  9 10  1  0
 11 12  1  0
  9 14  1  0
 13 14  1  0
  5 15  1  0
 14 15  1  0
 10 11  1  0
 12 13  1  0
  1  2  2  0
  2  5  1  0
  5  6  2  0
  6  4  1  0
  4  3  2  0
  3  1  1  0
M  END

$$$$
