No_1132-gen_results/8p0m/2024-11-26-14-13-15/
     RDKit          3D

 17 17  0  0  0  0  0  0  0  0999 V2000
  -28.0162   -0.8135   28.8779 C   0  0  0  0  0  0  0  0  0  0  0  0
  -27.0636   -0.1189   28.6079 C   0  0  0  0  0  0  0  0  0  0  0  0
  -27.0010    0.6913   27.4910 C   0  0  0  0  0  0  0  0  0  0  0  0
  -28.1373    0.7363   26.6350 C   0  0  0  0  0  0  0  0  0  0  0  0
  -28.1438    1.4322   25.4880 C   0  0  0  0  0  0  0  0  0  0  0  0
  -29.2801   -0.5524   28.2479 C   0  0  0  0  0  0  0  0  0  0  0  0
  -29.2552    0.0950   27.0446 C   0  0  0  0  0  0  0  0  0  0  0  0
  -27.2841    1.1886   24.5424 C   0  0  0  0  0  0  0  0  0  0  0  0
  -29.1941    2.4266   25.2325 C   0  0  0  0  0  0  0  0  0  0  0  0
  -26.2565    0.2922   24.7238 C   0  0  0  0  0  0  0  0  0  0  0  0
  -28.0543   -1.7302   30.4217 Cl  0  0  0  0  0  0  0  0  0  0  0  0
  -24.8757    0.6537   25.0425 C   0  0  0  0  0  0  0  0  0  0  0  0
  -24.4602    1.4737   26.0929 C   0  0  0  0  0  0  0  0  0  0  0  0
  -23.6286    2.0969   26.4699 C   0  0  0  0  0  0  0  0  0  0  0  0
  -23.0214    2.5331   27.5590 C   0  0  0  0  0  0  0  0  0  0  0  0
  -22.7850    1.4674   28.5743 C   0  0  0  0  0  0  0  0  0  0  0  0
  -23.1393    1.7391   29.7814 N   0  0  0  0  0  0  0  0  0  0  0  0
  4  5  1  0
  5  8  2  3
  5  9  1  0
  8 10  1  0
  1 11  1  0
 10 12  2  3
 12 13  1  0
 13 14  3  0
 14 15  1  0
 15 16  2  0
 16 17  2  0
  1  2  2  0
  2  3  1  0
  3  4  2  0
  4  7  1  0
  7  6  2  0
  6  1  1  0
M  END

$$$$
