No_1993-gen_results/8p0m/2024-11-26-14-13-15/
     RDKit          3D

 22 24  0  0  0  0  0  0  0  0999 V2000
  -28.0162   -0.8135   28.8779 C   0  0  0  0  0  0  0  0  0  0  0  0
  -28.4690   -0.7850   29.8287 C   0  0  0  0  0  0  0  0  0  0  0  0
  -26.5042   -0.7777   28.8766 C   0  0  0  0  0  0  0  0  0  0  0  0
  -25.7623   -0.0022   27.9705 C   0  0  0  0  0  0  0  0  0  0  0  0
  -27.9832   -1.4903   31.0818 C   0  0  0  0  0  0  0  0  0  0  0  0
  -26.6062   -1.5983   31.1298 C   0  0  0  0  0  0  0  0  0  0  0  0
  -25.8085   -1.2512   30.0553 C   0  0  0  0  0  0  0  0  0  0  0  0
  -24.4295    0.3052   28.1003 C   0  0  0  0  0  0  0  0  0  0  0  0
  -23.7000   -0.4208   29.1474 C   0  0  0  0  0  0  0  0  0  0  0  0
  -24.3796   -1.0177   30.1303 C   0  0  0  0  0  0  0  0  0  0  0  0
  -22.2357   -0.1429   29.2549 C   0  0  0  0  0  0  0  0  0  0  0  0
  -21.5970    0.6271   28.3593 N   0  0  0  0  0  0  0  0  0  0  0  0
  -21.6459   -0.4125   30.3391 O   0  0  0  0  0  0  0  0  0  0  0  0
  -30.0787   -0.8614   29.8304 C   0  0  0  0  0  0  0  0  0  0  0  0
  -30.7357   -1.5746   30.2667 O   0  0  0  0  0  0  0  0  0  0  0  0
  -30.5068    0.2545   29.2539 O   0  0  0  0  0  0  0  0  0  0  0  0
  -30.2137    1.3740   29.3581 C   0  0  0  0  0  0  0  0  0  0  0  0
  -30.3696    2.0736   30.4168 C   0  0  0  0  0  0  0  0  0  0  0  0
  -29.9160    3.4335   30.6093 C   0  0  0  0  0  0  0  0  0  0  0  0
  -29.3423    4.0591   29.4904 C   0  0  0  0  0  0  0  0  0  0  0  0
  -29.4777    2.0596   28.1911 C   0  0  0  0  0  0  0  0  0  0  0  0
  -29.0899    3.3859   28.3270 C   0  0  0  0  0  0  0  0  0  0  0  0
  9 11  1  0
 11 12  2  0
 11 13  1  0
  2 14  1  0
 14 15  2  0
 14 16  1  0
 16 17  1  0
 17 18  2  0
 18 19  1  0
 19 20  2  0
 20 22  1  0
 22 21  2  0
 21 17  1  0
  1  2  2  0
  2  5  1  0
  5  6  2  0
  6  7  1  0
  3  1  1  0
  3  4  2  0
  4  8  1  0
  8  9  2  0
  9 10  1  0
 10  7  2  0
  7  3  1  0
M  END

$$$$
