No_1651-gen_results/8p0m/2024-11-26-14-13-15/
     RDKit          3D

 17 18  0  0  0  0  0  0  0  0999 V2000
  -28.0162   -0.8135   28.8779 C   0  0  0  0  0  0  0  0  0  0  0  0
  -28.4690   -0.7850   29.8287 C   0  0  0  0  0  0  0  0  0  0  0  0
  -26.5042   -0.7777   28.8766 C   0  0  0  0  0  0  0  0  0  0  0  0
  -25.8103   -0.8531   30.1028 C   0  0  0  0  0  0  0  0  0  0  0  0
  -27.9906   -0.8916   31.2257 C   0  0  0  0  0  0  0  0  0  0  0  0
  -26.4962   -0.8058   31.1829 C   0  0  0  0  0  0  0  0  0  0  0  0
  -30.0619   -0.8389   29.8957 C   0  0  0  0  0  0  0  0  0  0  0  0
  -30.6760   -1.6924   30.3121 O   0  0  0  0  0  0  0  0  0  0  0  0
  -30.6163    0.0187   28.8742 N   0  0  0  0  0  0  0  0  0  0  0  0
  -31.9941   -0.0648   28.6265 C   0  0  0  0  0  0  0  0  0  0  0  0
  -32.2948    0.1814   27.3579 C   0  0  0  0  0  0  0  0  0  0  0  0
  -33.1416   -0.2628   26.6889 C   0  0  0  0  0  0  0  0  0  0  0  0
  -31.1884    0.8867   26.5423 C   0  0  0  0  0  0  0  0  0  0  0  0
  -29.9377    1.2706   27.0571 C   0  0  0  0  0  0  0  0  0  0  0  0
  -29.6468    0.6287   28.1237 C   0  0  0  0  0  0  0  0  0  0  0  0
  -34.1563   -1.0853   27.3241 C   0  0  0  0  0  0  0  0  0  0  0  0
  -35.2972   -1.6559   26.6480 C   0  0  0  0  0  0  0  0  0  0  0  0
  2  7  1  0
  7  8  2  0
  7  9  1  0
  9 10  1  0
 10 11  1  0
 11 13  1  0
  9 15  1  0
 14 15  1  0
 12 16  1  0
 16 17  2  0
 12 11  1  0
 13 14  1  0
  1  2  2  0
  2  5  1  0
  5  6  2  0
  6  4  1  0
  4  3  2  0
  3  1  1  0
M  END

$$$$
