No_1576-gen_results/8p0m/2024-11-26-14-13-15/
     RDKit          3D

 21 22  0  0  0  0  0  0  0  0999 V2000
  -28.0162   -0.8135   28.8779 C   0  0  0  0  0  0  0  0  0  0  0  0
  -28.4690   -0.7850   29.8287 C   0  0  0  0  0  0  0  0  0  0  0  0
  -27.0871    0.2903   28.6377 C   0  0  0  0  0  0  0  0  0  0  0  0
  -26.8317    1.2487   29.5869 C   0  0  0  0  0  0  0  0  0  0  0  0
  -28.3914    0.0801   31.0065 C   0  0  0  0  0  0  0  0  0  0  0  0
  -27.4940    1.1521   30.7841 C   0  0  0  0  0  0  0  0  0  0  0  0
  -26.3844    0.1867   27.3577 C   0  0  0  0  0  0  0  0  0  0  0  0
  -26.9023    0.4130   26.2703 O   0  0  0  0  0  0  0  0  0  0  0  0
  -25.0185    0.0182   27.3915 O   0  0  0  0  0  0  0  0  0  0  0  0
  -29.4746   -1.9941   30.2904 C   0  0  0  0  0  0  0  0  0  0  0  0
  -29.3536   -2.8976   30.8063 O   0  0  0  0  0  0  0  0  0  0  0  0
  -30.7041   -1.7198   29.7554 O   0  0  0  0  0  0  0  0  0  0  0  0
  -24.2674    1.0001   26.9523 C   0  0  0  0  0  0  0  0  0  0  0  0
  -24.4318    1.7474   25.9749 C   0  0  0  0  0  0  0  0  0  0  0  0
  -23.1930    1.3177   27.9790 C   0  0  0  0  0  0  0  0  0  0  0  0
  -22.8866    0.6548   29.1608 C   0  0  0  0  0  0  0  0  0  0  0  0
  -23.3811    2.7960   25.6261 C   0  0  0  0  0  0  0  0  0  0  0  0
  -22.4938    2.8007   26.3296 C   0  0  0  0  0  0  0  0  0  0  0  0
  -22.2161    2.2467   27.5124 C   0  0  0  0  0  0  0  0  0  0  0  0
  -23.3915    0.9405   30.2368 O   0  0  0  0  0  0  0  0  0  0  0  0
  -21.8887   -0.2124   29.1999 O   0  0  0  0  0  0  0  0  0  0  0  0
  3  7  1  0
  7  8  2  0
  7  9  1  0
  2 10  1  0
 10 11  2  0
 10 12  1  0
  9 13  1  0
 15 16  1  0
 16 20  2  0
 16 21  1  0
  1  2  2  0
  2  5  1  0
  5  6  2  0
  6  4  1  0
  4  3  2  0
  3  1  1  0
 13 14  2  0
 14 17  1  0
 17 18  2  0
 18 19  1  0
 19 15  2  0
 15 13  1  0
M  END

$$$$
