No_1491-gen_results/8p0m/2024-11-26-14-13-15/
     RDKit          3D

 23 25  0  0  0  0  0  0  0  0999 V2000
  -28.0162   -0.8135   28.8779 C   0  0  0  0  0  0  0  0  0  0  0  0
  -27.0636   -0.1189   28.6079 C   0  0  0  0  0  0  0  0  0  0  0  0
  -25.7923   -0.4302   29.0761 C   0  0  0  0  0  0  0  0  0  0  0  0
  -25.5756   -1.5654   29.9363 C   0  0  0  0  0  0  0  0  0  0  0  0
  -26.7354   -2.3004   30.2173 C   0  0  0  0  0  0  0  0  0  0  0  0
  -27.9184   -1.9537   29.7629 C   0  0  0  0  0  0  0  0  0  0  0  0
  -27.1057    1.1023   27.7593 C   0  0  0  0  0  0  0  0  0  0  0  0
  -28.1026    1.2424   27.1566 F   0  0  0  0  0  0  0  0  0  0  0  0
  -26.9077    2.2808   28.5196 F   0  0  0  0  0  0  0  0  0  0  0  0
  -25.9872    1.1458   26.8902 F   0  0  0  0  0  0  0  0  0  0  0  0
  -28.9938   -2.7101   30.1654 N   0  0  0  0  0  0  0  0  0  0  0  0
  -29.6877   -2.4928   31.1392 C   0  0  0  0  0  0  0  0  0  0  0  0
  -29.5560   -1.5014   31.7905 O   0  0  0  0  0  0  0  0  0  0  0  0
  -30.4763   -3.6628   31.6331 C   0  0  0  0  0  0  0  0  0  0  0  0
  -30.1364   -4.3503   32.4652 N   0  0  0  0  0  0  0  0  0  0  0  0
  -31.7811   -3.8032   31.0258 C   0  0  0  0  0  0  0  0  0  0  0  0
  -32.3740   -2.9640   30.3094 C   0  0  0  0  0  0  0  0  0  0  0  0
  -33.6119   -3.2157   29.6560 C   0  0  0  0  0  0  0  0  0  0  0  0
  -34.1522   -4.4719   29.8556 C   0  0  0  0  0  0  0  0  0  0  0  0
  -33.5226   -5.4335   30.5875 C   0  0  0  0  0  0  0  0  0  0  0  0
  -32.3161   -5.1401   31.2025 C   0  0  0  0  0  0  0  0  0  0  0  0
  -29.4632   -4.6331   33.1894 C   0  0  0  0  0  0  0  0  0  0  0  0
  -31.3435   -5.4362   32.6901 C   0  0  0  0  0  0  0  0  0  0  0  0
  2  7  1  0
  7  8  1  0
  7  9  1  0
  7 10  1  0
  6 11  1  0
 11 12  1  0
 12 13  2  0
 12 14  1  0
 14 15  1  0
 14 16  1  0
 15 22  1  0
 15 23  1  0
 21 23  1  0
  1  2  2  0
  2  3  1  0
  3  4  2  0
  4  5  1  0
  5  6  2  0
  6  1  1  0
 16 17  2  0
 17 18  1  0
 18 19  2  0
 19 20  1  0
 20 21  2  0
 21 16  1  0
M  END

$$$$
