No_1889-gen_results/8p0m/2024-11-26-14-13-15/
     RDKit          3D

 28 29  0  0  0  0  0  0  0  0999 V2000
  -28.0162   -0.8135   28.8779 C   0  0  0  0  0  0  0  0  0  0  0  0
  -28.4690   -0.7850   29.8287 C   0  0  0  0  0  0  0  0  0  0  0  0
  -26.5455   -0.8762   28.8500 C   0  0  0  0  0  0  0  0  0  0  0  0
  -25.6825   -0.7773   27.6829 C   0  0  0  0  0  0  0  0  0  0  0  0
  -27.9181   -1.0034   31.1877 C   0  0  0  0  0  0  0  0  0  0  0  0
  -26.5308   -1.0794   31.2463 C   0  0  0  0  0  0  0  0  0  0  0  0
  -25.7798   -1.0462   30.0905 C   0  0  0  0  0  0  0  0  0  0  0  0
  -25.8976    0.2387   26.7449 C   0  0  0  0  0  0  0  0  0  0  0  0
  -24.9256    0.7629   26.0322 C   0  0  0  0  0  0  0  0  0  0  0  0
  -24.2472    1.7995   26.1605 C   0  0  0  0  0  0  0  0  0  0  0  0
  -24.4507    2.7005   27.2727 C   0  0  0  0  0  0  0  0  0  0  0  0
  -23.6013    3.7384   27.6399 C   0  0  0  0  0  0  0  0  0  0  0  0
  -26.0383    1.5376   27.6750 C   0  0  0  0  0  0  0  0  0  0  0  0
  -25.3523    2.5175   28.0285 C   0  0  0  0  0  0  0  0  0  0  0  0
  -24.3858   -1.1830   30.1504 C   0  0  0  0  0  0  0  0  0  0  0  0
  -23.6541   -0.4629   30.8081 O   0  0  0  0  0  0  0  0  0  0  0  0
  -23.7640   -1.9258   29.1465 O   0  0  0  0  0  0  0  0  0  0  0  0
  -30.0754   -0.7376   29.8982 C   0  0  0  0  0  0  0  0  0  0  0  0
  -30.7042   -0.0505   30.7786 O   0  0  0  0  0  0  0  0  0  0  0  0
  -30.6665   -1.0452   28.8056 O   0  0  0  0  0  0  0  0  0  0  0  0
  -25.7693    3.2728   29.0913 N   0  0  0  0  0  0  0  0  0  0  0  0
  -26.0085    4.5585   29.0760 C   0  0  0  0  0  0  0  0  0  0  0  0
  -25.9799    2.6906   30.4505 C   0  0  0  0  0  0  0  0  0  0  0  0
  -25.0723    3.1451   31.5490 C   0  0  0  0  0  0  0  0  0  0  0  0
  -24.1944    2.6334   31.9639 O   0  0  0  0  0  0  0  0  0  0  0  0
  -25.6775    4.2433   32.2393 N   0  0  0  0  0  0  0  0  0  0  0  0
  -24.9628    4.8705   33.3675 C   0  0  0  0  0  0  0  0  0  0  0  0
  -26.7807    5.0861   28.4755 O   0  0  0  0  0  0  0  0  0  0  0  0
  3  4  1  0
  4  8  1  0
 11 12  1  0
  7 15  1  0
 15 16  2  0
 15 17  1  0
  2 18  1  0
 18 19  2  0
 18 20  1  0
 14 21  1  0
 21 22  1  0
 21 23  1  0
 23 24  1  0
 24 25  2  0
 24 26  1  0
 26 27  1  0
 22 28  2  0
  8  9  2  0
  9 10  1  0
 10 11  2  0
 11 14  1  0
 14 13  2  0
 13  8  1  0
  1  2  2  0
  2  5  1  0
  5  6  2  0
  6  7  1  0
  7  3  2  0
  3  1  1  0
M  END

$$$$
