No_1540-gen_results/8p0m/2024-11-26-14-13-15/
     RDKit          3D

 19 20  0  0  0  0  0  0  0  0999 V2000
  -28.0162   -0.8135   28.8779 C   0  0  0  0  0  0  0  0  0  0  0  0
  -27.0636   -0.1189   28.6079 C   0  0  0  0  0  0  0  0  0  0  0  0
  -25.7923   -0.4302   29.0761 C   0  0  0  0  0  0  0  0  0  0  0  0
  -24.5456    0.3494   28.8225 C   0  0  0  0  0  0  0  0  0  0  0  0
  -24.6586    1.4196   27.8878 C   0  0  0  0  0  0  0  0  0  0  0  0
  -25.9471    1.6811   27.3792 C   0  0  0  0  0  0  0  0  0  0  0  0
  -27.0439    0.9739   27.6871 C   0  0  0  0  0  0  0  0  0  0  0  0
  -29.1797   -0.1202   29.1288 N   0  0  0  0  0  0  0  0  0  0  0  0
  -30.2095   -0.7652   29.7428 C   0  0  0  0  0  0  0  0  0  0  0  0
  -23.4456    2.1545   27.6087 C   0  0  0  0  0  0  0  0  0  0  0  0
  -22.3001    1.8338   28.0582 O   0  0  0  0  0  0  0  0  0  0  0  0
  -23.4555    2.8337   26.4000 O   0  0  0  0  0  0  0  0  0  0  0  0
  -31.4986   -0.4764   29.3970 C   0  0  0  0  0  0  0  0  0  0  0  0
  -30.0158   -1.6185   30.6670 O   0  0  0  0  0  0  0  0  0  0  0  0
  -32.3476   -1.4874   29.3030 C   0  0  0  0  0  0  0  0  0  0  0  0
  -33.6335   -1.3086   28.8570 C   0  0  0  0  0  0  0  0  0  0  0  0
  -31.8686    0.7611   29.0512 N   0  0  0  0  0  0  0  0  0  0  0  0
  -33.1516    1.0281   28.6420 C   0  0  0  0  0  0  0  0  0  0  0  0
  -34.0124    0.0196   28.5483 N   0  0  0  0  0  0  0  0  0  0  0  0
  1  2  1  0
  1  8  1  0
  8  9  1  0
  5 10  1  0
 10 11  2  0
 10 12  1  0
  9 13  1  0
  9 14  2  0
 13 15  2  0
 15 16  1  0
 16 19  2  0
 19 18  1  0
 18 17  2  0
 17 13  1  0
  2  3  2  0
  3  4  1  0
  4  5  2  0
  5  6  1  0
  6  7  2  0
  7  2  1  0
M  END

$$$$
