No_1297-gen_results/8p0m/2024-11-26-14-13-15/
     RDKit          3D

 35 37  0  0  0  0  0  0  0  0999 V2000
  -28.0162   -0.8135   28.8779 C   0  0  0  0  0  0  0  0  0  0  0  0
  -27.0636   -0.1190   28.6079 C   0  0  0  0  0  0  0  0  0  0  0  0
  -25.7647   -0.3897   29.0360 C   0  0  0  0  0  0  0  0  0  0  0  0
  -24.5516    0.4058   28.7646 C   0  0  0  0  0  0  0  0  0  0  0  0
  -23.2300    0.1178   29.2575 C   0  0  0  0  0  0  0  0  0  0  0  0
  -22.1393    0.9427   28.9224 C   0  0  0  0  0  0  0  0  0  0  0  0
  -27.8294   -1.9287   29.8545 C   0  0  0  0  0  0  0  0  0  0  0  0
  -26.5882   -2.3272   30.2682 C   0  0  0  0  0  0  0  0  0  0  0  0
  -25.4565   -1.5432   29.9146 C   0  0  0  0  0  0  0  0  0  0  0  0
  -22.2302    1.9089   27.8723 C   0  0  0  0  0  0  0  0  0  0  0  0
  -24.5538    1.4700   27.7617 C   0  0  0  0  0  0  0  0  0  0  0  0
  -23.6227    2.1000   27.4898 C   0  0  0  0  0  0  0  0  0  0  0  0
  -28.9875   -2.7691   30.2552 C   0  0  0  0  0  0  0  0  0  0  0  0
  -30.1412   -2.2798   30.2864 N   0  0  0  0  0  0  0  0  0  0  0  0
  -28.7879   -3.9521   30.6740 O   0  0  0  0  0  0  0  0  0  0  0  0
  -31.3364   -3.0506   30.6709 C   0  0  0  0  0  0  0  0  0  0  0  0
  -23.6902    3.1049   26.4706 O   0  0  0  0  0  0  0  0  0  0  0  0
  -32.3724   -2.5195   30.8204 C   0  0  0  0  0  0  0  0  0  0  0  0
  -33.3312   -2.9346   31.4802 C   0  0  0  0  0  0  0  0  0  0  0  0
  -34.5964   -2.2369   31.7636 C   0  0  0  0  0  0  0  0  0  0  0  0
  -34.7355   -0.9986   31.1280 C   0  0  0  0  0  0  0  0  0  0  0  0
  -33.7578   -0.4845   30.3520 C   0  0  0  0  0  0  0  0  0  0  0  0
  -32.5613   -1.1184   30.2127 C   0  0  0  0  0  0  0  0  0  0  0  0
  -33.9120    0.8973   29.7568 C   0  0  0  0  0  0  0  0  0  0  0  0
  -34.7736    1.5724   30.0706 F   0  0  0  0  0  0  0  0  0  0  0  0
  -32.6884    1.5648   29.9805 F   0  0  0  0  0  0  0  0  0  0  0  0
  -33.8273    0.6610   28.3725 F   0  0  0  0  0  0  0  0  0  0  0  0
  -31.1513   -4.2359   30.7230 O   0  0  0  0  0  0  0  0  0  0  0  0
  -35.6606   -2.8466   32.5350 C   0  0  0  0  0  0  0  0  0  0  0  0
  -36.5445   -3.4172   32.1854 O   0  0  0  0  0  0  0  0  0  0  0  0
  -35.4300   -2.6061   33.9433 N   0  0  0  0  0  0  0  0  0  0  0  0
  -36.3729   -3.1007   34.9218 C   0  0  0  0  0  0  0  0  0  0  0  0
  -36.0120   -2.9296   36.0459 C   0  0  0  0  0  0  0  0  0  0  0  0
  -36.8143   -3.3466   37.2220 C   0  0  0  0  0  0  0  0  0  0  0  0
  -36.4301   -3.1547   38.5648 C   0  0  0  0  0  0  0  0  0  0  0  0
  3  4  1  0
  4  5  1  0
  6 10  1  0
  4 11  1  0
 10 12  1  0
 11 12  1  0
  7 13  1  0
 13 14  1  0
 13 15  2  0
 14 16  1  0
 12 17  2  0
 16 18  1  0
 22 24  1  0
 24 25  1  0
 24 26  1  0
 24 27  1  0
 16 28  2  0
 20 29  1  0
 29 30  2  0
 29 31  1  0
 31 32  1  0
 32 33  2  3
 33 34  1  0
 34 35  2  0
  6  5  1  0
 18 19  2  0
 19 20  1  0
 20 21  2  0
 21 22  1  0
 22 23  2  0
 23 18  1  0
  1  2  2  0
  2  3  1  0
  3  9  2  0
  9  8  1  0
  8  7  2  0
  7  1  1  0
M  END

$$$$
