No_1507-gen_results/8p0m/2024-11-26-14-13-15/
     RDKit          3D

 30 32  0  0  0  0  0  0  0  0999 V2000
  -28.0162   -0.8135   28.8779 C   0  0  0  0  0  0  0  0  0  0  0  0
  -27.0636   -0.1190   28.6079 C   0  0  0  0  0  0  0  0  0  0  0  0
  -25.7923   -0.4302   29.0761 C   0  0  0  0  0  0  0  0  0  0  0  0
  -24.5456    0.3494   28.8225 C   0  0  0  0  0  0  0  0  0  0  0  0
  -24.6586    1.4196   27.8878 C   0  0  0  0  0  0  0  0  0  0  0  0
  -25.9471    1.6811   27.3792 C   0  0  0  0  0  0  0  0  0  0  0  0
  -26.8806    0.9300   27.7124 C   0  0  0  0  0  0  0  0  0  0  0  0
  -28.0928   -1.4808   30.2234 C   0  0  0  0  0  0  0  0  0  0  0  0
  -26.8687   -2.1329   30.6068 C   0  0  0  0  0  0  0  0  0  0  0  0
  -25.6382   -1.4303   30.2236 C   0  0  0  0  0  0  0  0  0  0  0  0
  -23.4172    2.1685   27.5480 C   0  0  0  0  0  0  0  0  0  0  0  0
  -22.2485    1.7529   27.9846 N   0  0  0  0  0  0  0  0  0  0  0  0
  -23.5637    3.1538   26.7717 O   0  0  0  0  0  0  0  0  0  0  0  0
  -29.2925   -2.2308   30.6517 C   0  0  0  0  0  0  0  0  0  0  0  0
  -30.4205   -1.5468   30.6424 N   0  0  0  0  0  0  0  0  0  0  0  0
  -30.4074   -0.2878   30.7336 C   0  0  0  0  0  0  0  0  0  0  0  0
  -31.6621   -2.2678   30.4706 C   0  0  0  0  0  0  0  0  0  0  0  0
  -29.1645   -3.2524   31.3346 O   0  0  0  0  0  0  0  0  0  0  0  0
  -31.6061    0.4974   30.4097 C   0  0  0  0  0  0  0  0  0  0  0  0
  -32.7787   -1.5191   30.0005 C   0  0  0  0  0  0  0  0  0  0  0  0
  -32.7734   -0.1484   30.1584 C   0  0  0  0  0  0  0  0  0  0  0  0
  -33.9881    0.6233   29.8310 C   0  0  0  0  0  0  0  0  0  0  0  0
  -34.2277    2.0268   30.5928 Cl  0  0  0  0  0  0  0  0  0  0  0  0
  -34.0822    0.6451   28.4700 F   0  0  0  0  0  0  0  0  0  0  0  0
  -28.2755    1.3486   27.0323 C   0  0  0  0  0  0  0  0  0  0  0  0
  -28.4273    1.4784   25.9179 O   0  0  0  0  0  0  0  0  0  0  0  0
  -29.2879    1.4896   27.8638 O   0  0  0  0  0  0  0  0  0  0  0  0
  -21.4590    1.1437   27.8100 C   0  0  0  0  0  0  0  0  0  0  0  0
  -21.1419   -0.0323   28.6567 C   0  0  0  0  0  0  0  0  0  0  0  0
  -35.0485   -0.1676   30.2629 F   0  0  0  0  0  0  0  0  0  0  0  0
  5 11  1  0
 11 12  1  0
 11 13  2  0
  8 14  1  0
 14 15  1  0
 15 16  1  0
 15 17  1  0
 14 18  2  0
 19 21  1  0
 20 21  1  0
 21 22  1  0
 22 23  1  0
 22 24  1  0
  7 25  1  0
 25 26  2  0
 25 27  1  0
 12 28  1  0
 28 29  1  0
 22 30  1  0
 16 19  1  0
 20 17  1  0
  3  4  1  0
  4  5  2  0
  5  6  1  0
  6  7  2  0
  7  2  1  0
  1  2  2  0
  2  3  1  0
  3 10  2  0
 10  9  1  0
  9  8  2  0
  8  1  1  0
M  END

$$$$
