No_1163-gen_results/8p0m/2024-11-26-14-13-15/
     RDKit          3D

 35 38  0  0  0  0  0  0  0  0999 V2000
  -28.0544   -1.0498   28.7246 N   0  0  0  0  0  0  0  0  0  0  0  0
  -26.9659   -0.4722   28.7709 C   0  0  0  0  0  0  0  0  0  0  0  0
  -26.5486    0.3876   27.8310 C   0  0  0  0  0  0  0  0  0  0  0  0
  -25.2228    0.8526   27.7033 C   0  0  0  0  0  0  0  0  0  0  0  0
  -24.2464    0.4683   28.6950 C   0  0  0  0  0  0  0  0  0  0  0  0
  -24.6776   -0.4720   29.6743 C   0  0  0  0  0  0  0  0  0  0  0  0
  -25.9469   -0.9734   29.7011 C   0  0  0  0  0  0  0  0  0  0  0  0
  -28.6555   -1.3853   29.9530 C   0  0  0  0  0  0  0  0  0  0  0  0
  -29.9947   -1.8115   29.9331 C   0  0  0  0  0  0  0  0  0  0  0  0
  -30.3870   -2.8492   30.7235 C   0  0  0  0  0  0  0  0  0  0  0  0
  -29.9720   -3.8230   30.6624 N   0  0  0  0  0  0  0  0  0  0  0  0
  -22.8859    0.9407   28.6429 C   0  0  0  0  0  0  0  0  0  0  0  0
  -22.4707    1.7372   27.5397 C   0  0  0  0  0  0  0  0  0  0  0  0
  -23.4275    2.2196   26.6345 C   0  0  0  0  0  0  0  0  0  0  0  0
  -24.7906    1.7620   26.6909 C   0  0  0  0  0  0  0  0  0  0  0  0
  -27.9518   -1.6842   31.0078 O   0  0  0  0  0  0  0  0  0  0  0  0
  -29.9873   -4.6930   29.9937 C   0  0  0  0  0  0  0  0  0  0  0  0
  -31.0689   -4.7032   29.0932 C   0  0  0  0  0  0  0  0  0  0  0  0
  -31.1913   -5.9171   28.2132 C   0  0  0  0  0  0  0  0  0  0  0  0
  -31.8265   -6.9970   28.6977 C   0  0  0  0  0  0  0  0  0  0  0  0
  -31.9113   -8.1958   27.8333 C   0  0  0  0  0  0  0  0  0  0  0  0
  -31.3738   -8.1392   26.5366 C   0  0  0  0  0  0  0  0  0  0  0  0
  -30.7366   -6.9514   26.1201 C   0  0  0  0  0  0  0  0  0  0  0  0
  -30.6421   -5.8412   26.9031 C   0  0  0  0  0  0  0  0  0  0  0  0
  -30.8005   -1.1890   29.1314 O   0  0  0  0  0  0  0  0  0  0  0  0
  -31.4298   -9.2702   25.6283 C   0  0  0  0  0  0  0  0  0  0  0  0
  -30.4568   -9.4107   24.7559 C   0  0  0  0  0  0  0  0  0  0  0  0
  -29.5808  -10.0043   24.7162 C   0  0  0  0  0  0  0  0  0  0  0  0
  -28.4925  -10.0582   23.6527 C   0  0  0  0  0  0  0  0  0  0  0  0
  -28.6010   -9.0595   22.6769 C   0  0  0  0  0  0  0  0  0  0  0  0
  -30.4402   -8.3643   23.6009 C   0  0  0  0  0  0  0  0  0  0  0  0
  -29.6050   -8.2586   22.6786 C   0  0  0  0  0  0  0  0  0  0  0  0
  -31.4603  -10.6868   26.2240 C   0  0  0  0  0  0  0  0  0  0  0  0
  -32.7570  -11.2254   26.0790 C   0  0  0  0  0  0  0  0  0  0  0  0
  -32.8792  -12.5571   26.4246 C   0  0  0  0  0  0  0  0  0  0  0  0
  1  2  1  0
  1  8  1  0
  8  9  1  0
  9 10  1  0
 10 11  2  3
  8 16  2  0
 11 17  1  0
 17 18  1  0
 18 19  1  0
  9 25  2  0
 22 26  1  0
 26 27  1  0
 26 33  1  0
 33 34  1  0
 34 35  2  0
  2  3  2  0
  3  4  1  0
  5  6  1  0
  6  7  2  0
  7  2  1  0
 27 28  2  0
 28 29  1  0
 29 30  2  0
 30 32  1  0
 32 31  2  0
 31 27  1  0
 19 20  2  0
 20 21  1  0
 21 22  2  0
 22 23  1  0
 23 24  2  0
 24 19  1  0
  4  5  2  0
  5 12  1  0
 12 13  2  0
 13 14  1  0
 14 15  2  0
 15  4  1  0
M  END

$$$$
