No_1520-gen_results/8p0m/2024-11-26-14-13-15/
     RDKit          3D

 35 38  0  0  0  0  0  0  0  0999 V2000
  -28.0162   -0.8135   28.8779 C   0  0  0  0  0  0  0  0  0  0  0  0
  -27.0636   -0.1190   28.6079 C   0  0  0  0  0  0  0  0  0  0  0  0
  -25.7923   -0.4302   29.0761 C   0  0  0  0  0  0  0  0  0  0  0  0
  -24.5456    0.3494   28.8225 C   0  0  0  0  0  0  0  0  0  0  0  0
  -24.6586    1.4196   27.8878 C   0  0  0  0  0  0  0  0  0  0  0  0
  -25.9471    1.6811   27.3792 C   0  0  0  0  0  0  0  0  0  0  0  0
  -27.0439    0.9739   27.6871 C   0  0  0  0  0  0  0  0  0  0  0  0
  -29.2096   -0.0265   29.3432 C   0  0  0  0  0  0  0  0  0  0  0  0
  -29.4825   -0.0930   30.5632 C   0  0  0  0  0  0  0  0  0  0  0  0
  -30.0267    0.4327   28.3038 C   0  0  0  0  0  0  0  0  0  0  0  0
  -31.2526    1.0398   28.6679 C   0  0  0  0  0  0  0  0  0  0  0  0
  -28.7029   -0.6463   31.6723 C   0  0  0  0  0  0  0  0  0  0  0  0
  -31.5489    1.0642   30.0472 C   0  0  0  0  0  0  0  0  0  0  0  0
  -30.7237    0.5685   30.9920 C   0  0  0  0  0  0  0  0  0  0  0  0
  -23.4839    2.1809   27.5981 C   0  0  0  0  0  0  0  0  0  0  0  0
  -23.6561    3.3393   27.3085 F   0  0  0  0  0  0  0  0  0  0  0  0
  -22.7266    1.5658   26.5540 F   0  0  0  0  0  0  0  0  0  0  0  0
  -22.5798    2.2266   28.6311 F   0  0  0  0  0  0  0  0  0  0  0  0
  -29.0263   -1.7939   32.1869 C   0  0  0  0  0  0  0  0  0  0  0  0
  -27.5995    0.1091   32.1487 C   0  0  0  0  0  0  0  0  0  0  0  0
  -26.7347   -0.3818   33.1072 C   0  0  0  0  0  0  0  0  0  0  0  0
  -27.3715    1.4935   31.6839 C   0  0  0  0  0  0  0  0  0  0  0  0
  -26.1454    2.1419   32.0568 C   0  0  0  0  0  0  0  0  0  0  0  0
  -25.5311    0.3046   33.5208 C   0  0  0  0  0  0  0  0  0  0  0  0
  -25.3169    1.6078   33.0047 C   0  0  0  0  0  0  0  0  0  0  0  0
  -25.8975    3.5226   31.5542 C   0  0  0  0  0  0  0  0  0  0  0  0
  -26.6203    4.1369   31.0956 O   0  0  0  0  0  0  0  0  0  0  0  0
  -24.6494    3.9511   31.8662 O   0  0  0  0  0  0  0  0  0  0  0  0
  -25.5613   -1.4445   29.9321 O   0  0  0  0  0  0  0  0  0  0  0  0
  -24.3550   -1.8439   30.3687 C   0  0  0  0  0  0  0  0  0  0  0  0
  -28.8299   -3.0518   31.4390 C   0  0  0  0  0  0  0  0  0  0  0  0
  -29.3268   -4.2621   31.9025 C   0  0  0  0  0  0  0  0  0  0  0  0
  -29.8754   -4.3463   33.1886 C   0  0  0  0  0  0  0  0  0  0  0  0
  -30.0426   -3.2048   33.9667 C   0  0  0  0  0  0  0  0  0  0  0  0
  -29.6735   -1.9485   33.4945 C   0  0  0  0  0  0  0  0  0  0  0  0
  1  2  1  0
  1  8  1  0
  9 12  1  0
  5 15  1  0
 15 16  1  0
 15 17  1  0
 15 18  1  0
 12 20  1  0
 23 26  1  0
 26 27  2  0
 26 28  1  0
  3 29  1  0
 29 30  1  0
 12 19  1  0
  2  3  2  0
  3  4  1  0
  4  5  2  0
  5  6  1  0
  6  7  2  0
  7  2  1  0
 19 31  2  0
 31 32  1  0
 32 33  2  0
 33 34  1  0
 34 35  2  0
 35 19  1  0
  8  9  2  0
  9 14  1  0
 14 13  2  0
 13 11  1  0
 11 10  2  0
 10  8  1  0
 20 21  2  0
 21 24  1  0
 24 25  2  0
 25 23  1  0
 23 22  2  0
 22 20  1  0
M  END

$$$$
