No_1056-gen_results/8p0m/2024-11-26-14-13-15/
     RDKit          3D

 15 15  0  0  0  0  0  0  0  0999 V2000
  -28.1493   -0.8198   28.9079 Cl  0  0  0  0  0  0  0  0  0  0  0  0
  -26.9116   -0.0797   28.9452 C   0  0  0  0  0  0  0  0  0  0  0  0
  -26.0490   -0.0718   27.8591 C   0  0  0  0  0  0  0  0  0  0  0  0
  -24.7194    0.4034   27.9174 C   0  0  0  0  0  0  0  0  0  0  0  0
  -24.2099    0.9302   29.0839 C   0  0  0  0  0  0  0  0  0  0  0  0
  -25.0231    0.9078   30.1875 C   0  0  0  0  0  0  0  0  0  0  0  0
  -26.2531    0.3904   30.1401 C   0  0  0  0  0  0  0  0  0  0  0  0
  -22.8477    1.4431   29.0581 C   0  0  0  0  0  0  0  0  0  0  0  0
  -21.9192    1.2697   28.5770 O   0  0  0  0  0  0  0  0  0  0  0  0
  -22.8086    2.4801   30.1236 O   0  0  0  0  0  0  0  0  0  0  0  0
  -27.0259    0.3310   31.2893 O   0  0  0  0  0  0  0  0  0  0  0  0
  -27.1189    1.4075   32.0693 C   0  0  0  0  0  0  0  0  0  0  0  0
  -27.2989    2.5782   31.6031 C   0  0  0  0  0  0  0  0  0  0  0  0
  -26.7395    3.5993   32.2654 C   0  0  0  0  0  0  0  0  0  0  0  0
  -26.6154    4.8856   31.7275 N   0  0  0  0  0  0  0  0  0  0  0  0
  1  2  1  0
  5  8  1  0
  8  9  2  0
  8 10  1  0
  7 11  1  0
 11 12  1  0
 12 13  1  0
 13 14  1  0
 14 15  2  0
  2  3  2  0
  3  4  1  0
  4  5  2  0
  5  6  1  0
  6  7  2  0
  7  2  1  0
M  END

$$$$
