No_199-gen_results/8p0m/2024-11-26-14-13-15/
     RDKit          3D

 23 25  0  0  0  0  0  0  0  0999 V2000
  -28.0162   -0.8135   28.8779 C   0  0  0  0  0  0  0  0  0  0  0  0
  -27.0636   -0.1189   28.6079 C   0  0  0  0  0  0  0  0  0  0  0  0
  -26.8756    1.1325   28.9134 C   0  0  0  0  0  0  0  0  0  0  0  0
  -25.6883    1.9515   28.5672 C   0  0  0  0  0  0  0  0  0  0  0  0
  -24.6394    1.2834   27.8753 C   0  0  0  0  0  0  0  0  0  0  0  0
  -24.8068   -0.0513   27.6040 C   0  0  0  0  0  0  0  0  0  0  0  0
  -25.9019   -0.7670   27.9511 C   0  0  0  0  0  0  0  0  0  0  0  0
  -28.6455   -0.5282   30.2428 C   0  0  0  0  0  0  0  0  0  0  0  0
  -28.9122    0.7961   30.4353 C   0  0  0  0  0  0  0  0  0  0  0  0
  -27.6754    1.6491   30.0989 C   0  0  0  0  0  0  0  0  0  0  0  0
  -23.4710    1.9726   27.3666 C   0  0  0  0  0  0  0  0  0  0  0  0
  -23.4920    2.5069   26.2982 F   0  0  0  0  0  0  0  0  0  0  0  0
  -23.1671    3.0746   28.2888 F   0  0  0  0  0  0  0  0  0  0  0  0
  -22.3026    1.2455   27.5493 F   0  0  0  0  0  0  0  0  0  0  0  0
  -26.9103    2.0976   31.2798 C   0  0  0  0  0  0  0  0  0  0  0  0
  -28.2761    2.9959   29.3515 C   0  0  0  0  0  0  0  0  0  0  0  0
  -29.2506    3.6006   30.0529 C   0  0  0  0  0  0  0  0  0  0  0  0
  -29.7229    4.6176   29.5153 N   0  0  0  0  0  0  0  0  0  0  0  0
  -26.9522    2.8906   32.0117 C   0  0  0  0  0  0  0  0  0  0  0  0
  -25.8264    1.0151   31.6488 C   0  0  0  0  0  0  0  0  0  0  0  0
  -26.1134    3.2587   33.1361 C   0  0  0  0  0  0  0  0  0  0  0  0
  -25.1592    2.3021   33.4636 C   0  0  0  0  0  0  0  0  0  0  0  0
  -24.9850    1.2433   32.6498 C   0  0  0  0  0  0  0  0  0  0  0  0
  2  3  1  0
  3  4  1  0
  4  5  1  0
  5  6  1  0
  2  7  1  0
  6  7  1  0
  1  8  1  0
  3 10  1  0
  9 10  1  0
  5 11  1  0
 11 12  1  0
 11 13  1  0
 11 14  1  0
 10 15  1  0
 10 16  1  0
 16 17  1  0
 17 18  2  0
  2  1  1  0
  8  9  1  0
 15 19  2  0
 19 21  1  0
 21 22  2  0
 22 23  1  0
 23 20  2  0
 20 15  1  0
M  END

$$$$
