No_1860-gen_results/8p0m/2024-11-26-14-13-15/
     RDKit          3D

 13 14  0  0  0  0  0  0  0  0999 V2000
  -28.1229   -1.3353   28.4874 O   0  0  0  0  0  0  0  0  0  0  0  0
  -27.4806   -0.4044   28.7094 C   0  0  0  0  0  0  0  0  0  0  0  0
  -27.1904    0.2460   29.5268 C   0  0  0  0  0  0  0  0  0  0  0  0
  -26.6871   -0.0001   27.4423 N   0  0  0  0  0  0  0  0  0  0  0  0
  -26.3501    1.4331   29.7418 C   0  0  0  0  0  0  0  0  0  0  0  0
  -25.8445    1.0999   27.3990 C   0  0  0  0  0  0  0  0  0  0  0  0
  -25.6424    1.7455   28.4012 C   0  0  0  0  0  0  0  0  0  0  0  0
  -27.8327   -0.0471   30.9671 C   0  0  0  0  0  0  0  0  0  0  0  0
  -29.1483    0.5176   31.0624 C   0  0  0  0  0  0  0  0  0  0  0  0
  -29.8698    0.0665   32.0118 C   0  0  0  0  0  0  0  0  0  0  0  0
  -29.3948   -0.8203   33.0513 C   0  0  0  0  0  0  0  0  0  0  0  0
  -28.1201   -1.3137   32.9347 C   0  0  0  0  0  0  0  0  0  0  0  0
  -27.3148   -0.9661   31.8288 C   0  0  0  0  0  0  0  0  0  0  0  0
  1  2  2  0
  2  3  1  0
  2  4  1  0
  3  5  1  0
  6  7  1  0
  3  8  1  0
  5  7  1  0
  6  4  1  0
  8  9  2  0
  9 10  1  0
 10 11  2  0
 11 12  1  0
 12 13  2  0
 13  8  1  0
M  END

$$$$
