No_1967-gen_results/8p0m/2024-11-26-14-13-15/
     RDKit          3D

 28 31  0  0  0  0  0  0  0  0999 V2000
  -28.0162   -0.8135   28.8779 C   0  0  0  0  0  0  0  0  0  0  0  0
  -28.4690   -0.7850   29.8287 C   0  0  0  0  0  0  0  0  0  0  0  0
  -27.0871    0.2903   28.6377 C   0  0  0  0  0  0  0  0  0  0  0  0
  -26.8317    1.2487   29.5869 C   0  0  0  0  0  0  0  0  0  0  0  0
  -28.3914    0.0801   31.0065 C   0  0  0  0  0  0  0  0  0  0  0  0
  -27.4940    1.1521   30.7841 C   0  0  0  0  0  0  0  0  0  0  0  0
  -26.3109    0.3918   27.3640 C   0  0  0  0  0  0  0  0  0  0  0  0
  -26.7672    1.0252   26.3723 C   0  0  0  0  0  0  0  0  0  0  0  0
  -24.9987   -0.1757   27.3493 C   0  0  0  0  0  0  0  0  0  0  0  0
  -28.0335    1.5623   26.2719 C   0  0  0  0  0  0  0  0  0  0  0  0
  -25.9517    1.0620   25.1066 C   0  0  0  0  0  0  0  0  0  0  0  0
  -24.5391    0.6447   25.1327 C   0  0  0  0  0  0  0  0  0  0  0  0
  -24.1737   -0.0386   26.2843 C   0  0  0  0  0  0  0  0  0  0  0  0
  -28.9236    1.1645   25.3608 C   0  0  0  0  0  0  0  0  0  0  0  0
  -28.4436    2.6000   27.1803 C   0  0  0  0  0  0  0  0  0  0  0  0
  -29.7593    2.9757   27.4087 C   0  0  0  0  0  0  0  0  0  0  0  0
  -30.3153    1.4702   25.5450 C   0  0  0  0  0  0  0  0  0  0  0  0
  -30.6658    2.4867   26.4409 C   0  0  0  0  0  0  0  0  0  0  0  0
  -25.8547    2.3329   29.4415 C   0  0  0  0  0  0  0  0  0  0  0  0
  -26.2379    3.5970   29.6495 C   0  0  0  0  0  0  0  0  0  0  0  0
  -25.4804    4.6825   29.0843 C   0  0  0  0  0  0  0  0  0  0  0  0
  -24.8223    4.3616   27.8404 C   0  0  0  0  0  0  0  0  0  0  0  0
  -24.2078    3.1058   27.6895 C   0  0  0  0  0  0  0  0  0  0  0  0
  -24.3746    2.1983   29.7700 C   0  0  0  0  0  0  0  0  0  0  0  0
  -23.8824    2.5204   28.7582 C   0  0  0  0  0  0  0  0  0  0  0  0
  -30.1745    3.9686   28.3920 C   0  0  0  0  0  0  0  0  0  0  0  0
  -30.3179    3.4639   29.5819 O   0  0  0  0  0  0  0  0  0  0  0  0
  -30.3364    5.1279   28.1505 O   0  0  0  0  0  0  0  0  0  0  0  0
  3  7  1  0
  8 10  1  0
  4 19  1  0
 19 20  1  0
 20 21  2  0
 21 22  1  0
 22 23  2  0
 19 24  1  0
 23 25  1  0
 24 25  2  0
 16 26  1  0
 26 27  1  0
 26 28  2  0
 10 14  2  0
 14 17  1  0
 17 18  2  0
 18 16  1  0
 16 15  2  0
 15 10  1  0
  7  8  2  0
  8 11  1  0
 11 12  2  0
 12 13  1  0
 13  9  2  0
  9  7  1  0
  1  2  2  0
  2  5  1  0
  5  6  2  0
  6  4  1  0
  4  3  2  0
  3  1  1  0
M  END

$$$$
