No_1585-gen_results/8p0m/2024-11-26-14-13-15/
     RDKit          3D

 24 26  0  0  0  0  0  0  0  0999 V2000
  -28.0162   -0.8135   28.8779 C   0  0  0  0  0  0  0  0  0  0  0  0
  -27.0636   -0.1189   28.6079 C   0  0  0  0  0  0  0  0  0  0  0  0
  -26.9716    0.7139   27.5060 C   0  0  0  0  0  0  0  0  0  0  0  0
  -28.1053    0.7744   26.6421 C   0  0  0  0  0  0  0  0  0  0  0  0
  -29.2008    0.1044   27.0527 C   0  0  0  0  0  0  0  0  0  0  0  0
  -29.2096   -0.6029   28.1853 C   0  0  0  0  0  0  0  0  0  0  0  0
  -30.6913    0.2536   25.9500 Br  0  0  0  0  0  0  0  0  0  0  0  0
  -25.6962   -0.2340   29.4204 C   0  0  0  0  0  0  0  0  0  0  0  0
  -24.7440   -1.0561   28.9997 C   0  0  0  0  0  0  0  0  0  0  0  0
  -23.4980   -1.1682   29.6389 C   0  0  0  0  0  0  0  0  0  0  0  0
  -23.2336   -0.3416   30.7186 C   0  0  0  0  0  0  0  0  0  0  0  0
  -24.2362    0.4614   31.2313 C   0  0  0  0  0  0  0  0  0  0  0  0
  -25.4615    0.5627   30.5151 C   0  0  0  0  0  0  0  0  0  0  0  0
  -28.0960   -1.6234   29.9978 O   0  0  0  0  0  0  0  0  0  0  0  0
  -29.1149   -1.7105   30.7989 C   0  0  0  0  0  0  0  0  0  0  0  0
  -29.0541   -0.9159   31.8586 C   0  0  0  0  0  0  0  0  0  0  0  0
  -29.7006   -0.0648   32.2189 C   0  0  0  0  0  0  0  0  0  0  0  0
  -29.5766    0.8318   33.3931 C   0  0  0  0  0  0  0  0  0  0  0  0
  -30.2767    2.0280   33.6646 C   0  0  0  0  0  0  0  0  0  0  0  0
  -31.2809    2.3092   32.7118 C   0  0  0  0  0  0  0  0  0  0  0  0
  -31.4641    1.5673   31.5823 C   0  0  0  0  0  0  0  0  0  0  0  0
  -30.6845    0.5240   31.3046 C   0  0  0  0  0  0  0  0  0  0  0  0
  -30.0643   -2.6525   30.6309 C   0  0  0  0  0  0  0  0  0  0  0  0
  -29.7741   -3.7079   30.2044 O   0  0  0  0  0  0  0  0  0  0  0  0
  5  7  1  0
  2  8  1  0
  1 14  1  0
 14 15  1  0
 15 16  1  0
 15 23  1  0
 23 24  2  0
 16 17  1  0
 17 18  2  0
 18 19  1  0
 19 20  2  0
 20 21  1  0
 21 22  2  0
 22 17  1  0
  1  2  1  0
  2  3  2  0
  3  4  1  0
  4  5  2  0
  5  6  1  0
  6  1  2  0
  8  9  2  0
  9 10  1  0
 10 11  2  0
 11 12  1  0
 12 13  2  0
 13  8  1  0
M  END

$$$$
