No_1414-gen_results/8p0m/2024-11-26-14-13-15/
     RDKit          3D

 17 18  0  0  0  0  0  0  0  0999 V2000
  -28.0727   -1.2542   28.5316 F   0  0  0  0  0  0  0  0  0  0  0  0
  -27.3591   -0.3792   28.7224 C   0  0  0  0  0  0  0  0  0  0  0  0
  -27.7014    0.7608   29.1249 C   0  0  0  0  0  0  0  0  0  0  0  0
  -25.9636   -0.4957   28.0855 C   0  0  0  0  0  0  0  0  0  0  0  0
  -25.0471    0.6018   28.1686 C   0  0  0  0  0  0  0  0  0  0  0  0
  -26.7768    1.9221   29.2014 C   0  0  0  0  0  0  0  0  0  0  0  0
  -23.6844    0.4950   27.6841 C   0  0  0  0  0  0  0  0  0  0  0  0
  -25.4872    1.8421   28.7244 C   0  0  0  0  0  0  0  0  0  0  0  0
  -23.1369    1.6208   27.0810 C   0  0  0  0  0  0  0  0  0  0  0  0
  -23.6789    2.9680   27.5655 C   0  0  0  0  0  0  0  0  0  0  0  0
  -24.7585    3.0053   28.3365 C   0  0  0  0  0  0  0  0  0  0  0  0
  -25.1677    4.2607   28.6774 O   0  0  0  0  0  0  0  0  0  0  0  0
  -25.6072    4.5260   29.9203 C   0  0  0  0  0  0  0  0  0  0  0  0
  -24.9541    5.6347   30.5426 C   0  0  0  0  0  0  0  0  0  0  0  0
  -25.4114    5.9813   31.8945 C   0  0  0  0  0  0  0  0  0  0  0  0
  -26.4080    5.1668   32.4852 C   0  0  0  0  0  0  0  0  0  0  0  0
  -26.4549    3.9310   30.6471 F   0  0  0  0  0  0  0  0  0  0  0  0
  1  2  1  0
 11 12  1  0
 12 13  1  0
 13 14  2  3
 14 15  1  0
 15 16  2  0
 13 17  1  0
  5  7  1  0
  7  9  2  0
  9 10  1  0
 10 11  2  0
 11  8  1  0
  2  3  2  0
  3  6  1  0
  6  8  2  0
  8  5  1  0
  5  4  2  0
  4  2  1  0
M  END

$$$$
