No_1426-gen_results/8p0m/2024-11-26-14-13-15/
     RDKit          3D

 13 14  0  0  0  0  0  0  0  0999 V2000
  -28.0162   -0.8135   28.8779 C   0  0  0  0  0  0  0  0  0  0  0  0
  -27.0636   -0.1189   28.6079 C   0  0  0  0  0  0  0  0  0  0  0  0
  -26.9716    0.7139   27.5060 C   0  0  0  0  0  0  0  0  0  0  0  0
  -25.8205    1.4910   27.1160 C   0  0  0  0  0  0  0  0  0  0  0  0
  -24.6562    1.4242   27.9180 C   0  0  0  0  0  0  0  0  0  0  0  0
  -24.7114    0.5419   29.0507 C   0  0  0  0  0  0  0  0  0  0  0  0
  -25.8042   -0.2058   29.3881 C   0  0  0  0  0  0  0  0  0  0  0  0
  -28.0309   -1.5903   30.1490 C   0  0  0  0  0  0  0  0  0  0  0  0
  -29.1708   -2.3553   30.5109 C   0  0  0  0  0  0  0  0  0  0  0  0
  -30.3323   -2.0549   29.8878 C   0  0  0  0  0  0  0  0  0  0  0  0
  -30.4069   -1.1185   28.9181 C   0  0  0  0  0  0  0  0  0  0  0  0
  -29.3110   -0.4750   28.5038 C   0  0  0  0  0  0  0  0  0  0  0  0
  -23.1346    2.3873   27.4961 Br  0  0  0  0  0  0  0  0  0  0  0  0
  5 13  1  0
  1  2  1  0
  2  3  2  0
  3  4  1  0
  4  5  2  0
  5  6  1  0
  6  7  2  0
  7  2  1  0
  1  8  2  0
  8  9  1  0
  9 10  2  0
 10 11  1  0
 11 12  2  0
 12  1  1  0
M  END

$$$$
