No_1024-gen_results/8p0m/2024-11-26-14-13-15/
     RDKit          3D

 16 18  0  0  0  0  0  0  0  0999 V2000
  -28.0162   -0.8135   28.8779 C   0  0  0  0  0  0  0  0  0  0  0  0
  -28.4690   -0.7850   29.8287 C   0  0  0  0  0  0  0  0  0  0  0  0
  -27.0871    0.2903   28.6377 C   0  0  0  0  0  0  0  0  0  0  0  0
  -26.2516    0.4114   27.4223 C   0  0  0  0  0  0  0  0  0  0  0  0
  -29.4309   -1.9307   30.2714 C   0  0  0  0  0  0  0  0  0  0  0  0
  -25.1465    1.2405   27.3564 C   0  0  0  0  0  0  0  0  0  0  0  0
  -24.2255    1.3321   26.2834 C   0  0  0  0  0  0  0  0  0  0  0  0
  -28.1740    0.2091   30.9183 C   0  0  0  0  0  0  0  0  0  0  0  0
  -27.3671    1.2137   30.7558 C   0  0  0  0  0  0  0  0  0  0  0  0
  -26.6794    1.2845   29.5706 C   0  0  0  0  0  0  0  0  0  0  0  0
  -23.0808    2.2416   26.4040 C   0  0  0  0  0  0  0  0  0  0  0  0
  -22.5862    2.4410   27.5306 C   0  0  0  0  0  0  0  0  0  0  0  0
  -23.2798    2.0368   28.7601 C   0  0  0  0  0  0  0  0  0  0  0  0
  -24.4589    1.4265   28.6939 C   0  0  0  0  0  0  0  0  0  0  0  0
  -25.3854    1.5111   29.8308 C   0  0  0  0  0  0  0  0  0  0  0  0
  -29.4620   -2.5044   31.2092 O   0  0  0  0  0  0  0  0  0  0  0  0
  5 16  2  0
  5  2  1  0
  1  2  2  0
  2  8  1  0
  8  9  2  0
  9 10  1  0
  3  1  1  0
  6  7  2  0
  7 11  1  0
 11 12  2  0
 12 13  1  0
 13 14  2  0
  3  4  2  0
  4  6  1  0
  6 14  1  0
 14 15  1  0
 15 10  2  0
 10  3  1  0
M  END

$$$$
