No_1259-gen_results/8p0m/2024-11-26-14-13-15/
     RDKit          3D

 24 27  0  0  0  0  0  0  0  0999 V2000
  -28.0162   -0.8135   28.8779 C   0  0  0  0  0  0  0  0  0  0  0  0
  -28.4690   -0.7850   29.8287 C   0  0  0  0  0  0  0  0  0  0  0  0
  -27.0871    0.2903   28.6377 C   0  0  0  0  0  0  0  0  0  0  0  0
  -26.7676    1.0274   29.4716 C   0  0  0  0  0  0  0  0  0  0  0  0
  -28.2764    0.0268   31.0145 C   0  0  0  0  0  0  0  0  0  0  0  0
  -27.3287    1.0538   30.7535 C   0  0  0  0  0  0  0  0  0  0  0  0
  -26.3859    0.3011   27.2661 C   0  0  0  0  0  0  0  0  0  0  0  0
  -26.8831    0.6625   26.2724 C   0  0  0  0  0  0  0  0  0  0  0  0
  -26.1616    0.6204   24.9732 C   0  0  0  0  0  0  0  0  0  0  0  0
  -25.0173   -0.1321   27.2736 C   0  0  0  0  0  0  0  0  0  0  0  0
  -24.3818   -0.5523   28.6013 C   0  0  0  0  0  0  0  0  0  0  0  0
  -24.7811    0.3002   25.0246 C   0  0  0  0  0  0  0  0  0  0  0  0
  -24.2465   -0.0015   26.1958 C   0  0  0  0  0  0  0  0  0  0  0  0
  -23.4390    0.0844   29.1108 C   0  0  0  0  0  0  0  0  0  0  0  0
  -22.6836   -0.4812   30.2053 C   0  0  0  0  0  0  0  0  0  0  0  0
  -24.3124   -1.9377   28.9641 C   0  0  0  0  0  0  0  0  0  0  0  0
  -23.8034   -2.5059   30.0266 C   0  0  0  0  0  0  0  0  0  0  0  0
  -22.8792   -1.6614   30.7412 C   0  0  0  0  0  0  0  0  0  0  0  0
  -28.2668    0.9711   26.0759 N   0  0  0  0  0  0  0  0  0  0  0  0
  -29.1070    0.6516   25.2140 C   0  0  0  0  0  0  0  0  0  0  0  0
  -30.4627    0.9084   25.3080 C   0  0  0  0  0  0  0  0  0  0  0  0
  -28.6991    2.3048   26.6431 C   0  0  0  0  0  0  0  0  0  0  0  0
  -30.0037    2.5673   26.9875 C   0  0  0  0  0  0  0  0  0  0  0  0
  -30.8230    1.8361   26.4205 C   0  0  0  0  0  0  0  0  0  0  0  0
  3  7  1  0
 10 11  1  0
  8 19  1  0
 19 20  1  0
 19 22  1  0
 21 24  1  0
 23 24  1  0
 20 21  1  0
 23 22  1  0
  7  8  1  0
  8  9  2  0
  9 12  1  0
 12 13  2  0
 13 10  1  0
 10  7  2  0
 11 14  2  0
 14 15  1  0
 15 18  2  0
 18 17  1  0
 17 16  2  0
 16 11  1  0
  1  2  2  0
  2  5  1  0
  5  6  2  0
  6  4  1  0
  4  3  2  0
  3  1  1  0
M  END

$$$$
