No_1521-gen_results/8p0m/2024-11-26-14-13-15/
     RDKit          3D

 22 23  0  0  0  0  0  0  0  0999 V2000
  -28.0162   -0.8135   28.8779 C   0  0  0  0  0  0  0  0  0  0  0  0
  -27.0636   -0.1189   28.6079 C   0  0  0  0  0  0  0  0  0  0  0  0
  -25.7647   -0.3897   29.0360 C   0  0  0  0  0  0  0  0  0  0  0  0
  -24.5516    0.4058   28.7646 C   0  0  0  0  0  0  0  0  0  0  0  0
  -23.2300    0.1178   29.2575 C   0  0  0  0  0  0  0  0  0  0  0  0
  -23.0942   -1.1309   29.8730 C   0  0  0  0  0  0  0  0  0  0  0  0
  -27.7980   -1.9341   29.8560 C   0  0  0  0  0  0  0  0  0  0  0  0
  -26.5420   -2.3269   30.2580 C   0  0  0  0  0  0  0  0  0  0  0  0
  -25.4514   -1.5516   29.9079 C   0  0  0  0  0  0  0  0  0  0  0  0
  -24.1562   -1.9097   30.2809 C   0  0  0  0  0  0  0  0  0  0  0  0
  -24.6450    1.6582   27.9464 C   0  0  0  0  0  0  0  0  0  0  0  0
  -23.7227    1.8820   27.0720 N   0  0  0  0  0  0  0  0  0  0  0  0
  -22.4631    1.9521   27.3851 C   0  0  0  0  0  0  0  0  0  0  0  0
  -24.0269    2.0812   25.7134 C   0  0  0  0  0  0  0  0  0  0  0  0
  -29.0178   -2.7388   30.2752 C   0  0  0  0  0  0  0  0  0  0  0  0
  -30.1458   -2.1551   30.3246 N   0  0  0  0  0  0  0  0  0  0  0  0
  -28.8534   -3.9366   30.6093 O   0  0  0  0  0  0  0  0  0  0  0  0
  -31.3514   -2.9037   30.7138 C   0  0  0  0  0  0  0  0  0  0  0  0
  -32.3887   -2.5966   30.0283 C   0  0  0  0  0  0  0  0  0  0  0  0
  -32.4436   -1.6575   29.6721 F   0  0  0  0  0  0  0  0  0  0  0  0
  -32.4460   -3.5211   28.8894 F   0  0  0  0  0  0  0  0  0  0  0  0
  -33.5493   -3.0737   30.6737 F   0  0  0  0  0  0  0  0  0  0  0  0
  4 11  1  0
 11 12  1  0
 12 13  1  0
 12 14  1  0
  7 15  1  0
 15 16  1  0
 15 17  2  0
 16 18  1  0
 18 19  1  0
 19 20  1  0
 19 21  1  0
 19 22  1  0
  1  2  2  0
  2  3  1  0
  9  8  1  0
  8  7  2  0
  7  1  1  0
  3  4  2  0
  4  5  1  0
  5  6  2  0
  6 10  1  0
 10  9  2  0
  9  3  1  0
M  END

$$$$
