No_1439-gen_results/8p0m/2024-11-26-14-13-15/
     RDKit          3D

 20 21  0  0  0  0  0  0  0  0999 V2000
  -28.0162   -0.8135   28.8779 C   0  0  0  0  0  0  0  0  0  0  0  0
  -28.4690   -0.7850   29.8287 C   0  0  0  0  0  0  0  0  0  0  0  0
  -28.1960    0.3478   28.0550 C   0  0  0  0  0  0  0  0  0  0  0  0
  -29.0191    1.3501   28.3782 C   0  0  0  0  0  0  0  0  0  0  0  0
  -29.4107    0.1803   30.3782 C   0  0  0  0  0  0  0  0  0  0  0  0
  -29.6059    1.2495   29.6193 C   0  0  0  0  0  0  0  0  0  0  0  0
  -27.5400    0.3372   26.8421 F   0  0  0  0  0  0  0  0  0  0  0  0
  -30.1135   -0.0422   31.9592 Cl  0  0  0  0  0  0  0  0  0  0  0  0
  -29.1658    2.3588   27.5831 F   0  0  0  0  0  0  0  0  0  0  0  0
  -28.2501   -2.2788   30.9938 Cl  0  0  0  0  0  0  0  0  0  0  0  0
  -30.4702    2.2522   30.0087 O   0  0  0  0  0  0  0  0  0  0  0  0
  -31.7482    2.1048   29.9130 C   0  0  0  0  0  0  0  0  0  0  0  0
  -32.3272    2.3175   28.7494 C   0  0  0  0  0  0  0  0  0  0  0  0
  -32.1238    3.3741   28.1440 O   0  0  0  0  0  0  0  0  0  0  0  0
  -32.9967    1.3369   28.1068 N   0  0  0  0  0  0  0  0  0  0  0  0
  -33.3155    0.0546   28.7039 C   0  0  0  0  0  0  0  0  0  0  0  0
  -33.7505   -0.9112   27.7795 C   0  0  0  0  0  0  0  0  0  0  0  0
  -33.8150   -0.6282   26.5149 C   0  0  0  0  0  0  0  0  0  0  0  0
  -33.4534    0.5936   25.9334 C   0  0  0  0  0  0  0  0  0  0  0  0
  -32.6937    1.5743   26.7901 C   0  0  0  0  0  0  0  0  0  0  0  0
  3  7  1  0
  5  8  1  0
  4  9  1  0
  2 10  1  0
  6 11  1  0
 11 12  1  0
 12 13  1  0
 13 14  2  0
 13 15  1  0
 15 16  1  0
 17 18  1  0
 15 20  1  0
 19 20  1  0
 16 17  1  0
 18 19  1  0
  1  2  2  0
  2  5  1  0
  5  6  2  0
  6  4  1  0
  4  3  2  0
  3  1  1  0
M  END

$$$$
