No_1615-gen_results/8p0m/2024-11-26-14-13-15/
     RDKit          3D

 19 20  0  0  0  0  0  0  0  0999 V2000
  -28.0162   -0.8135   28.8779 C   0  0  0  0  0  0  0  0  0  0  0  0
  -28.4690   -0.7850   29.8287 C   0  0  0  0  0  0  0  0  0  0  0  0
  -27.0871    0.2903   28.6377 C   0  0  0  0  0  0  0  0  0  0  0  0
  -26.8317    1.2487   29.5869 C   0  0  0  0  0  0  0  0  0  0  0  0
  -28.3914    0.0801   31.0065 C   0  0  0  0  0  0  0  0  0  0  0  0
  -27.4940    1.1521   30.7841 C   0  0  0  0  0  0  0  0  0  0  0  0
  -26.3172    0.3994   27.3653 C   0  0  0  0  0  0  0  0  0  0  0  0
  -26.8990    0.5819   26.4031 O   0  0  0  0  0  0  0  0  0  0  0  0
  -24.9827    0.3252   27.4295 O   0  0  0  0  0  0  0  0  0  0  0  0
  -24.2501    1.3925   27.8997 C   0  0  0  0  0  0  0  0  0  0  0  0
  -23.7256    2.2821   26.9285 C   0  0  0  0  0  0  0  0  0  0  0  0
  -23.0841    0.8766   28.8721 C   0  0  0  0  0  0  0  0  0  0  0  0
  -21.6352    0.7976   27.9791 S   0  0  0  0  0  0  0  0  0  0  0  0
  -21.4480    1.7350   27.4679 C   0  0  0  0  0  0  0  0  0  0  0  0
  -22.4346    2.3665   26.5086 C   0  0  0  0  0  0  0  0  0  0  0  0
  -24.7232    3.0922   26.2258 C   0  0  0  0  0  0  0  0  0  0  0  0
  -29.4815   -1.9948   30.2319 C   0  0  0  0  0  0  0  0  0  0  0  0
  -30.0529   -1.9755   31.3657 O   0  0  0  0  0  0  0  0  0  0  0  0
  -29.4724   -2.9930   29.5359 O   0  0  0  0  0  0  0  0  0  0  0  0
  3  7  1  0
  7  8  2  0
  7  9  1  0
  9 10  1  0
 10 11  1  0
 10 12  1  0
 12 13  1  0
 13 14  1  0
 11 15  2  0
 14 15  1  0
 11 16  1  0
  2 17  1  0
 17 18  2  0
 17 19  1  0
  1  2  2  0
  2  5  1  0
  5  6  2  0
  6  4  1  0
  4  3  2  0
  3  1  1  0
M  END

$$$$
