No_1015-gen_results/8p0m/2024-11-26-14-13-15/
     RDKit          3D

 32 35  0  0  0  0  0  0  0  0999 V2000
  -28.0162   -0.8135   28.8779 C   0  0  0  0  0  0  0  0  0  0  0  0
  -27.0636   -0.1190   28.6079 C   0  0  0  0  0  0  0  0  0  0  0  0
  -25.7647   -0.3897   29.0360 C   0  0  0  0  0  0  0  0  0  0  0  0
  -25.5296   -1.5302   29.9014 C   0  0  0  0  0  0  0  0  0  0  0  0
  -26.6577   -2.2915   30.2035 C   0  0  0  0  0  0  0  0  0  0  0  0
  -27.8548   -1.9555   29.7630 C   0  0  0  0  0  0  0  0  0  0  0  0
  -24.5349    0.4128   28.7431 C   0  0  0  0  0  0  0  0  0  0  0  0
  -23.3062    0.0366   29.0393 C   0  0  0  0  0  0  0  0  0  0  0  0
  -23.0648   -1.1443   29.7080 C   0  0  0  0  0  0  0  0  0  0  0  0
  -24.1873   -1.9562   30.1956 C   0  0  0  0  0  0  0  0  0  0  0  0
  -22.1179    0.8470   28.6508 C   0  0  0  0  0  0  0  0  0  0  0  0
  -20.9981    0.6853   29.0593 O   0  0  0  0  0  0  0  0  0  0  0  0
  -22.2929    1.7880   27.7010 O   0  0  0  0  0  0  0  0  0  0  0  0
  -28.9635   -2.6784   30.1432 O   0  0  0  0  0  0  0  0  0  0  0  0
  -29.2416   -2.7787   31.4977 C   0  0  0  0  0  0  0  0  0  0  0  0
  -29.8461   -1.7109   32.0607 C   0  0  0  0  0  0  0  0  0  0  0  0
  -29.5693   -1.3972   33.0831 O   0  0  0  0  0  0  0  0  0  0  0  0
  -30.6473   -1.1003   31.2940 O   0  0  0  0  0  0  0  0  0  0  0  0
  -27.2014    1.1361   27.7287 C   0  0  0  0  0  0  0  0  0  0  0  0
  -27.4871    2.1536   28.1781 O   0  0  0  0  0  0  0  0  0  0  0  0
  -26.8483    0.9347   26.5040 O   0  0  0  0  0  0  0  0  0  0  0  0
  -30.0256   -4.1097   31.7485 C   0  0  0  0  0  0  0  0  0  0  0  0
  -30.6934   -4.5065   30.7029 C   0  0  0  0  0  0  0  0  0  0  0  0
  -30.5717   -4.4592   29.6181 C   0  0  0  0  0  0  0  0  0  0  0  0
  -31.3747   -5.1468   28.5279 C   0  0  0  0  0  0  0  0  0  0  0  0
  -31.8764   -6.3645   28.9195 C   0  0  0  0  0  0  0  0  0  0  0  0
  -32.6408   -7.0280   27.9491 C   0  0  0  0  0  0  0  0  0  0  0  0
  -32.6919   -6.5865   26.6219 C   0  0  0  0  0  0  0  0  0  0  0  0
  -32.0815   -5.3530   26.2966 C   0  0  0  0  0  0  0  0  0  0  0  0
  -31.3958   -4.6808   27.2100 C   0  0  0  0  0  0  0  0  0  0  0  0
  -31.8751   -5.4134   31.2375 C   0  0  0  0  0  0  0  0  0  0  0  0
  -32.3331   -6.4463   30.2491 C   0  0  0  0  0  0  0  0  0  0  0  0
  8 11  1  0
 11 12  2  0
 11 13  1  0
  6 14  1  0
 14 15  1  0
 15 16  1  0
 16 17  2  0
 16 18  1  0
  2 19  1  0
 19 20  2  0
 19 21  1  0
 15 22  1  0
 22 23  1  0
  1  2  2  0
  2  3  1  0
  4  5  1  0
  5  6  2  0
  6  1  1  0
 26 27  2  0
 27 28  1  0
 28 29  2  0
 29 30  1  0
 30 25  2  0
  3  4  2  0
  4 10  1  0
 10  9  2  0
  9  8  1  0
  8  7  2  0
  7  3  1  0
 23 24  2  0
 24 25  1  0
 25 26  1  0
 26 32  1  0
 32 31  2  0
 31 23  1  0
M  END

$$$$
