No_1112-gen_results/8p0m/2024-11-26-14-13-15/
     RDKit          3D

 20 21  0  0  0  0  0  0  0  0999 V2000
  -28.0162   -0.8135   28.8779 C   0  0  0  0  0  0  0  0  0  0  0  0
  -27.0636   -0.1190   28.6079 C   0  0  0  0  0  0  0  0  0  0  0  0
  -26.9716    0.7139   27.5060 C   0  0  0  0  0  0  0  0  0  0  0  0
  -28.1053    0.7744   26.6421 C   0  0  0  0  0  0  0  0  0  0  0  0
  -29.2041    0.1179   27.0477 C   0  0  0  0  0  0  0  0  0  0  0  0
  -29.2127   -0.6088   28.1281 C   0  0  0  0  0  0  0  0  0  0  0  0
  -30.2671    0.2179   26.2593 F   0  0  0  0  0  0  0  0  0  0  0  0
  -25.6932    1.4470   27.1347 C   0  0  0  0  0  0  0  0  0  0  0  0
  -25.0229    2.2608   28.1335 C   0  0  0  0  0  0  0  0  0  0  0  0
  -25.4382    2.5950   29.2830 C   0  0  0  0  0  0  0  0  0  0  0  0
  -26.3944    2.4244   29.8556 C   0  0  0  0  0  0  0  0  0  0  0  0
  -26.5694    3.0002   31.2351 C   0  0  0  0  0  0  0  0  0  0  0  0
  -27.6629    2.7905   32.0511 C   0  0  0  0  0  0  0  0  0  0  0  0
  -25.3972    3.7555   31.7424 C   0  0  0  0  0  0  0  0  0  0  0  0
  -25.5055    4.3421   33.0712 C   0  0  0  0  0  0  0  0  0  0  0  0
  -26.5655    4.0386   33.8602 C   0  0  0  0  0  0  0  0  0  0  0  0
  -27.6691    3.3499   33.3432 C   0  0  0  0  0  0  0  0  0  0  0  0
  -25.1816    1.2431   25.8491 C   0  0  0  0  0  0  0  0  0  0  0  0
  -23.7589    2.7609   27.4397 C   0  0  0  0  0  0  0  0  0  0  0  0
  -23.2375    2.4894   25.9338 Cl  0  0  0  0  0  0  0  0  0  0  0  0
  5  7  1  0
  3  8  1  0
  8  9  2  3
  9 10  1  0
 10 11  2  3
 11 12  1  0
  8 18  1  0
  9 19  1  0
 19 20  1  0
  1  2  2  0
  2  3  1  0
  3  4  2  0
  4  5  1  0
  5  6  2  0
  6  1  1  0
 12 13  2  0
 13 17  1  0
 17 16  2  0
 16 15  1  0
 15 14  2  0
 14 12  1  0
M  END

$$$$
