No_1605-gen_results/8p0m/2024-11-26-14-13-15/
     RDKit          3D

 29 31  0  0  0  0  0  0  0  0999 V2000
  -28.1229   -1.3353   28.4874 O   0  0  0  0  0  0  0  0  0  0  0  0
  -28.5208   -0.4363   29.0779 C   0  0  0  0  0  0  0  0  0  0  0  0
  -27.6655    0.1129   30.0346 C   0  0  0  0  0  0  0  0  0  0  0  0
  -29.7419    0.1102   28.8873 N   0  0  0  0  0  0  0  0  0  0  0  0
  -26.4110    0.2880   29.8706 C   0  0  0  0  0  0  0  0  0  0  0  0
  -25.5743   -0.7877   30.1070 C   0  0  0  0  0  0  0  0  0  0  0  0
  -24.2346   -0.8153   29.6722 C   0  0  0  0  0  0  0  0  0  0  0  0
  -23.6545    0.4537   29.1906 C   0  0  0  0  0  0  0  0  0  0  0  0
  -24.4962    1.5343   29.0589 C   0  0  0  0  0  0  0  0  0  0  0  0
  -25.8195    1.4158   29.3910 C   0  0  0  0  0  0  0  0  0  0  0  0
  -30.5760   -0.4703   27.8351 C   0  0  0  0  0  0  0  0  0  0  0  0
  -22.2234    0.4816   28.8903 C   0  0  0  0  0  0  0  0  0  0  0  0
  -21.6746    1.4285   28.2007 N   0  0  0  0  0  0  0  0  0  0  0  0
  -21.3981   -0.3809   29.4320 O   0  0  0  0  0  0  0  0  0  0  0  0
  -30.3280    1.1857   29.6033 C   0  0  0  0  0  0  0  0  0  0  0  0
  -31.6175    1.5274   29.5366 C   0  0  0  0  0  0  0  0  0  0  0  0
  -31.9917   -0.1638   27.8000 C   0  0  0  0  0  0  0  0  0  0  0  0
  -32.4416    0.9072   28.5597 C   0  0  0  0  0  0  0  0  0  0  0  0
  -33.8713    1.2432   28.4525 C   0  0  0  0  0  0  0  0  0  0  0  0
  -34.6828    0.5381   28.8969 C   0  0  0  0  0  0  0  0  0  0  0  0
  -36.1195    0.8833   28.8058 C   0  0  0  0  0  0  0  0  0  0  0  0
  -36.4400    2.0914   28.1889 C   0  0  0  0  0  0  0  0  0  0  0  0
  -35.4431    2.8832   27.7128 C   0  0  0  0  0  0  0  0  0  0  0  0
  -34.0566    2.5424   27.8419 C   0  0  0  0  0  0  0  0  0  0  0  0
  -35.7926    4.4107   27.0099 Cl  0  0  0  0  0  0  0  0  0  0  0  0
  -26.6506    2.6682   29.1886 C   0  0  0  0  0  0  0  0  0  0  0  0
  -25.9729    3.7905   28.8177 C   0  0  0  0  0  0  0  0  0  0  0  0
  -26.0321    4.7715   29.5018 O   0  0  0  0  0  0  0  0  0  0  0  0
  -25.3820    3.7932   27.6689 O   0  0  0  0  0  0  0  0  0  0  0  0
  1  2  2  0
  2  3  1  0
  2  4  1  0
  3  5  1  0
  4 11  1  0
  8 12  1  0
 12 13  1  0
 12 14  2  0
  4 15  1  0
 16 18  1  0
 17 18  1  0
 18 19  1  0
 23 25  1  0
 10 26  1  0
 26 27  1  0
 27 28  2  0
 27 29  1  0
 11 17  1  0
 16 15  1  0
  5  6  2  0
  6  7  1  0
  7  8  2  0
  8  9  1  0
  9 10  2  0
 10  5  1  0
 19 20  2  0
 20 21  1  0
 21 22  2  0
 22 23  1  0
 23 24  2  0
 24 19  1  0
M  END

$$$$
