No_1669-gen_results/8p0m/2024-11-26-14-13-15/
     RDKit          3D

 16 17  0  0  0  0  0  0  0  0999 V2000
  -28.0727   -1.2542   28.5316 F   0  0  0  0  0  0  0  0  0  0  0  0
  -27.0607   -0.6291   28.8721 C   0  0  0  0  0  0  0  0  0  0  0  0
  -26.1528   -1.1557   29.4537 C   0  0  0  0  0  0  0  0  0  0  0  0
  -24.8778   -0.5788   29.8639 C   0  0  0  0  0  0  0  0  0  0  0  0
  -24.7426    0.8273   29.4808 C   0  0  0  0  0  0  0  0  0  0  0  0
  -25.7883    1.3927   28.7628 C   0  0  0  0  0  0  0  0  0  0  0  0
  -26.9145    0.7309   28.4427 C   0  0  0  0  0  0  0  0  0  0  0  0
  -23.5403    1.5267   29.8447 C   0  0  0  0  0  0  0  0  0  0  0  0
  -23.1733    1.5522   30.9444 O   0  0  0  0  0  0  0  0  0  0  0  0
  -22.7974    2.0063   28.8574 O   0  0  0  0  0  0  0  0  0  0  0  0
  -27.9496    1.3862   27.6731 C   0  0  0  0  0  0  0  0  0  0  0  0
  -28.7517    2.1716   28.3415 C   0  0  0  0  0  0  0  0  0  0  0  0
  -29.8178    2.8535   27.6456 C   0  0  0  0  0  0  0  0  0  0  0  0
  -29.9590    2.5921   26.2589 C   0  0  0  0  0  0  0  0  0  0  0  0
  -29.1147    1.7379   25.5837 C   0  0  0  0  0  0  0  0  0  0  0  0
  -28.0689    1.1271   26.3060 C   0  0  0  0  0  0  0  0  0  0  0  0
  1  2  1  0
  5  8  1  0
  8  9  1  0
  8 10  2  0
  7 11  1  0
 11 12  2  0
 12 13  1  0
 13 14  2  0
 14 15  1  0
 15 16  2  0
 16 11  1  0
  2  3  2  0
  3  4  1  0
  4  5  2  0
  5  6  1  0
  6  7  2  0
  7  2  1  0
M  END

$$$$
