No_1030-gen_results/8p0m/2024-11-26-14-13-15/
     RDKit          3D

 35 38  0  0  0  0  0  0  0  0999 V2000
  -28.0162   -0.8135   28.8779 C   0  0  0  0  0  0  0  0  0  0  0  0
  -27.0636   -0.1190   28.6079 C   0  0  0  0  0  0  0  0  0  0  0  0
  -25.7647   -0.3897   29.0360 C   0  0  0  0  0  0  0  0  0  0  0  0
  -24.5516    0.4058   28.7646 C   0  0  0  0  0  0  0  0  0  0  0  0
  -23.2300    0.1178   29.2575 C   0  0  0  0  0  0  0  0  0  0  0  0
  -23.0942   -1.1309   29.8730 C   0  0  0  0  0  0  0  0  0  0  0  0
  -27.7981   -1.9341   29.8560 C   0  0  0  0  0  0  0  0  0  0  0  0
  -26.5420   -2.3269   30.2580 C   0  0  0  0  0  0  0  0  0  0  0  0
  -25.4514   -1.5516   29.9079 C   0  0  0  0  0  0  0  0  0  0  0  0
  -24.1562   -1.9097   30.2809 C   0  0  0  0  0  0  0  0  0  0  0  0
  -24.6450    1.6582   27.9464 C   0  0  0  0  0  0  0  0  0  0  0  0
  -25.0764    1.5784   26.6992 C   0  0  0  0  0  0  0  0  0  0  0  0
  -23.2842    2.4009   28.0085 C   0  0  0  0  0  0  0  0  0  0  0  0
  -25.5975    2.6286   28.7777 C   0  0  0  0  0  0  0  0  0  0  0  0
  -25.3815    4.0349   28.5942 C   0  0  0  0  0  0  0  0  0  0  0  0
  -26.0248    4.8521   29.6673 C   0  0  0  0  0  0  0  0  0  0  0  0
  -25.2834    4.9946   30.9468 Cl  0  0  0  0  0  0  0  0  0  0  0  0
  -26.3126    6.2212   29.1266 N   0  0  0  0  0  0  0  0  0  0  0  0
  -28.9256   -2.6486   30.1600 O   0  0  0  0  0  0  0  0  0  0  0  0
  -29.2143   -2.8798   31.5244 C   0  0  0  0  0  0  0  0  0  0  0  0
  -29.7352   -4.2119   31.7352 C   0  0  0  0  0  0  0  0  0  0  0  0
  -29.5289   -5.0644   31.0304 O   0  0  0  0  0  0  0  0  0  0  0  0
  -30.0093   -4.5959   32.9810 O   0  0  0  0  0  0  0  0  0  0  0  0
  -26.5469    7.1689   29.7460 C   0  0  0  0  0  0  0  0  0  0  0  0
  -26.8812    6.0895   27.7295 C   0  0  0  0  0  0  0  0  0  0  0  0
  -26.6957    8.4321   29.1980 C   0  0  0  0  0  0  0  0  0  0  0  0
  -27.3571    8.5524   27.9807 C   0  0  0  0  0  0  0  0  0  0  0  0
  -27.6744    9.7066   27.3407 C   0  0  0  0  0  0  0  0  0  0  0  0
  -27.3207    7.3171   27.1820 C   0  0  0  0  0  0  0  0  0  0  0  0
  -28.6813   10.1482   26.1111 Br  0  0  0  0  0  0  0  0  0  0  0  0
  -26.9171   10.9858   27.9126 C   0  0  0  0  0  0  0  0  0  0  0  0
  -26.4929   10.9410   29.1434 C   0  0  0  0  0  0  0  0  0  0  0  0
  -26.3323    9.7122   29.8554 C   0  0  0  0  0  0  0  0  0  0  0  0
  -25.5641    9.6916   31.1443 C   0  0  0  0  0  0  0  0  0  0  0  0
  -24.7668    9.0112   31.4014 O   0  0  0  0  0  0  0  0  0  0  0  0
  4 11  1  0
 11 12  1  0
 11 13  1  0
 11 14  1  0
 14 15  1  0
 15 16  1  0
 16 17  1  0
 16 18  1  0
  7 19  1  0
 19 20  1  0
 20 21  1  0
 21 22  2  0
 21 23  1  0
 18 24  1  0
 18 25  1  0
 27 29  1  0
 28 30  1  0
 33 34  1  0
 34 35  2  0
 24 26  1  0
 29 25  1  0
  1  2  2  0
  2  3  1  0
  9  8  1  0
  8  7  2  0
  7  1  1  0
 26 27  2  0
 27 28  1  0
 28 31  2  0
 31 32  1  0
 32 33  2  0
 33 26  1  0
  3  4  2  0
  4  5  1  0
  5  6  2  0
  6 10  1  0
 10  9  2  0
  9  3  1  0
M  END

$$$$
