No_1018-gen_results/8p0m/2024-11-26-14-13-15/
     RDKit          3D

 22 24  0  0  0  0  0  0  0  0999 V2000
  -28.0162   -0.8135   28.8779 C   0  0  0  0  0  0  0  0  0  0  0  0
  -28.4690   -0.7850   29.8287 C   0  0  0  0  0  0  0  0  0  0  0  0
  -26.5455   -0.8762   28.8500 C   0  0  0  0  0  0  0  0  0  0  0  0
  -25.8041   -1.0324   30.0571 C   0  0  0  0  0  0  0  0  0  0  0  0
  -24.3697   -1.0998   30.0718 C   0  0  0  0  0  0  0  0  0  0  0  0
  -27.9902   -1.0051   31.2092 C   0  0  0  0  0  0  0  0  0  0  0  0
  -26.4318   -1.0480   31.2503 C   0  0  0  0  0  0  0  0  0  0  0  0
  -23.6966    0.1485   29.9413 C   0  0  0  0  0  0  0  0  0  0  0  0
  -24.0069    1.2734   30.5004 C   0  0  0  0  0  0  0  0  0  0  0  0
  -22.4645    0.1625   29.0940 C   0  0  0  0  0  0  0  0  0  0  0  0
  -22.0002    1.2966   28.4548 C   0  0  0  0  0  0  0  0  0  0  0  0
  -25.1963    1.3748   31.3888 C   0  0  0  0  0  0  0  0  0  0  0  0
  -22.7603    1.8037   27.4418 C   0  0  0  0  0  0  0  0  0  0  0  0
  -25.8071    2.5791   31.4365 C   0  0  0  0  0  0  0  0  0  0  0  0
  -22.7503    1.5543   26.0904 C   0  0  0  0  0  0  0  0  0  0  0  0
  -26.9981    2.6768   32.2165 C   0  0  0  0  0  0  0  0  0  0  0  0
  -23.9966    1.7509   25.4388 C   0  0  0  0  0  0  0  0  0  0  0  0
  -25.0567    2.3622   26.2211 C   0  0  0  0  0  0  0  0  0  0  0  0
  -24.1589    2.4255   27.6848 C   0  0  0  0  0  0  0  0  0  0  0  0
  -27.2393    1.7254   33.1800 C   0  0  0  0  0  0  0  0  0  0  0  0
  -26.4247    0.6364   33.3393 C   0  0  0  0  0  0  0  0  0  0  0  0
  -25.2984    0.4911   32.4388 C   0  0  0  0  0  0  0  0  0  0  0  0
  4  5  1  0
  5  8  1  0
  8  9  1  0
  8 10  1  0
 10 11  1  0
  9 12  1  0
 11 13  1  0
 13 15  2  0
 15 17  1  0
 17 18  2  0
 13 19  1  0
 18 19  1  0
  1  2  2  0
  2  6  1  0
  6  7  2  0
  7  4  1  0
  4  3  2  0
  3  1  1  0
 12 14  2  0
 14 16  1  0
 16 20  2  0
 20 21  1  0
 21 22  2  0
 22 12  1  0
M  END

$$$$
