No_1169-gen_results/8p0m/2024-11-26-14-13-15/
     RDKit          3D

 14 14  0  0  0  0  0  0  0  0999 V2000
  -28.0162   -0.8135   28.8779 C   0  0  0  0  0  0  0  0  0  0  0  0
  -27.0636   -0.1190   28.6079 C   0  0  0  0  0  0  0  0  0  0  0  0
  -26.9287    1.1713   29.0083 C   0  0  0  0  0  0  0  0  0  0  0  0
  -27.9560    1.7411   29.7840 C   0  0  0  0  0  0  0  0  0  0  0  0
  -29.0569   -0.3271   29.7466 C   0  0  0  0  0  0  0  0  0  0  0  0
  -28.9828    0.9722   30.1516 C   0  0  0  0  0  0  0  0  0  0  0  0
  -25.7352   -0.7297   27.6631 Cl  0  0  0  0  0  0  0  0  0  0  0  0
  -30.0810    1.5109   31.0108 C   0  0  0  0  0  0  0  0  0  0  0  0
  -29.8155    2.4164   31.7831 N   0  0  0  0  0  0  0  0  0  0  0  0
  -31.2030    0.9702   30.9013 O   0  0  0  0  0  0  0  0  0  0  0  0
  -30.4495    3.0204   32.5876 C   0  0  0  0  0  0  0  0  0  0  0  0
  -30.0487    4.0290   33.3178 C   0  0  0  0  0  0  0  0  0  0  0  0
  -28.6750    4.5158   33.2035 C   0  0  0  0  0  0  0  0  0  0  0  0
  -27.8548    3.7887   32.2756 C   0  0  0  0  0  0  0  0  0  0  0  0
  2  7  1  0
  6  8  1  0
  8  9  1  0
  8 10  2  0
  9 11  2  3
 11 12  1  0
 12 13  2  3
 13 14  1  0
  1  2  2  0
  2  3  1  0
  3  4  2  0
  4  6  1  0
  6  5  2  0
  5  1  1  0
M  END

$$$$
