No_1955-gen_results/8p0m/2024-11-26-14-13-15/
     RDKit          3D

 14 15  0  0  0  0  0  0  0  0999 V2000
  -28.0162   -0.8135   28.8779 C   0  0  0  0  0  0  0  0  0  0  0  0
  -28.4690   -0.7850   29.8287 C   0  0  0  0  0  0  0  0  0  0  0  0
  -26.5042   -0.7777   28.8766 C   0  0  0  0  0  0  0  0  0  0  0  0
  -25.6540   -0.6597   27.7191 C   0  0  0  0  0  0  0  0  0  0  0  0
  -29.9920   -0.8134   29.9579 C   0  0  0  0  0  0  0  0  0  0  0  0
  -24.8930    0.2971   27.6171 C   0  0  0  0  0  0  0  0  0  0  0  0
  -24.1110    0.7916   28.7509 C   0  0  0  0  0  0  0  0  0  0  0  0
  -24.7189    0.4920   29.9976 C   0  0  0  0  0  0  0  0  0  0  0  0
  -25.9026   -0.2233   30.0386 C   0  0  0  0  0  0  0  0  0  0  0  0
  -30.5622   -0.8660   28.7635 C   0  0  0  0  0  0  0  0  0  0  0  0
  -29.9311   -0.6368   27.6046 C   0  0  0  0  0  0  0  0  0  0  0  0
  -28.5720   -0.5855   27.6153 C   0  0  0  0  0  0  0  0  0  0  0  0
  -22.8899    1.5410   28.6025 C   0  0  0  0  0  0  0  0  0  0  0  0
  -22.5345    2.0018   27.3614 N   0  0  0  0  0  0  0  0  0  0  0  0
  7 13  1  0
 13 14  2  0
  3  1  1  0
  3  4  2  0
  4  6  1  0
  6  7  2  0
  7  8  1  0
  8  9  2  0
  9  3  1  0
  1  2  2  0
  2  5  1  0
  5 10  2  0
 10 11  1  0
 11 12  2  0
 12  1  1  0
M  END

$$$$
