No_1421-gen_results/8p0m/2024-11-26-14-13-15/
     RDKit          3D

 35 37  0  0  0  0  0  0  0  0999 V2000
  -28.0727   -1.2542   28.5316 F   0  0  0  0  0  0  0  0  0  0  0  0
  -28.2662   -0.4214   29.1931 C   0  0  0  0  0  0  0  0  0  0  0  0
  -29.4445    0.0759   29.3394 C   0  0  0  0  0  0  0  0  0  0  0  0
  -29.7073    1.1743   30.2277 C   0  0  0  0  0  0  0  0  0  0  0  0
  -28.5970    1.7109   30.9110 C   0  0  0  0  0  0  0  0  0  0  0  0
  -27.3024    1.1821   30.7905 C   0  0  0  0  0  0  0  0  0  0  0  0
  -27.1217    0.1218   29.9802 C   0  0  0  0  0  0  0  0  0  0  0  0
  -25.7978   -0.4263   29.8450 C   0  0  0  0  0  0  0  0  0  0  0  0
  -24.8351   -0.0775   30.0454 C   0  0  0  0  0  0  0  0  0  0  0  0
  -23.4872   -0.6446   29.8454 C   0  0  0  0  0  0  0  0  0  0  0  0
  -23.5689   -1.8860   29.1634 C   0  0  0  0  0  0  0  0  0  0  0  0
  -24.7433   -2.4534   28.8407 C   0  0  0  0  0  0  0  0  0  0  0  0
  -25.9034   -1.8258   29.1869 C   0  0  0  0  0  0  0  0  0  0  0  0
  -26.9179   -2.5227   29.0331 O   0  0  0  0  0  0  0  0  0  0  0  0
  -27.4977   -3.5994   29.5027 C   0  0  0  0  0  0  0  0  0  0  0  0
  -30.4530   -0.3994   28.6981 O   0  0  0  0  0  0  0  0  0  0  0  0
  -31.7615    0.0365   28.8382 C   0  0  0  0  0  0  0  0  0  0  0  0
  -32.6650   -0.7832   28.2006 C   0  0  0  0  0  0  0  0  0  0  0  0
  -32.3895   -1.8185   27.6650 O   0  0  0  0  0  0  0  0  0  0  0  0
  -33.8424   -0.9485   28.7449 F   0  0  0  0  0  0  0  0  0  0  0  0
  -33.0342   -0.0725   26.9912 F   0  0  0  0  0  0  0  0  0  0  0  0
  -28.7694    2.8702   31.8593 C   0  0  0  0  0  0  0  0  0  0  0  0
  -29.7290    3.3739   32.1180 O   0  0  0  0  0  0  0  0  0  0  0  0
  -27.5358    3.4844   32.1812 N   0  0  0  0  0  0  0  0  0  0  0  0
  -27.5538    4.6399   33.1251 C   0  0  0  0  0  0  0  0  0  0  0  0
  -26.2731    5.1614   33.2238 C   0  0  0  0  0  0  0  0  0  0  0  0
  -25.5563    5.5439   32.1140 C   0  0  0  0  0  0  0  0  0  0  0  0
  -25.6192    4.4921   31.0864 C   0  0  0  0  0  0  0  0  0  0  0  0
  -26.8690    3.8758   30.8850 C   0  0  0  0  0  0  0  0  0  0  0  0
  -24.6503    3.5173   31.3876 O   0  0  0  0  0  0  0  0  0  0  0  0
  -24.1251    5.9179   32.3447 O   0  0  0  0  0  0  0  0  0  0  0  0
  -22.0165    0.0632   30.2059 Cl  0  0  0  0  0  0  0  0  0  0  0  0
  -28.7409   -3.5109   30.3070 C   0  0  0  0  0  0  0  0  0  0  0  0
  -29.2453   -4.7255   30.8319 C   0  0  0  0  0  0  0  0  0  0  0  0
  -30.4827   -5.1050   30.2579 C   0  0  0  0  0  0  0  0  0  0  0  0
  1  2  1  0
  7  8  1  0
 13 14  1  0
 14 15  1  0
  3 16  1  0
 16 17  1  0
 17 18  1  0
 18 19  1  0
 18 20  1  0
 18 21  1  0
  5 22  1  0
 22 23  2  0
 22 24  1  0
 24 25  1  0
 26 27  1  0
 27 28  1  0
 24 29  1  0
 28 29  1  0
 28 30  1  0
 27 31  1  0
 10 32  1  0
 15 33  2  3
 33 34  1  0
 34 35  2  0
 25 26  1  0
  2  3  2  0
  3  4  1  0
  4  5  2  0
  5  6  1  0
  6  7  2  0
  7  2  1  0
  8  9  2  0
  9 10  1  0
 10 11  2  0
 11 12  1  0
 12 13  2  0
 13  8  1  0
M  END

$$$$
