No_1377-gen_results/8p0m/2024-11-26-14-13-15/
     RDKit          3D

 20 22  0  0  0  0  0  0  0  0999 V2000
  -28.0162   -0.8135   28.8779 C   0  0  0  0  0  0  0  0  0  0  0  0
  -27.0636   -0.1189   28.6079 C   0  0  0  0  0  0  0  0  0  0  0  0
  -25.7923   -0.4302   29.0761 C   0  0  0  0  0  0  0  0  0  0  0  0
  -25.5756   -1.5654   29.9363 C   0  0  0  0  0  0  0  0  0  0  0  0
  -26.7354   -2.3004   30.2173 C   0  0  0  0  0  0  0  0  0  0  0  0
  -27.9184   -1.9537   29.7629 C   0  0  0  0  0  0  0  0  0  0  0  0
  -27.1057    1.1023   27.7593 C   0  0  0  0  0  0  0  0  0  0  0  0
  -26.7157    2.2350   27.9945 C   0  0  0  0  0  0  0  0  0  0  0  0
  -26.6929    3.3459   27.0337 C   0  0  0  0  0  0  0  0  0  0  0  0
  -27.1962    3.0779   25.7437 C   0  0  0  0  0  0  0  0  0  0  0  0
  -27.5814    0.8882   26.3714 C   0  0  0  0  0  0  0  0  0  0  0  0
  -27.5996    1.7720   25.6240 C   0  0  0  0  0  0  0  0  0  0  0  0
  -28.1715    1.5285   24.1689 C   0  0  0  0  0  0  0  0  0  0  0  0
  -29.5510    1.2576   24.2118 C   0  0  0  0  0  0  0  0  0  0  0  0
  -30.5467    1.7295   23.7706 C   0  0  0  0  0  0  0  0  0  0  0  0
  -31.9196    1.3753   23.7602 C   0  0  0  0  0  0  0  0  0  0  0  0
  -32.9532    2.1252   23.2302 C   0  0  0  0  0  0  0  0  0  0  0  0
  -32.6351    3.4062   22.6726 C   0  0  0  0  0  0  0  0  0  0  0  0
  -31.3670    3.8519   22.6233 C   0  0  0  0  0  0  0  0  0  0  0  0
  -30.3255    3.1412   23.1448 C   0  0  0  0  0  0  0  0  0  0  0  0
  2  7  1  0
 12 13  1  0
 13 14  1  0
 14 15  1  0
  7  8  2  0
  8  9  1  0
  9 10  2  0
 10 12  1  0
 12 11  2  0
 11  7  1  0
  1  2  2  0
  2  3  1  0
  3  4  2  0
  4  5  1  0
  5  6  2  0
  6  1  1  0
 15 16  2  0
 16 17  1  0
 17 18  2  0
 18 19  1  0
 19 20  2  0
 20 15  1  0
M  END

$$$$
