No_1915-gen_results/8p0m/2024-11-26-14-13-15/
     RDKit          3D

 26 29  0  0  0  0  0  0  0  0999 V2000
  -28.0162   -0.8135   28.8779 C   0  0  0  0  0  0  0  0  0  0  0  0
  -28.4690   -0.7850   29.8287 C   0  0  0  0  0  0  0  0  0  0  0  0
  -26.5042   -0.7777   28.8766 C   0  0  0  0  0  0  0  0  0  0  0  0
  -25.8103   -0.8531   30.1028 C   0  0  0  0  0  0  0  0  0  0  0  0
  -27.9906   -0.8916   31.2257 C   0  0  0  0  0  0  0  0  0  0  0  0
  -26.6042   -0.8676   31.2652 C   0  0  0  0  0  0  0  0  0  0  0  0
  -24.3894   -0.8049   30.1638 C   0  0  0  0  0  0  0  0  0  0  0  0
  -23.8172    0.4762   29.9118 C   0  0  0  0  0  0  0  0  0  0  0  0
  -23.2476    0.8215   28.7226 C   0  0  0  0  0  0  0  0  0  0  0  0
  -23.5684    2.0468   28.0656 C   0  0  0  0  0  0  0  0  0  0  0  0
  -24.4547    2.8934   28.7205 C   0  0  0  0  0  0  0  0  0  0  0  0
  -24.9593    2.6594   29.9813 C   0  0  0  0  0  0  0  0  0  0  0  0
  -24.6687    1.4789   30.6634 C   0  0  0  0  0  0  0  0  0  0  0  0
  -25.8573   -0.6170   27.6067 C   0  0  0  0  0  0  0  0  0  0  0  0
  -25.8400    3.6410   30.6164 C   0  0  0  0  0  0  0  0  0  0  0  0
  -26.0672    4.6085   30.3732 N   0  0  0  0  0  0  0  0  0  0  0  0
  -26.5107    3.0776   31.6292 O   0  0  0  0  0  0  0  0  0  0  0  0
  -27.0294    5.6195   31.0332 C   0  0  0  0  0  0  0  0  0  0  0  0
  -30.1000   -0.8234   29.8368 C   0  0  0  0  0  0  0  0  0  0  0  0
  -30.5612   -0.3952   28.8809 O   0  0  0  0  0  0  0  0  0  0  0  0
  -30.7526   -1.2870   30.8218 O   0  0  0  0  0  0  0  0  0  0  0  0
  -27.6977    6.2933   30.2630 C   0  0  0  0  0  0  0  0  0  0  0  0
  -27.2210    6.6371   29.1267 C   0  0  0  0  0  0  0  0  0  0  0  0
  -26.1400    5.9356   28.4538 C   0  0  0  0  0  0  0  0  0  0  0  0
  -25.6946    4.9973   29.0537 C   0  0  0  0  0  0  0  0  0  0  0  0
  -24.8228    4.0083   28.3689 C   0  0  0  0  0  0  0  0  0  0  0  0
  4  7  1  0
  7  8  1  0
  3 14  1  0
 12 15  1  0
 15 16  1  0
 15 17  2  0
 16 18  1  0
  2 19  1  0
 19 20  1  0
 19 21  2  0
 18 22  1  0
 23 24  1  0
 16 25  1  0
 24 25  1  0
 11 26  1  0
 25 26  1  0
 22 23  1  0
  8  9  2  0
  9 10  1  0
 10 11  2  0
 11 12  1  0
 12 13  2  0
 13  8  1  0
  1  2  2  0
  2  5  1  0
  5  6  2  0
  6  4  1  0
  4  3  2  0
  3  1  1  0
M  END

$$$$
