No_100-gen_results/8p0m/2024-11-26-14-13-15/
     RDKit          3D

 18 19  0  0  0  0  0  0  0  0999 V2000
  -28.0162   -0.8135   28.8779 C   0  0  0  0  0  0  0  0  0  0  0  0
  -28.4690   -0.7850   29.8287 C   0  0  0  0  0  0  0  0  0  0  0  0
  -26.5042   -0.7777   28.8766 C   0  0  0  0  0  0  0  0  0  0  0  0
  -25.8103   -0.8531   30.1028 C   0  0  0  0  0  0  0  0  0  0  0  0
  -27.9906   -0.8916   31.2257 C   0  0  0  0  0  0  0  0  0  0  0  0
  -26.6042   -0.8676   31.2652 C   0  0  0  0  0  0  0  0  0  0  0  0
  -30.2937   -0.8377   29.8355 Cl  0  0  0  0  0  0  0  0  0  0  0  0
  -24.3700   -0.8208   30.1393 C   0  0  0  0  0  0  0  0  0  0  0  0
  -23.6623   -1.3275   30.7489 C   0  0  0  0  0  0  0  0  0  0  0  0
  -23.7481    0.1451   29.1412 C   0  0  0  0  0  0  0  0  0  0  0  0
  -22.6569    0.3642   29.1732 C   0  0  0  0  0  0  0  0  0  0  0  0
  -22.2225   -1.2222   30.9000 C   0  0  0  0  0  0  0  0  0  0  0  0
  -21.7100   -0.3489   29.9283 C   0  0  0  0  0  0  0  0  0  0  0  0
  -21.9778    1.3024   28.0967 C   0  0  0  0  0  0  0  0  0  0  0  0
  -20.8322    1.7830   28.3118 O   0  0  0  0  0  0  0  0  0  0  0  0
  -22.7451    1.9317   27.2151 O   0  0  0  0  0  0  0  0  0  0  0  0
  -22.5201    1.8537   25.9115 C   0  0  0  0  0  0  0  0  0  0  0  0
  -25.6878   -0.7008   27.3946 Cl  0  0  0  0  0  0  0  0  0  0  0  0
  2  7  1  0
  4  8  1  0
 11 14  1  0
 14 15  2  0
 14 16  1  0
 16 17  1  0
  3 18  1  0
  8  9  2  0
  9 12  1  0
 12 13  2  0
 13 11  1  0
 11 10  2  0
 10  8  1  0
  1  2  2  0
  2  5  1  0
  5  6  2  0
  6  4  1  0
  4  3  2  0
  3  1  1  0
M  END

$$$$
