No_1757-gen_results/8p0m/2024-11-26-14-13-15/
     RDKit          3D

 16 17  0  0  0  0  0  0  0  0999 V2000
  -28.0162   -0.8135   28.8779 C   0  0  0  0  0  0  0  0  0  0  0  0
  -28.4690   -0.7850   29.8287 C   0  0  0  0  0  0  0  0  0  0  0  0
  -26.5042   -0.7777   28.8766 C   0  0  0  0  0  0  0  0  0  0  0  0
  -25.6540   -0.6597   27.7191 C   0  0  0  0  0  0  0  0  0  0  0  0
  -27.9180   -0.9374   31.1824 C   0  0  0  0  0  0  0  0  0  0  0  0
  -26.5423   -0.9399   31.2606 C   0  0  0  0  0  0  0  0  0  0  0  0
  -25.7832   -0.8935   30.1201 C   0  0  0  0  0  0  0  0  0  0  0  0
  -24.3632   -0.5034   27.8686 N   0  0  0  0  0  0  0  0  0  0  0  0
  -23.6823   -0.6782   29.0280 C   0  0  0  0  0  0  0  0  0  0  0  0
  -24.3893   -0.7737   30.2235 C   0  0  0  0  0  0  0  0  0  0  0  0
  -22.3271   -0.5331   29.0212 N   0  0  0  0  0  0  0  0  0  0  0  0
  -21.4890    0.4460   28.5766 C   0  0  0  0  0  0  0  0  0  0  0  0
  -22.0597    1.7317   28.0928 C   0  0  0  0  0  0  0  0  0  0  0  0
  -21.6065    2.1671   26.9430 O   0  0  0  0  0  0  0  0  0  0  0  0
  -23.0762    2.2122   28.6435 O   0  0  0  0  0  0  0  0  0  0  0  0
  -29.8980   -0.8612   29.8627 F   0  0  0  0  0  0  0  0  0  0  0  0
  9 11  1  0
 11 12  1  0
 12 13  1  0
 13 14  2  0
 13 15  1  0
  2 16  1  0
  1  2  2  0
  2  5  1  0
  5  6  2  0
  6  7  1  0
  3  1  1  0
  3  4  2  0
  4  8  1  0
  8  9  2  0
  9 10  1  0
 10  7  2  0
  7  3  1  0
M  END

$$$$
