No_1428-gen_results/8p0m/2024-11-26-14-13-15/
     RDKit          3D

 16 16  0  0  0  0  0  0  0  0999 V2000
  -28.0162   -0.8135   28.8779 C   0  0  0  0  0  0  0  0  0  0  0  0
  -27.0636   -0.1190   28.6079 C   0  0  0  0  0  0  0  0  0  0  0  0
  -26.9716    0.7139   27.5060 C   0  0  0  0  0  0  0  0  0  0  0  0
  -28.1053    0.7744   26.6421 C   0  0  0  0  0  0  0  0  0  0  0  0
  -29.2041    0.1179   27.0477 C   0  0  0  0  0  0  0  0  0  0  0  0
  -29.2127   -0.6088   28.1281 C   0  0  0  0  0  0  0  0  0  0  0  0
  -25.9805    1.5620   27.0835 O   0  0  0  0  0  0  0  0  0  0  0  0
  -24.8273    1.6630   27.9729 C   0  0  0  0  0  0  0  0  0  0  0  0
  -24.0726    2.8456   27.8837 C   0  0  0  0  0  0  0  0  0  0  0  0
  -23.8170    0.4795   27.8008 C   0  0  0  0  0  0  0  0  0  0  0  0
  -30.4185    0.1875   26.1841 C   0  0  0  0  0  0  0  0  0  0  0  0
  -31.2125   -0.5983   25.9526 O   0  0  0  0  0  0  0  0  0  0  0  0
  -30.7937    1.4064   25.7299 O   0  0  0  0  0  0  0  0  0  0  0  0
  -22.9788    0.2336   28.9824 C   0  0  0  0  0  0  0  0  0  0  0  0
  -22.3646   -0.9871   29.0028 C   0  0  0  0  0  0  0  0  0  0  0  0
  -23.9363    3.3828   26.8815 O   0  0  0  0  0  0  0  0  0  0  0  0
  3  7  1  0
  7  8  1  0
  8  9  1  0
  8 10  1  0
  5 11  1  0
 11 12  2  0
 11 13  1  0
 10 14  1  0
 14 15  2  0
  9 16  1  0
  1  2  2  0
  2  3  1  0
  3  4  2  0
  4  5  1  0
  5  6  2  0
  6  1  1  0
M  END

$$$$
