No_1480-gen_results/8p0m/2024-11-26-14-13-15/
     RDKit          3D

 28 31  0  0  0  0  0  0  0  0999 V2000
  -28.0162   -0.8135   28.8779 C   0  0  0  0  0  0  0  0  0  0  0  0
  -28.4690   -0.7850   29.8287 C   0  0  0  0  0  0  0  0  0  0  0  0
  -28.1960    0.3478   28.0550 C   0  0  0  0  0  0  0  0  0  0  0  0
  -27.4421    0.5100   26.7946 C   0  0  0  0  0  0  0  0  0  0  0  0
  -27.8427    1.3330   25.8056 C   0  0  0  0  0  0  0  0  0  0  0  0
  -29.4956    0.1092   30.3452 C   0  0  0  0  0  0  0  0  0  0  0  0
  -29.7284    1.1870   29.5687 C   0  0  0  0  0  0  0  0  0  0  0  0
  -29.0420    1.3665   28.3718 C   0  0  0  0  0  0  0  0  0  0  0  0
  -26.1281   -0.0671   26.6257 C   0  0  0  0  0  0  0  0  0  0  0  0
  -25.2466   -0.2457   27.7552 C   0  0  0  0  0  0  0  0  0  0  0  0
  -24.7043    0.7314   28.5496 C   0  0  0  0  0  0  0  0  0  0  0  0
  -24.5183    2.0454   28.0076 C   0  0  0  0  0  0  0  0  0  0  0  0
  -23.5501    2.1656   27.1948 C   0  0  0  0  0  0  0  0  0  0  0  0
  -25.2854    3.1431   28.4706 C   0  0  0  0  0  0  0  0  0  0  0  0
  -25.1625    4.4247   27.8818 C   0  0  0  0  0  0  0  0  0  0  0  0
  -23.4132    3.5197   26.4700 C   0  0  0  0  0  0  0  0  0  0  0  0
  -24.2631    4.5656   26.8516 C   0  0  0  0  0  0  0  0  0  0  0  0
  -27.2586    1.5048   24.7697 C   0  0  0  0  0  0  0  0  0  0  0  0
  -27.8980    2.2940   23.7643 C   0  0  0  0  0  0  0  0  0  0  0  0
  -29.1801    2.8038   23.9051 C   0  0  0  0  0  0  0  0  0  0  0  0
  -29.8445    2.6048   25.1117 C   0  0  0  0  0  0  0  0  0  0  0  0
  -29.2468    1.8761   26.0475 C   0  0  0  0  0  0  0  0  0  0  0  0
  -29.7899    1.8468   27.3163 N   0  0  0  0  0  0  0  0  0  0  0  0
  -24.5084    0.5469   29.9609 C   0  0  0  0  0  0  0  0  0  0  0  0
  -23.9973   -0.5185   30.3984 N   0  0  0  0  0  0  0  0  0  0  0  0
  -24.2853   -1.0294   31.6185 C   0  0  0  0  0  0  0  0  0  0  0  0
  -23.0370   -1.2091   29.6462 C   0  0  0  0  0  0  0  0  0  0  0  0
  -24.8734    1.4914   30.7744 O   0  0  0  0  0  0  0  0  0  0  0  0
  4  9  1  0
  9 10  1  0
 10 11  2  3
 11 12  1  0
 11 24  1  0
 24 25  1  0
 25 26  1  0
 25 27  1  0
 24 28  2  0
  3  4  2  0
  4  5  1  0
 22 23  1  0
 23  8  2  0
 12 13  2  0
 13 16  1  0
 16 17  2  0
 17 15  1  0
 15 14  2  0
 14 12  1  0
  1  2  2  0
  2  6  1  0
  6  7  2  0
  7  8  1  0
  8  3  1  0
  3  1  1  0
  5 18  2  0
 18 19  1  0
 19 20  2  0
 20 21  1  0
 21 22  2  0
 22  5  1  0
M  END

$$$$
