No_1035-gen_results/8p0m/2024-11-26-14-13-15/
     RDKit          3D

 22 24  0  0  0  0  0  0  0  0999 V2000
  -28.0162   -0.8135   28.8779 C   0  0  0  0  0  0  0  0  0  0  0  0
  -28.4690   -0.7850   29.8287 C   0  0  0  0  0  0  0  0  0  0  0  0
  -27.1356    0.2359   28.5352 C   0  0  0  0  0  0  0  0  0  0  0  0
  -26.8050    1.0509   29.2763 C   0  0  0  0  0  0  0  0  0  0  0  0
  -28.2372    0.1503   30.9300 C   0  0  0  0  0  0  0  0  0  0  0  0
  -27.3522    1.1239   30.6071 C   0  0  0  0  0  0  0  0  0  0  0  0
  -26.5358    0.1657   27.2407 O   0  0  0  0  0  0  0  0  0  0  0  0
  -25.9517    1.3444   26.7368 C   0  0  0  0  0  0  0  0  0  0  0  0
  -24.6698    1.5739   27.4291 C   0  0  0  0  0  0  0  0  0  0  0  0
  -24.6835    2.1201   28.7906 C   0  0  0  0  0  0  0  0  0  0  0  0
  -25.5521    2.2198   29.2920 C   0  0  0  0  0  0  0  0  0  0  0  0
  -23.4866    1.5646   26.5625 C   0  0  0  0  0  0  0  0  0  0  0  0
  -22.2247    1.6605   27.2427 C   0  0  0  0  0  0  0  0  0  0  0  0
  -22.1752    2.0765   28.6419 C   0  0  0  0  0  0  0  0  0  0  0  0
  -23.2853    2.2781   29.3178 C   0  0  0  0  0  0  0  0  0  0  0  0
  -29.5311   -1.9414   30.2684 C   0  0  0  0  0  0  0  0  0  0  0  0
  -29.1248   -3.1215   30.5274 O   0  0  0  0  0  0  0  0  0  0  0  0
  -30.6105   -1.6370   30.8153 O   0  0  0  0  0  0  0  0  0  0  0  0
  -26.3614    3.6650   29.0944 C   0  0  0  0  0  0  0  0  0  0  0  0
  -26.2882    4.3608   30.3025 C   0  0  0  0  0  0  0  0  0  0  0  0
  -26.8138    5.6977   30.2469 C   0  0  0  0  0  0  0  0  0  0  0  0
  -27.4857    6.1329   29.1303 C   0  0  0  0  0  0  0  0  0  0  0  0
  3  7  1  0
  7  8  1  0
  8  9  1  0
  4 11  1  0
  2 16  1  0
 16 17  1  0
 16 18  2  0
 11 19  1  0
 19 20  2  3
 20 21  1  0
 21 22  2  0
 11 10  1  0
  9 10  2  0
 10 15  1  0
 15 14  2  0
 14 13  1  0
 13 12  2  0
 12  9  1  0
  1  2  2  0
  2  5  1  0
  5  6  2  0
  6  4  1  0
  4  3  2  0
  3  1  1  0
M  END

$$$$
