No_1182-gen_results/8p0m/2024-11-26-14-13-15/
     RDKit          3D

  6  5  0  0  0  0  0  0  0  0999 V2000
  -28.1229   -1.3353   28.4874 O   0  0  0  0  0  0  0  0  0  0  0  0
  -27.4806   -0.4044   28.7094 C   0  0  0  0  0  0  0  0  0  0  0  0
  -27.1904    0.2460   29.5268 C   0  0  0  0  0  0  0  0  0  0  0  0
  -26.5190    0.0582   27.0894 Cl  0  0  0  0  0  0  0  0  0  0  0  0
  -26.2256    1.3192   29.6848 C   0  0  0  0  0  0  0  0  0  0  0  0
  -25.5867    1.7106   28.5036 C   0  0  0  0  0  0  0  0  0  0  0  0
  1  2  2  0
  2  3  1  0
  2  4  1  0
  3  5  1  0
  5  6  1  0
M  END

$$$$
