No_1922-gen_results/8p0m/2024-11-26-14-13-15/
     RDKit          3D

 32 34  0  0  0  0  0  0  0  0999 V2000
  -28.0162   -0.8135   28.8779 C   0  0  0  0  0  0  0  0  0  0  0  0
  -27.0636   -0.1189   28.6079 C   0  0  0  0  0  0  0  0  0  0  0  0
  -27.0010    0.6913   27.4910 C   0  0  0  0  0  0  0  0  0  0  0  0
  -25.8548    1.4825   27.0830 C   0  0  0  0  0  0  0  0  0  0  0  0
  -24.6901    1.4526   27.8807 C   0  0  0  0  0  0  0  0  0  0  0  0
  -24.7379    0.6010   29.0416 C   0  0  0  0  0  0  0  0  0  0  0  0
  -25.8234   -0.1688   29.3887 C   0  0  0  0  0  0  0  0  0  0  0  0
  -27.9613   -1.6072   30.0877 N   0  0  0  0  0  0  0  0  0  0  0  0
  -23.7061    2.3845   27.5445 C   0  0  0  0  0  0  0  0  0  0  0  0
  -22.7151    2.2273   27.2173 N   0  0  0  0  0  0  0  0  0  0  0  0
  -24.1369    3.6773   27.4482 O   0  0  0  0  0  0  0  0  0  0  0  0
  -29.1929   -0.6083   28.5088 O   0  0  0  0  0  0  0  0  0  0  0  0
  -29.0643   -2.4642   30.5789 C   0  0  0  0  0  0  0  0  0  0  0  0
  -29.8901   -2.9524   29.6440 C   0  0  0  0  0  0  0  0  0  0  0  0
  -30.3405   -4.3335   30.1005 C   0  0  0  0  0  0  0  0  0  0  0  0
  -29.9808   -4.8597   31.3200 C   0  0  0  0  0  0  0  0  0  0  0  0
  -29.0605   -4.2731   32.1273 C   0  0  0  0  0  0  0  0  0  0  0  0
  -28.5387   -3.1309   31.7348 C   0  0  0  0  0  0  0  0  0  0  0  0
  -31.4122   -4.9817   29.2983 C   0  0  0  0  0  0  0  0  0  0  0  0
  -31.4349   -4.9264   28.2028 O   0  0  0  0  0  0  0  0  0  0  0  0
  -32.4624   -5.4143   29.9575 N   0  0  0  0  0  0  0  0  0  0  0  0
  -33.5599   -6.0744   29.2837 C   0  0  0  0  0  0  0  0  0  0  0  0
  -23.4997    0.5972   29.8770 C   0  0  0  0  0  0  0  0  0  0  0  0
  -22.8163   -0.4872   30.1594 C   0  0  0  0  0  0  0  0  0  0  0  0
  -21.5811   -0.3603   30.0588 F   0  0  0  0  0  0  0  0  0  0  0  0
  -23.2704   -1.5915   29.4747 F   0  0  0  0  0  0  0  0  0  0  0  0
  -23.0360   -0.8070   31.5196 F   0  0  0  0  0  0  0  0  0  0  0  0
  -34.5708   -6.4078   29.9948 C   0  0  0  0  0  0  0  0  0  0  0  0
  -35.6674   -6.9250   29.4453 C   0  0  0  0  0  0  0  0  0  0  0  0
  -35.7054   -7.1442   28.0194 C   0  0  0  0  0  0  0  0  0  0  0  0
  -34.5931   -6.7664   27.2652 C   0  0  0  0  0  0  0  0  0  0  0  0
  -33.5026   -6.1672   27.8635 C   0  0  0  0  0  0  0  0  0  0  0  0
  1  2  1  0
  1  8  1  0
  5  9  1  0
  9 10  1  0
  9 11  2  0
  1 12  2  0
  8 13  1  0
 15 19  1  0
 19 20  2  0
 19 21  1  0
 21 22  1  0
  6 23  1  0
 23 24  1  0
 24 25  1  0
 24 26  1  0
 24 27  1  0
  2  3  2  0
  3  4  1  0
  4  5  2  0
  5  6  1  0
  6  7  2  0
  7  2  1  0
 13 14  2  0
 14 15  1  0
 15 16  2  0
 16 17  1  0
 17 18  2  0
 18 13  1  0
 22 28  2  0
 28 29  1  0
 29 30  2  0
 30 31  1  0
 31 32  2  0
 32 22  1  0
M  END

$$$$
