No_139-gen_results/8p0m/2024-11-26-14-13-15/
     RDKit          3D

 15 16  0  0  0  0  0  0  0  0999 V2000
  -28.0162   -0.8135   28.8779 C   0  0  0  0  0  0  0  0  0  0  0  0
  -27.0636   -0.1190   28.6079 C   0  0  0  0  0  0  0  0  0  0  0  0
  -27.0010    0.6913   27.4910 C   0  0  0  0  0  0  0  0  0  0  0  0
  -28.1373    0.7363   26.6350 C   0  0  0  0  0  0  0  0  0  0  0  0
  -29.2360    0.0765   27.0690 C   0  0  0  0  0  0  0  0  0  0  0  0
  -29.2177   -0.6429   28.1747 C   0  0  0  0  0  0  0  0  0  0  0  0
  -28.0030   -1.6604   30.1266 C   0  0  0  0  0  0  0  0  0  0  0  0
  -28.6767   -1.7061   30.9981 N   0  0  0  0  0  0  0  0  0  0  0  0
  -27.0163   -2.6160   30.0600 O   0  0  0  0  0  0  0  0  0  0  0  0
  -28.6942   -2.7349   32.0749 C   0  0  0  0  0  0  0  0  0  0  0  0
  -30.6379    0.1904   26.0951 Cl  0  0  0  0  0  0  0  0  0  0  0  0
  -29.7814   -0.6694   31.1625 C   0  0  0  0  0  0  0  0  0  0  0  0
  -29.9457   -2.4654   32.9247 C   0  0  0  0  0  0  0  0  0  0  0  0
  -30.4141   -1.2605   32.3606 C   0  0  0  0  0  0  0  0  0  0  0  0
  -29.5010   -2.3140   34.1566 F   0  0  0  0  0  0  0  0  0  0  0  0
  1  7  1  0
  7  8  1  0
  7  9  2  0
  8 10  1  0
  5 11  1  0
  8 12  1  0
 10 13  1  0
 12 14  1  0
 13 14  2  0
 13 15  1  0
  1  2  2  0
  2  3  1  0
  3  4  2  0
  4  5  1  0
  5  6  2  0
  6  1  1  0
M  END

$$$$
