No_1884-gen_results/8p0m/2024-11-26-14-13-15/
     RDKit          3D

 25 27  0  0  0  0  0  0  0  0999 V2000
  -28.0162   -0.8135   28.8779 C   0  0  0  0  0  0  0  0  0  0  0  0
  -27.0636   -0.1189   28.6079 C   0  0  0  0  0  0  0  0  0  0  0  0
  -26.8756    1.1325   28.9134 C   0  0  0  0  0  0  0  0  0  0  0  0
  -25.6883    1.9515   28.5672 C   0  0  0  0  0  0  0  0  0  0  0  0
  -24.6394    1.2834   27.8753 C   0  0  0  0  0  0  0  0  0  0  0  0
  -24.8068   -0.0513   27.6040 C   0  0  0  0  0  0  0  0  0  0  0  0
  -25.9019   -0.7670   27.9511 C   0  0  0  0  0  0  0  0  0  0  0  0
  -27.9985   -1.5833   30.1015 N   0  0  0  0  0  0  0  0  0  0  0  0
  -23.4538    1.9850   27.4766 C   0  0  0  0  0  0  0  0  0  0  0  0
  -23.4305    2.6571   26.5360 O   0  0  0  0  0  0  0  0  0  0  0  0
  -22.2804    1.6844   28.1097 O   0  0  0  0  0  0  0  0  0  0  0  0
  -26.9054   -1.9999   30.5155 C   0  0  0  0  0  0  0  0  0  0  0  0
  -28.9877   -1.3872   31.0312 C   0  0  0  0  0  0  0  0  0  0  0  0
  -29.9565   -1.9088   31.1688 C   0  0  0  0  0  0  0  0  0  0  0  0
  -30.2275   -3.0356   30.2702 C   0  0  0  0  0  0  0  0  0  0  0  0
  -29.6938   -4.2067   30.5897 C   0  0  0  0  0  0  0  0  0  0  0  0
  -29.8151   -5.3557   29.6878 C   0  0  0  0  0  0  0  0  0  0  0  0
  -30.7535   -5.2463   28.6457 C   0  0  0  0  0  0  0  0  0  0  0  0
  -31.5051   -4.0861   28.5320 C   0  0  0  0  0  0  0  0  0  0  0  0
  -31.2465   -2.9970   29.3131 C   0  0  0  0  0  0  0  0  0  0  0  0
  -28.6186   -0.2905   32.0846 C   0  0  0  0  0  0  0  0  0  0  0  0
  -31.1083   -1.6515   32.0629 C   0  0  0  0  0  0  0  0  0  0  0  0
  -29.5405    0.1566   32.9157 C   0  0  0  0  0  0  0  0  0  0  0  0
  -30.7593   -0.6193   33.0542 C   0  0  0  0  0  0  0  0  0  0  0  0
  -30.9246   -6.2977   27.9167 F   0  0  0  0  0  0  0  0  0  0  0  0
  1  8  1  0
  5  9  1  0
  9 10  2  0
  9 11  1  0
  8 12  1  0
  8 13  1  0
 14 15  1  0
 18 25  1  0
  1  2  1  0
 15 16  2  0
 16 17  1  0
 17 18  2  0
 18 19  1  0
 19 20  2  0
 20 15  1  0
  2  3  2  0
  3  4  1  0
  4  5  2  0
  5  6  1  0
  6  7  2  0
  7  2  1  0
 13 14  2  0
 14 22  1  0
 22 24  2  0
 24 23  1  0
 23 21  2  0
 21 13  1  0
M  END

$$$$
