No_1496-gen_results/8p0m/2024-11-26-14-13-15/
     RDKit          3D

 35 37  0  0  0  0  0  0  0  0999 V2000
  -28.0162   -0.8135   28.8779 C   0  0  0  0  0  0  0  0  0  0  0  0
  -28.4690   -0.7850   29.8287 C   0  0  0  0  0  0  0  0  0  0  0  0
  -26.5042   -0.7777   28.8766 C   0  0  0  0  0  0  0  0  0  0  0  0
  -25.6540   -0.6597   27.7191 C   0  0  0  0  0  0  0  0  0  0  0  0
  -27.9180   -0.9374   31.1824 C   0  0  0  0  0  0  0  0  0  0  0  0
  -26.5423   -0.9399   31.2606 C   0  0  0  0  0  0  0  0  0  0  0  0
  -25.7832   -0.8935   30.1201 C   0  0  0  0  0  0  0  0  0  0  0  0
  -25.2134    0.6923   27.3830 C   0  0  0  0  0  0  0  0  0  0  0  0
  -25.8817    1.6334   27.4301 C   0  0  0  0  0  0  0  0  0  0  0  0
  -25.3068    2.9659   27.1011 C   0  0  0  0  0  0  0  0  0  0  0  0
  -23.9644    3.0790   26.7144 C   0  0  0  0  0  0  0  0  0  0  0  0
  -23.7686    0.8240   27.0703 C   0  0  0  0  0  0  0  0  0  0  0  0
  -23.2207    2.0137   26.7255 C   0  0  0  0  0  0  0  0  0  0  0  0
  -24.3680   -0.9301   30.2112 C   0  0  0  0  0  0  0  0  0  0  0  0
  -23.4998    0.1700   30.3012 C   0  0  0  0  0  0  0  0  0  0  0  0
  -23.7754   -2.2473   29.9192 C   0  0  0  0  0  0  0  0  0  0  0  0
  -23.9282    1.3524   31.0166 C   0  0  0  0  0  0  0  0  0  0  0  0
  -22.1307    0.0855   29.8108 C   0  0  0  0  0  0  0  0  0  0  0  0
  -21.7774   -0.2031   28.7870 N   0  0  0  0  0  0  0  0  0  0  0  0
  -20.5087    0.0182   28.2850 C   0  0  0  0  0  0  0  0  0  0  0  0
  -30.0647   -0.8269   29.8425 C   0  0  0  0  0  0  0  0  0  0  0  0
  -30.7360   -1.6136   30.3152 O   0  0  0  0  0  0  0  0  0  0  0  0
  -30.5975    0.1550   29.1479 O   0  0  0  0  0  0  0  0  0  0  0  0
  -31.7220    0.4660   28.9688 C   0  0  0  0  0  0  0  0  0  0  0  0
  -31.9701    1.4807   28.0436 C   0  0  0  0  0  0  0  0  0  0  0  0
  -31.2033    2.5396   28.1372 C   0  0  0  0  0  0  0  0  0  0  0  0
  -30.2198    2.5260   27.5201 O   0  0  0  0  0  0  0  0  0  0  0  0
  -31.5842    3.7164   28.7975 N   0  0  0  0  0  0  0  0  0  0  0  0
  -30.7255    4.8913   28.8950 C   0  0  0  0  0  0  0  0  0  0  0  0
  -32.7973    3.7474   29.5232 C   0  0  0  0  0  0  0  0  0  0  0  0
  -33.3188    4.5548   29.9747 C   0  0  0  0  0  0  0  0  0  0  0  0
  -34.5305    4.5936   30.7652 C   0  0  0  0  0  0  0  0  0  0  0  0
  -35.1632    3.3322   30.7880 C   0  0  0  0  0  0  0  0  0  0  0  0
  -34.5946    2.2613   30.1916 C   0  0  0  0  0  0  0  0  0  0  0  0
  -33.4120    2.4005   29.6283 C   0  0  0  0  0  0  0  0  0  0  0  0
  3  4  1  0
  4  8  1  0
  7 14  1  0
 14 15  1  0
 14 16  1  0
 15 17  1  0
 15 18  1  0
 18 19  1  0
 19 20  2  0
  2 21  1  0
 21 22  2  0
 21 23  1  0
 23 24  1  0
 24 25  1  0
 25 26  1  0
 26 27  2  0
 26 28  1  0
 28 29  1  0
 28 30  1  0
 30 31  2  0
 31 32  1  0
 32 33  2  0
 33 34  1  0
 34 35  2  0
 35 30  1  0
  1  2  2  0
  2  5  1  0
  5  6  2  0
  6  7  1  0
  7  3  2  0
  3  1  1  0
  8  9  2  0
  9 10  1  0
 10 11  2  0
 11 13  1  0
 13 12  2  0
 12  8  1  0
M  END

$$$$
