No_1556-gen_results/8p0m/2024-11-26-14-13-15/
     RDKit          3D

 16 18  0  0  0  0  0  0  0  0999 V2000
  -28.0162   -0.8135   28.8779 C   0  0  0  0  0  0  0  0  0  0  0  0
  -27.0636   -0.1189   28.6079 C   0  0  0  0  0  0  0  0  0  0  0  0
  -25.7923   -0.4302   29.0761 C   0  0  0  0  0  0  0  0  0  0  0  0
  -25.5756   -1.5654   29.9363 C   0  0  0  0  0  0  0  0  0  0  0  0
  -26.7354   -2.3004   30.2173 C   0  0  0  0  0  0  0  0  0  0  0  0
  -27.9184   -1.9537   29.7629 C   0  0  0  0  0  0  0  0  0  0  0  0
  -27.1463    1.2916   27.6407 Cl  0  0  0  0  0  0  0  0  0  0  0  0
  -29.0683   -2.7883   30.1813 C   0  0  0  0  0  0  0  0  0  0  0  0
  -29.0323   -4.0075   30.2805 O   0  0  0  0  0  0  0  0  0  0  0  0
  -30.2182   -2.1388   30.4895 N   0  0  0  0  0  0  0  0  0  0  0  0
  -31.3449   -2.6153   30.8334 C   0  0  0  0  0  0  0  0  0  0  0  0
  -32.3686   -1.8933   30.7459 C   0  0  0  0  0  0  0  0  0  0  0  0
  -32.1902   -0.5087   30.4540 C   0  0  0  0  0  0  0  0  0  0  0  0
  -31.0367    0.0614   30.0806 C   0  0  0  0  0  0  0  0  0  0  0  0
  -30.0322   -0.7420   30.0759 C   0  0  0  0  0  0  0  0  0  0  0  0
  -28.9591   -0.2921   29.4122 N   0  0  0  0  0  0  0  0  0  0  0  0
  2  7  1  0
  6  8  1  0
  8  9  2  0
  8 10  1  0
 10 11  1  0
 12 13  1  0
 10 15  1  0
 14 15  1  0
  1 16  1  0
 15 16  1  0
 11 12  1  0
 13 14  1  0
  1  2  2  0
  2  3  1  0
  3  4  2  0
  4  5  1  0
  5  6  2  0
  6  1  1  0
M  END

$$$$
