No_1992-gen_results/8p0m/2024-11-26-14-13-15/
     RDKit          3D

 35 38  0  0  0  0  0  0  0  0999 V2000
  -28.0162   -0.8135   28.8779 C   0  0  0  0  0  0  0  0  0  0  0  0
  -28.4690   -0.7850   29.8287 C   0  0  0  0  0  0  0  0  0  0  0  0
  -28.1816    0.4277   28.1134 C   0  0  0  0  0  0  0  0  0  0  0  0
  -27.4498    0.6435   26.8500 C   0  0  0  0  0  0  0  0  0  0  0  0
  -27.8596    1.4573   25.9076 C   0  0  0  0  0  0  0  0  0  0  0  0
  -29.4263    0.1097   30.4178 C   0  0  0  0  0  0  0  0  0  0  0  0
  -29.6233    1.2198   29.7351 C   0  0  0  0  0  0  0  0  0  0  0  0
  -28.9609    1.4529   28.5513 C   0  0  0  0  0  0  0  0  0  0  0  0
  -28.7869    2.5467   26.3167 C   0  0  0  0  0  0  0  0  0  0  0  0
  -29.4265    2.4288   27.5639 C   0  0  0  0  0  0  0  0  0  0  0  0
  -26.5350   -0.2653   26.4019 O   0  0  0  0  0  0  0  0  0  0  0  0
  -25.7497    0.2083   25.4384 C   0  0  0  0  0  0  0  0  0  0  0  0
  -28.2348   -2.1268   30.8090 C   0  0  0  0  0  0  0  0  0  0  0  0
  -28.8326   -2.4668   31.6169 O   0  0  0  0  0  0  0  0  0  0  0  0
  -27.2257   -2.9380   30.2314 O   0  0  0  0  0  0  0  0  0  0  0  0
  -26.0294   -2.3916   29.9482 C   0  0  0  0  0  0  0  0  0  0  0  0
  -25.1758   -3.3564   29.1924 C   0  0  0  0  0  0  0  0  0  0  0  0
  -23.9366   -2.8091   28.7545 C   0  0  0  0  0  0  0  0  0  0  0  0
  -23.4733   -1.5354   29.1196 C   0  0  0  0  0  0  0  0  0  0  0  0
  -24.3527   -0.6635   29.8198 C   0  0  0  0  0  0  0  0  0  0  0  0
  -25.5787   -1.1756   30.1891 C   0  0  0  0  0  0  0  0  0  0  0  0
  -23.8246    0.6803   30.0468 C   0  0  0  0  0  0  0  0  0  0  0  0
  -24.1110    1.2262   31.0681 O   0  0  0  0  0  0  0  0  0  0  0  0
  -23.2964    1.3382   29.0366 O   0  0  0  0  0  0  0  0  0  0  0  0
  -23.8303    1.4557   27.8393 C   0  0  0  0  0  0  0  0  0  0  0  0
  -24.5165    2.7330   27.5074 C   0  0  0  0  0  0  0  0  0  0  0  0
  -24.7929    3.1776   26.2381 C   0  0  0  0  0  0  0  0  0  0  0  0
  -25.0355    3.5141   28.6440 C   0  0  0  0  0  0  0  0  0  0  0  0
  -25.7613    4.6968   28.3605 C   0  0  0  0  0  0  0  0  0  0  0  0
  -26.3293    5.4100   29.4535 C   0  0  0  0  0  0  0  0  0  0  0  0
  -25.8663    5.2095   27.0858 C   0  0  0  0  0  0  0  0  0  0  0  0
  -25.3348    4.4873   26.0576 C   0  0  0  0  0  0  0  0  0  0  0  0
  -27.2591    6.0130   29.3933 O   0  0  0  0  0  0  0  0  0  0  0  0
  -25.7454    5.1312   30.7256 N   0  0  0  0  0  0  0  0  0  0  0  0
  -26.2609    5.7332   31.9330 C   0  0  0  0  0  0  0  0  0  0  0  0
  4 11  1  0
 11 12  1  0
  2 13  1  0
 13 14  2  0
 13 15  1  0
 15 16  1  0
 20 22  1  0
 22 23  2  0
 22 24  1  0
 24 25  1  0
 25 26  1  0
 29 30  1  0
 30 33  2  0
 30 34  1  0
 34 35  1  0
  3  4  2  0
  4  5  1  0
  5  9  2  0
  9 10  1  0
 10  8  2  0
 26 27  2  0
 27 32  1  0
 32 31  2  0
 31 29  1  0
 29 28  2  0
 28 26  1  0
  1  2  2  0
  2  6  1  0
  6  7  2  0
  7  8  1  0
  8  3  1  0
  3  1  1  0
 16 17  2  0
 17 18  1  0
 18 19  2  0
 19 20  1  0
 20 21  2  0
 21 16  1  0
M  END

$$$$
