No_1831-gen_results/8p0m/2024-11-26-14-13-15/
     RDKit          3D

  8  7  0  0  0  0  0  0  0  0999 V2000
  -28.0162   -0.8135   28.8779 C   0  0  0  0  0  0  0  0  0  0  0  0
  -27.0636   -0.1190   28.6079 C   0  0  0  0  0  0  0  0  0  0  0  0
  -27.0788    0.9846   29.1738 F   0  0  0  0  0  0  0  0  0  0  0  0
  -25.9956   -0.3885   27.6940 C   0  0  0  0  0  0  0  0  0  0  0  0
  -24.7191   -0.8167   28.2368 C   0  0  0  0  0  0  0  0  0  0  0  0
  -28.6365   -1.1768   30.0855 C   0  0  0  0  0  0  0  0  0  0  0  0
  -28.0820   -0.5256   31.1393 C   0  0  0  0  0  0  0  0  0  0  0  0
  -27.4277    0.6073   31.2627 C   0  0  0  0  0  0  0  0  0  0  0  0
  1  2  1  0
  2  3  1  0
  2  4  1  0
  4  5  1  0
  1  6  2  3
  6  7  1  0
  7  8  2  0
M  END

$$$$
