No_1601-gen_results/8p0m/2024-11-26-14-13-15/
     RDKit          3D

 15 16  0  0  0  0  0  0  0  0999 V2000
  -28.0162   -0.8135   28.8779 C   0  0  0  0  0  0  0  0  0  0  0  0
  -27.0636   -0.1189   28.6079 C   0  0  0  0  0  0  0  0  0  0  0  0
  -26.8756    1.1325   28.9134 C   0  0  0  0  0  0  0  0  0  0  0  0
  -25.6883    1.9515   28.5672 C   0  0  0  0  0  0  0  0  0  0  0  0
  -24.6394    1.2834   27.8753 C   0  0  0  0  0  0  0  0  0  0  0  0
  -24.8181   -0.0802   27.6166 C   0  0  0  0  0  0  0  0  0  0  0  0
  -25.9311   -0.7717   27.9696 C   0  0  0  0  0  0  0  0  0  0  0  0
  -29.2131   -0.1256   29.1389 C   0  0  0  0  0  0  0  0  0  0  0  0
  -29.1918    1.2213   29.4301 C   0  0  0  0  0  0  0  0  0  0  0  0
  -28.0316    1.9206   29.1930 C   0  0  0  0  0  0  0  0  0  0  0  0
  -23.3528    1.8758   27.5838 C   0  0  0  0  0  0  0  0  0  0  0  0
  -22.9346    2.5922   26.8039 N   0  0  0  0  0  0  0  0  0  0  0  0
  -22.2474    1.5616   28.6357 C   0  0  0  0  0  0  0  0  0  0  0  0
  -22.4725    0.7703   29.6586 N   0  0  0  0  0  0  0  0  0  0  0  0
  -21.0834    2.0071   28.3634 O   0  0  0  0  0  0  0  0  0  0  0  0
  5 11  1  0
 11 12  2  0
 11 13  1  0
 13 14  1  0
 13 15  2  0
  3  4  1  0
  4  5  2  0
  5  6  1  0
  6  7  2  0
  7  2  1  0
  1  2  2  0
  2  3  1  0
  3 10  2  0
 10  9  1  0
  9  8  2  0
  8  1  1  0
M  END

$$$$
