No_1886-gen_results/8p0m/2024-11-26-14-13-15/
     RDKit          3D

 31 34  0  0  0  0  0  0  0  0999 V2000
  -28.0162   -0.8135   28.8779 C   0  0  0  0  0  0  0  0  0  0  0  0
  -28.4690   -0.7850   29.8287 C   0  0  0  0  0  0  0  0  0  0  0  0
  -26.5042   -0.7777   28.8766 C   0  0  0  0  0  0  0  0  0  0  0  0
  -25.8103   -0.8531   30.1028 C   0  0  0  0  0  0  0  0  0  0  0  0
  -27.9906   -0.8916   31.2257 C   0  0  0  0  0  0  0  0  0  0  0  0
  -26.6042   -0.8676   31.2652 C   0  0  0  0  0  0  0  0  0  0  0  0
  -29.9765   -0.8288   29.8497 N   0  0  0  0  0  0  0  0  0  0  0  0
  -30.5795   -0.1232   28.9820 C   0  0  0  0  0  0  0  0  0  0  0  0
  -30.0432    0.5770   28.2959 O   0  0  0  0  0  0  0  0  0  0  0  0
  -32.0822   -0.3796   28.9957 C   0  0  0  0  0  0  0  0  0  0  0  0
  -32.7929    0.5185   29.1819 C   0  0  0  0  0  0  0  0  0  0  0  0
  -34.2459    0.3910   29.2364 C   0  0  0  0  0  0  0  0  0  0  0  0
  -32.5302   -1.6654   28.6419 C   0  0  0  0  0  0  0  0  0  0  0  0
  -33.8937   -1.8950   28.6218 C   0  0  0  0  0  0  0  0  0  0  0  0
  -34.7374   -0.8546   28.9133 C   0  0  0  0  0  0  0  0  0  0  0  0
  -36.1827   -1.1130   28.8772 C   0  0  0  0  0  0  0  0  0  0  0  0
  -36.7480   -1.9511   28.4039 C   0  0  0  0  0  0  0  0  0  0  0  0
  -37.8709   -2.3236   28.2611 C   0  0  0  0  0  0  0  0  0  0  0  0
  -38.8509   -1.3786   28.8732 C   0  0  0  0  0  0  0  0  0  0  0  0
  -38.3768   -0.3001   29.4850 C   0  0  0  0  0  0  0  0  0  0  0  0
  -37.0018   -0.0448   29.5507 C   0  0  0  0  0  0  0  0  0  0  0  0
  -39.2993    0.6853   30.1287 C   0  0  0  0  0  0  0  0  0  0  0  0
  -39.3139    0.8712   31.2642 O   0  0  0  0  0  0  0  0  0  0  0  0
  -39.7931    1.6061   29.2442 N   0  0  0  0  0  0  0  0  0  0  0  0
  -40.6631    2.6502   29.7297 C   0  0  0  0  0  0  0  0  0  0  0  0
  -39.2948    1.7972   27.9667 C   0  0  0  0  0  0  0  0  0  0  0  0
  -39.7222    1.7600   26.9579 C   0  0  0  0  0  0  0  0  0  0  0  0
  -39.0580    1.8537   25.6744 C   0  0  0  0  0  0  0  0  0  0  0  0
  -37.6774    2.0447   25.7358 C   0  0  0  0  0  0  0  0  0  0  0  0
  -37.0196    2.1533   26.9303 C   0  0  0  0  0  0  0  0  0  0  0  0
  -37.7426    2.0712   28.0396 C   0  0  0  0  0  0  0  0  0  0  0  0
  2  7  1  0
  7  8  1  0
  8  9  2  0
  8 10  1  0
 15 16  1  0
 20 22  1  0
 22 23  2  0
 22 24  1  0
 24 25  1  0
 24 26  1  0
 26 27  2  0
 27 28  1  0
 28 29  2  0
 29 30  1  0
 30 31  2  0
 31 26  1  0
 16 17  2  0
 17 18  1  0
 18 19  2  0
 19 20  1  0
 20 21  2  0
 21 16  1  0
  1  2  2  0
  2  5  1  0
  5  6  2  0
  6  4  1  0
  4  3  2  0
  3  1  1  0
 10 11  2  0
 11 12  1  0
 12 15  2  0
 15 14  1  0
 14 13  2  0
 13 10  1  0
M  END

$$$$
