No_1515-gen_results/8p0m/2024-11-26-14-13-15/
     RDKit          3D

 11 11  0  0  0  0  0  0  0  0999 V2000
  -28.0162   -0.8135   28.8779 C   0  0  0  0  0  0  0  0  0  0  0  0
  -27.0636   -0.1189   28.6079 C   0  0  0  0  0  0  0  0  0  0  0  0
  -26.9716    0.7139   27.5060 C   0  0  0  0  0  0  0  0  0  0  0  0
  -25.8205    1.4910   27.1160 C   0  0  0  0  0  0  0  0  0  0  0  0
  -24.6562    1.4242   27.9180 C   0  0  0  0  0  0  0  0  0  0  0  0
  -24.7114    0.5419   29.0507 C   0  0  0  0  0  0  0  0  0  0  0  0
  -25.8042   -0.2058   29.3881 C   0  0  0  0  0  0  0  0  0  0  0  0
  -28.7426   -0.4419   30.1405 C   0  0  0  0  0  0  0  0  0  0  0  0
  -29.7839   -1.2426   30.5802 N   0  0  0  0  0  0  0  0  0  0  0  0
  -23.4611    2.1604   27.6139 C   0  0  0  0  0  0  0  0  0  0  0  0
  -22.4998    2.1604   28.5240 N   0  0  0  0  0  0  0  0  0  0  0  0
  1  8  1  0
  8  9  1  0
  5 10  1  0
 10 11  2  0
  1  2  1  0
  2  3  2  0
  3  4  1  0
  4  5  2  0
  5  6  1  0
  6  7  2  0
  7  2  1  0
M  END

$$$$
