No_1771-gen_results/8p0m/2024-11-26-14-13-15/
     RDKit          3D

 14 15  0  0  0  0  0  0  0  0999 V2000
  -28.0162   -0.8135   28.8779 C   0  0  0  0  0  0  0  0  0  0  0  0
  -27.0636   -0.1189   28.6079 C   0  0  0  0  0  0  0  0  0  0  0  0
  -26.9287    1.1713   29.0083 C   0  0  0  0  0  0  0  0  0  0  0  0
  -27.9560    1.7411   29.7840 C   0  0  0  0  0  0  0  0  0  0  0  0
  -29.0569   -0.3271   29.7466 C   0  0  0  0  0  0  0  0  0  0  0  0
  -28.9828    0.9722   30.1516 C   0  0  0  0  0  0  0  0  0  0  0  0
  -25.8907   -0.6263   27.7857 C   0  0  0  0  0  0  0  0  0  0  0  0
  -24.5686   -0.1994   28.1996 C   0  0  0  0  0  0  0  0  0  0  0  0
  -23.6406   -0.6993   28.6892 C   0  0  0  0  0  0  0  0  0  0  0  0
  -22.3404   -0.0990   28.9706 C   0  0  0  0  0  0  0  0  0  0  0  0
  -22.2184    1.2278   28.4794 C   0  0  0  0  0  0  0  0  0  0  0  0
  -24.2283    1.2602   27.8314 C   0  0  0  0  0  0  0  0  0  0  0  0
  -23.1278    1.8708   27.9863 C   0  0  0  0  0  0  0  0  0  0  0  0
  -23.6701   -2.0179   29.0913 F   0  0  0  0  0  0  0  0  0  0  0  0
  2  7  1  0
  7  8  1  0
  9 14  1  0
  1  2  2  0
  2  3  1  0
  3  4  2  0
  4  6  1  0
  6  5  2  0
  5  1  1  0
  8  9  2  0
  9 10  1  0
 10 11  2  0
 11 13  1  0
 13 12  2  0
 12  8  1  0
M  END

$$$$
