No_1920-gen_results/8p0m/2024-11-26-14-13-15/
     RDKit          3D

 35 38  0  0  0  0  0  0  0  0999 V2000
  -28.0162   -0.8135   28.8779 C   0  0  0  0  0  0  0  0  0  0  0  0
  -27.0636   -0.1189   28.6079 C   0  0  0  0  0  0  0  0  0  0  0  0
  -25.7923   -0.4302   29.0761 C   0  0  0  0  0  0  0  0  0  0  0  0
  -24.5456    0.3494   28.8225 C   0  0  0  0  0  0  0  0  0  0  0  0
  -23.2409    0.0217   29.3323 C   0  0  0  0  0  0  0  0  0  0  0  0
  -27.8820   -1.8995   29.8633 C   0  0  0  0  0  0  0  0  0  0  0  0
  -26.6526   -2.3142   30.3138 C   0  0  0  0  0  0  0  0  0  0  0  0
  -25.5153   -1.5607   29.9787 C   0  0  0  0  0  0  0  0  0  0  0  0
  -22.1645    0.7936   28.9524 C   0  0  0  0  0  0  0  0  0  0  0  0
  -22.1241    1.7484   27.9889 C   0  0  0  0  0  0  0  0  0  0  0  0
  -24.5235    1.3782   27.7946 C   0  0  0  0  0  0  0  0  0  0  0  0
  -23.3387    2.0417   27.4305 C   0  0  0  0  0  0  0  0  0  0  0  0
  -29.0437   -2.7312   30.2971 C   0  0  0  0  0  0  0  0  0  0  0  0
  -29.3725   -2.6293   31.3928 O   0  0  0  0  0  0  0  0  0  0  0  0
  -29.6553   -3.3908   29.5014 O   0  0  0  0  0  0  0  0  0  0  0  0
  -23.4438    2.9927   26.4699 O   0  0  0  0  0  0  0  0  0  0  0  0
  -24.2582    2.5479   25.4005 C   0  0  0  0  0  0  0  0  0  0  0  0
  -25.3202    1.6729   25.7215 C   0  0  0  0  0  0  0  0  0  0  0  0
  -25.2402    1.0588   26.5955 N   0  0  0  0  0  0  0  0  0  0  0  0
  -29.2398   -0.5562   28.5166 F   0  0  0  0  0  0  0  0  0  0  0  0
  -30.2864   -4.5858   29.9103 C   0  0  0  0  0  0  0  0  0  0  0  0
  -31.6911   -4.6072   29.6927 C   0  0  0  0  0  0  0  0  0  0  0  0
  -32.2913   -5.5660   29.7504 O   0  0  0  0  0  0  0  0  0  0  0  0
  -32.2840   -3.5098   29.3786 O   0  0  0  0  0  0  0  0  0  0  0  0
  -33.3769   -3.3446   28.5810 C   0  0  0  0  0  0  0  0  0  0  0  0
  -33.3936   -1.9561   28.0283 C   0  0  0  0  0  0  0  0  0  0  0  0
  -33.6601   -1.9291   26.8667 F   0  0  0  0  0  0  0  0  0  0  0  0
  -32.1651   -1.3323   28.1574 F   0  0  0  0  0  0  0  0  0  0  0  0
  -34.2636   -1.2065   28.7089 F   0  0  0  0  0  0  0  0  0  0  0  0
  -33.3429   -4.2658   27.5460 N   0  0  0  0  0  0  0  0  0  0  0  0
  -33.9913   -4.9422   27.0394 C   0  0  0  0  0  0  0  0  0  0  0  0
  -33.5980   -5.7676   25.8999 C   0  0  0  0  0  0  0  0  0  0  0  0
  -31.9343   -4.3354   26.8576 C   0  0  0  0  0  0  0  0  0  0  0  0
  -32.1886   -5.3441   25.8739 C   0  0  0  0  0  0  0  0  0  0  0  0
  -31.3974   -6.4985   26.2549 O   0  0  0  0  0  0  0  0  0  0  0  0
  3  4  1  0
  6 13  1  0
 13 14  2  0
 13 15  1  0
 12 16  1  0
 16 17  1  0
 17 18  2  0
 11 19  1  0
 18 19  2  0
  1 20  1  0
 15 21  1  0
 21 22  1  0
 22 23  2  0
 22 24  1  0
 24 25  1  0
 25 26  1  0
 26 27  1  0
 26 28  1  0
 26 29  1  0
 25 30  1  0
 30 31  1  0
 31 32  2  0
 30 33  1  0
 32 34  1  0
 33 34  1  0
 34 35  1  0
  1  2  2  0
  2  3  1  0
  3  8  2  0
  8  7  1  0
  7  6  2  0
  6  1  1  0
  4  5  2  0
  5  9  1  0
  9 10  2  0
 10 12  1  0
 12 11  2  0
 11  4  1  0
M  END

$$$$
