No_1240-gen_results/8p0m/2024-11-26-14-13-15/
     RDKit          3D

 32 36  0  0  0  0  0  0  0  0999 V2000
  -28.1229   -1.3353   28.4874 O   0  0  0  0  0  0  0  0  0  0  0  0
  -28.5208   -0.4363   29.0779 C   0  0  0  0  0  0  0  0  0  0  0  0
  -29.6977    0.0507   28.9764 C   0  0  0  0  0  0  0  0  0  0  0  0
  -27.5405    0.1756   30.0054 N   0  0  0  0  0  0  0  0  0  0  0  0
  -27.8890    1.2664   30.8176 C   0  0  0  0  0  0  0  0  0  0  0  0
  -30.1166    1.1818   29.8399 C   0  0  0  0  0  0  0  0  0  0  0  0
  -29.1567    1.7558   30.7136 C   0  0  0  0  0  0  0  0  0  0  0  0
  -26.2253   -0.3866   30.1200 C   0  0  0  0  0  0  0  0  0  0  0  0
  -25.8505   -0.8629   31.0728 C   0  0  0  0  0  0  0  0  0  0  0  0
  -24.4732   -1.3926   31.2228 C   0  0  0  0  0  0  0  0  0  0  0  0
  -23.5962   -1.4241   30.1359 C   0  0  0  0  0  0  0  0  0  0  0  0
  -24.1333   -0.8435   28.9273 C   0  0  0  0  0  0  0  0  0  0  0  0
  -25.4283   -0.3450   28.8836 C   0  0  0  0  0  0  0  0  0  0  0  0
  -27.0573    1.7041   31.5620 F   0  0  0  0  0  0  0  0  0  0  0  0
  -30.6193   -0.4657   28.1354 N   0  0  0  0  0  0  0  0  0  0  0  0
  -31.9392   -0.3857   28.1327 C   0  0  0  0  0  0  0  0  0  0  0  0
  -32.6021   -1.0391   27.1702 C   0  0  0  0  0  0  0  0  0  0  0  0
  -32.0700   -1.0503   25.8902 C   0  0  0  0  0  0  0  0  0  0  0  0
  -30.5819   -0.8930   25.8401 C   0  0  0  0  0  0  0  0  0  0  0  0
  -29.9382   -0.3263   26.8782 C   0  0  0  0  0  0  0  0  0  0  0  0
  -30.2555   -0.3598   24.5507 O   0  0  0  0  0  0  0  0  0  0  0  0
  -32.4776   -2.2153   25.0417 N   0  0  0  0  0  0  0  0  0  0  0  0
  -33.8122   -1.7232   27.4176 C   0  0  0  0  0  0  0  0  0  0  0  0
  -34.3146   -2.6664   26.5963 C   0  0  0  0  0  0  0  0  0  0  0  0
  -33.6756   -2.7762   25.2434 C   0  0  0  0  0  0  0  0  0  0  0  0
  -29.8716    0.8868   24.3300 C   0  0  0  0  0  0  0  0  0  0  0  0
  -28.7146    1.4056   24.4432 C   0  0  0  0  0  0  0  0  0  0  0  0
  -27.5110    0.6506   24.8819 C   0  0  0  0  0  0  0  0  0  0  0  0
  -26.2809    1.1737   25.1751 C   0  0  0  0  0  0  0  0  0  0  0  0
  -26.1675    2.5393   25.4862 C   0  0  0  0  0  0  0  0  0  0  0  0
  -27.3414    3.3555   25.2095 C   0  0  0  0  0  0  0  0  0  0  0  0
  -28.4767    2.8399   24.7194 C   0  0  0  0  0  0  0  0  0  0  0  0
  1  2  2  0
  2  3  1  0
  2  4  1  0
  4  5  1  0
  6  7  1  0
  4  8  1  0
  5 14  1  0
  3 15  1  0
 15 16  1  0
 16 17  1  0
 18 19  1  0
 15 20  1  0
 19 20  1  0
 19 21  1  0
 21 26  1  0
 26 27  1  0
  3  6  1  0
  7  5  1  0
 17 18  2  0
 18 22  1  0
 22 25  2  0
 25 24  1  0
 24 23  2  0
 23 17  1  0
 27 28  2  0
 28 29  1  0
 29 30  2  0
 30 31  1  0
 31 32  2  0
 32 27  1  0
  8  9  2  0
  9 10  1  0
 10 11  2  0
 11 12  1  0
 12 13  2  0
 13  8  1  0
M  END

$$$$
