No_152-gen_results/8p0m/2024-11-26-14-13-15/
     RDKit          3D

 26 29  0  0  0  0  0  0  0  0999 V2000
  -28.0162   -0.8135   28.8779 C   0  0  0  0  0  0  0  0  0  0  0  0
  -27.0636   -0.1190   28.6079 C   0  0  0  0  0  0  0  0  0  0  0  0
  -25.7923   -0.4302   29.0761 C   0  0  0  0  0  0  0  0  0  0  0  0
  -24.5456    0.3494   28.8225 C   0  0  0  0  0  0  0  0  0  0  0  0
  -23.2409    0.0217   29.3323 C   0  0  0  0  0  0  0  0  0  0  0  0
  -22.1362    0.7695   29.0059 C   0  0  0  0  0  0  0  0  0  0  0  0
  -27.9050   -1.8984   29.8729 C   0  0  0  0  0  0  0  0  0  0  0  0
  -26.6795   -2.3145   30.3184 C   0  0  0  0  0  0  0  0  0  0  0  0
  -25.5203   -1.5564   29.9775 C   0  0  0  0  0  0  0  0  0  0  0  0
  -22.1155    1.7338   28.0257 C   0  0  0  0  0  0  0  0  0  0  0  0
  -24.5222    1.3908   27.7909 C   0  0  0  0  0  0  0  0  0  0  0  0
  -23.3248    2.0519   27.4472 C   0  0  0  0  0  0  0  0  0  0  0  0
  -29.0635   -2.7190   30.2976 C   0  0  0  0  0  0  0  0  0  0  0  0
  -28.9711   -4.0009   30.4941 N   0  0  0  0  0  0  0  0  0  0  0  0
  -29.9974   -4.8792   30.2024 C   0  0  0  0  0  0  0  0  0  0  0  0
  -30.4154   -5.7136   31.2714 C   0  0  0  0  0  0  0  0  0  0  0  0
  -31.4703   -5.2312   31.8967 F   0  0  0  0  0  0  0  0  0  0  0  0
  -29.4192   -5.7441   32.2193 F   0  0  0  0  0  0  0  0  0  0  0  0
  -30.6831   -6.9963   30.8989 F   0  0  0  0  0  0  0  0  0  0  0  0
  -30.1821   -2.1797   30.4178 O   0  0  0  0  0  0  0  0  0  0  0  0
  -23.4197    2.9869   26.4860 O   0  0  0  0  0  0  0  0  0  0  0  0
  -24.7476    3.3977   26.1567 C   0  0  0  0  0  0  0  0  0  0  0  0
  -25.6855    1.7298   27.1104 C   0  0  0  0  0  0  0  0  0  0  0  0
  -25.7018    2.8177   26.3554 N   0  0  0  0  0  0  0  0  0  0  0  0
  -26.9617    1.0995   27.4216 C   0  0  0  0  0  0  0  0  0  0  0  0
  -28.0993    1.2482   26.9263 O   0  0  0  0  0  0  0  0  0  0  0  0
  3  4  1  0
  7 13  1  0
 13 14  1  0
 14 15  1  0
 15 16  1  0
 16 17  1  0
 16 18  1  0
 16 19  1  0
 13 20  2  0
 12 21  1  0
 21 22  1  0
 11 23  1  0
 22 24  1  0
 23 24  1  0
  2 25  1  0
 23 25  1  0
 25 26  2  0
  1  2  2  0
  2  3  1  0
  3  9  2  0
  9  8  1  0
  8  7  2  0
  7  1  1  0
  4  5  2  0
  5  6  1  0
  6 10  2  0
 10 12  1  0
 12 11  2  0
 11  4  1  0
M  END

$$$$
