No_1011-gen_results/8p0m/2024-11-26-14-13-15/
     RDKit          3D

 28 30  0  0  0  0  0  0  0  0999 V2000
  -28.1146   -0.6256   29.0813 Br  0  0  0  0  0  0  0  0  0  0  0  0
  -27.4917    0.8142   29.3550 C   0  0  0  0  0  0  0  0  0  0  0  0
  -26.7100    1.4117   28.9943 C   0  0  0  0  0  0  0  0  0  0  0  0
  -26.1849    2.7117   29.4208 C   0  0  0  0  0  0  0  0  0  0  0  0
  -26.8268    3.2448   30.5689 C   0  0  0  0  0  0  0  0  0  0  0  0
  -27.7611    2.4993   31.1608 C   0  0  0  0  0  0  0  0  0  0  0  0
  -28.0953    1.3338   30.6686 C   0  0  0  0  0  0  0  0  0  0  0  0
  -25.8142    0.9539   27.5232 Cl  0  0  0  0  0  0  0  0  0  0  0  0
  -26.1824    4.9258   31.2175 Br  0  0  0  0  0  0  0  0  0  0  0  0
  -25.1889    3.3885   28.8094 F   0  0  0  0  0  0  0  0  0  0  0  0
  -28.4720    3.0807   32.6734 Cl  0  0  0  0  0  0  0  0  0  0  0  0
  -29.0602    0.5821   31.3004 O   0  0  0  0  0  0  0  0  0  0  0  0
  -28.7621   -0.4329   32.0702 C   0  0  0  0  0  0  0  0  0  0  0  0
  -27.8374   -0.5443   32.7863 C   0  0  0  0  0  0  0  0  0  0  0  0
  -29.9637   -1.3059   32.2419 C   0  0  0  0  0  0  0  0  0  0  0  0
  -31.0981   -1.1709   31.4757 C   0  0  0  0  0  0  0  0  0  0  0  0
  -32.0768   -2.1120   31.5297 C   0  0  0  0  0  0  0  0  0  0  0  0
  -31.9370   -3.2064   32.4031 C   0  0  0  0  0  0  0  0  0  0  0  0
  -30.8090   -3.4051   33.1400 C   0  0  0  0  0  0  0  0  0  0  0  0
  -29.7640   -2.4870   33.0572 C   0  0  0  0  0  0  0  0  0  0  0  0
  -33.2487   -1.9646   30.8760 O   0  0  0  0  0  0  0  0  0  0  0  0
  -34.2343   -1.3343   31.2795 C   0  0  0  0  0  0  0  0  0  0  0  0
  -35.2276   -1.2674   30.6077 C   0  0  0  0  0  0  0  0  0  0  0  0
  -35.3086   -1.8025   29.3222 C   0  0  0  0  0  0  0  0  0  0  0  0
  -36.2281   -1.3981   28.4843 C   0  0  0  0  0  0  0  0  0  0  0  0
  -37.3414   -0.6347   28.9208 C   0  0  0  0  0  0  0  0  0  0  0  0
  -37.3932   -0.1422   30.1646 C   0  0  0  0  0  0  0  0  0  0  0  0
  -36.2991   -0.3473   31.0201 C   0  0  0  0  0  0  0  0  0  0  0  0
  1  2  1  0
  3  8  1  0
  5  9  1  0
  4 10  1  0
  6 11  1  0
  7 12  1  0
 12 13  1  0
 13 14  2  0
 13 15  1  0
 17 21  1  0
 21 22  1  0
 22 23  1  0
 15 16  2  0
 16 17  1  0
 17 18  2  0
 18 19  1  0
 19 20  2  0
 20 15  1  0
  2  3  2  0
  3  4  1  0
  4  5  2  0
  5  6  1  0
  6  7  2  0
  7  2  1  0
 23 24  2  0
 24 25  1  0
 25 26  2  0
 26 27  1  0
 27 28  2  0
 28 23  1  0
M  END

$$$$
