No_1953-gen_results/8p0m/2024-11-26-14-13-15/
     RDKit          3D

 31 34  0  0  0  0  0  0  0  0999 V2000
  -28.0162   -0.8135   28.8779 C   0  0  0  0  0  0  0  0  0  0  0  0
  -27.0636   -0.1189   28.6079 C   0  0  0  0  0  0  0  0  0  0  0  0
  -26.9287    1.1713   29.0083 C   0  0  0  0  0  0  0  0  0  0  0  0
  -25.7702    2.0341   28.6884 C   0  0  0  0  0  0  0  0  0  0  0  0
  -24.7141    1.4431   27.9188 C   0  0  0  0  0  0  0  0  0  0  0  0
  -24.8590    0.0783   27.5836 C   0  0  0  0  0  0  0  0  0  0  0  0
  -25.9647   -0.6606   27.9164 C   0  0  0  0  0  0  0  0  0  0  0  0
  -29.1701   -0.2984   28.9471 N   0  0  0  0  0  0  0  0  0  0  0  0
  -30.1841   -0.8920   29.7048 C   0  0  0  0  0  0  0  0  0  0  0  0
  -23.5181    2.1584   27.5785 C   0  0  0  0  0  0  0  0  0  0  0  0
  -23.3573    2.8456   26.8138 O   0  0  0  0  0  0  0  0  0  0  0  0
  -22.4575    1.8913   28.4673 O   0  0  0  0  0  0  0  0  0  0  0  0
  -31.5257   -0.6150   29.4589 C   0  0  0  0  0  0  0  0  0  0  0  0
  -29.8662   -1.8617   30.7477 C   0  0  0  0  0  0  0  0  0  0  0  0
  -30.9225   -2.6466   31.3088 C   0  0  0  0  0  0  0  0  0  0  0  0
  -32.5308   -1.3442   30.1517 C   0  0  0  0  0  0  0  0  0  0  0  0
  -32.2033   -2.2883   31.0903 C   0  0  0  0  0  0  0  0  0  0  0  0
  -27.8585   -1.9744   29.3820 O   0  0  0  0  0  0  0  0  0  0  0  0
  -29.6016    0.8788   28.2306 C   0  0  0  0  0  0  0  0  0  0  0  0
  -29.6505    2.1130   28.8015 C   0  0  0  0  0  0  0  0  0  0  0  0
  -30.0766    3.2161   28.1045 C   0  0  0  0  0  0  0  0  0  0  0  0
  -30.4137    3.0436   26.7524 C   0  0  0  0  0  0  0  0  0  0  0  0
  -29.9642    0.7058   26.9218 C   0  0  0  0  0  0  0  0  0  0  0  0
  -29.9358   -0.5841   26.2834 C   0  0  0  0  0  0  0  0  0  0  0  0
  -30.3454    1.8151   26.1339 C   0  0  0  0  0  0  0  0  0  0  0  0
  -30.0929   -0.5557   24.8696 C   0  0  0  0  0  0  0  0  0  0  0  0
  -30.6133    1.6582   24.8159 C   0  0  0  0  0  0  0  0  0  0  0  0
  -30.5389    0.4536   24.1911 C   0  0  0  0  0  0  0  0  0  0  0  0
  -30.8171    4.2441   26.0072 C   0  0  0  0  0  0  0  0  0  0  0  0
  -31.2884    4.1687   24.8430 O   0  0  0  0  0  0  0  0  0  0  0  0
  -31.0042    5.2718   26.6396 F   0  0  0  0  0  0  0  0  0  0  0  0
  1  2  1  0
  1  8  1  0
  8  9  1  0
  5 10  1  0
 10 11  2  0
 10 12  1  0
  1 18  2  0
  8 19  1  0
 22 29  1  0
 29 30  2  0
 29 31  1  0
  2  3  2  0
  3  4  1  0
  4  5  2  0
  5  6  1  0
  6  7  2  0
  7  2  1  0
 19 20  2  0
 20 21  1  0
 21 22  2  0
 22 25  1  0
 23 19  1  0
  9 13  2  0
 13 16  1  0
 16 17  2  0
 17 15  1  0
 15 14  2  0
 14  9  1  0
 23 24  2  0
 24 26  1  0
 26 28  2  0
 28 27  1  0
 27 25  2  0
 25 23  1  0
M  END

$$$$
