No_1115-gen_results/8p0m/2024-11-26-14-13-15/
     RDKit          3D

 26 28  0  0  0  0  0  0  0  0999 V2000
  -28.0162   -0.8135   28.8779 C   0  0  0  0  0  0  0  0  0  0  0  0
  -28.4690   -0.7850   29.8287 C   0  0  0  0  0  0  0  0  0  0  0  0
  -26.5455   -0.8762   28.8500 C   0  0  0  0  0  0  0  0  0  0  0  0
  -25.6825   -0.7773   27.6829 C   0  0  0  0  0  0  0  0  0  0  0  0
  -27.9181   -1.0034   31.1877 C   0  0  0  0  0  0  0  0  0  0  0  0
  -26.5308   -1.0794   31.2463 C   0  0  0  0  0  0  0  0  0  0  0  0
  -25.7798   -1.0462   30.0905 C   0  0  0  0  0  0  0  0  0  0  0  0
  -25.2322    0.5793   27.3292 C   0  0  0  0  0  0  0  0  0  0  0  0
  -25.9027    1.5335   27.4253 C   0  0  0  0  0  0  0  0  0  0  0  0
  -25.3348    2.8671   27.0802 C   0  0  0  0  0  0  0  0  0  0  0  0
  -24.0033    2.9885   26.6466 C   0  0  0  0  0  0  0  0  0  0  0  0
  -23.2328    1.8380   26.6116 C   0  0  0  0  0  0  0  0  0  0  0  0
  -23.8065    0.5810   26.9916 C   0  0  0  0  0  0  0  0  0  0  0  0
  -24.1386   -1.1334   30.1731 Cl  0  0  0  0  0  0  0  0  0  0  0  0
  -30.0572   -0.7398   29.9070 C   0  0  0  0  0  0  0  0  0  0  0  0
  -30.7192   -1.7756   30.0220 N   0  0  0  0  0  0  0  0  0  0  0  0
  -31.7700   -1.8613   30.6798 C   0  0  0  0  0  0  0  0  0  0  0  0
  -32.5141   -2.4844   31.0470 C   0  0  0  0  0  0  0  0  0  0  0  0
  -32.3376   -3.9310   30.7342 C   0  0  0  0  0  0  0  0  0  0  0  0
  -31.1872   -4.2325   29.9235 C   0  0  0  0  0  0  0  0  0  0  0  0
  -30.3199   -3.1385   29.6336 C   0  0  0  0  0  0  0  0  0  0  0  0
  -30.4666    0.3318   29.5211 F   0  0  0  0  0  0  0  0  0  0  0  0
  -30.8071   -5.5501   29.5305 C   0  0  0  0  0  0  0  0  0  0  0  0
  -29.9462   -6.0256   30.2945 F   0  0  0  0  0  0  0  0  0  0  0  0
  -30.9591   -5.9740   28.4277 F   0  0  0  0  0  0  0  0  0  0  0  0
  -21.9691    1.9610   26.2975 O   0  0  0  0  0  0  0  0  0  0  0  0
  3  4  1  0
  4  8  1  0
  7 14  1  0
  2 15  1  0
 15 16  1  0
 16 17  1  0
 18 19  1  0
 16 21  1  0
 20 21  1  0
 15 22  1  0
 20 23  1  0
 23 24  1  0
 23 25  1  0
 12 26  1  0
 17 18  1  0
 19 20  1  0
  8  9  2  0
  9 10  1  0
 10 11  2  0
 11 12  1  0
 12 13  2  0
 13  8  1  0
  1  2  2  0
  2  5  1  0
  5  6  2  0
  6  7  1  0
  7  3  2  0
  3  1  1  0
M  END

$$$$
