No_1339-gen_results/8p0m/2024-11-26-14-13-15/
     RDKit          3D

 11 11  0  0  0  0  0  0  0  0999 V2000
  -28.0727   -1.2542   28.5316 F   0  0  0  0  0  0  0  0  0  0  0  0
  -27.0607   -0.6291   28.8721 C   0  0  0  0  0  0  0  0  0  0  0  0
  -27.1759    0.6153   29.3693 C   0  0  0  0  0  0  0  0  0  0  0  0
  -25.7305   -1.2692   28.7241 C   0  0  0  0  0  0  0  0  0  0  0  0
  -24.5526   -0.5078   29.0132 C   0  0  0  0  0  0  0  0  0  0  0  0
  -28.4133    1.2382   29.5200 C   0  0  0  0  0  0  0  0  0  0  0  0
  -24.6661    0.8105   29.4951 C   0  0  0  0  0  0  0  0  0  0  0  0
  -25.9131    1.3241   29.6722 C   0  0  0  0  0  0  0  0  0  0  0  0
  -28.5210    2.4802   29.8055 N   0  0  0  0  0  0  0  0  0  0  0  0
  -29.6095    3.0871   29.9399 C   0  0  0  0  0  0  0  0  0  0  0  0
  -29.6701    4.5230   30.2847 C   0  0  0  0  0  0  0  0  0  0  0  0
  1  2  1  0
  3  6  1  0
  6  9  1  0
  9 10  2  3
 10 11  1  0
  2  3  2  0
  3  8  1  0
  8  7  2  0
  7  5  1  0
  5  4  2  0
  4  2  1  0
M  END

$$$$
