No_159-gen_results/8p0m/2024-11-26-14-13-15/
     RDKit          3D

 13 13  0  0  0  0  0  0  0  0999 V2000
  -28.0162   -0.8135   28.8779 C   0  0  0  0  0  0  0  0  0  0  0  0
  -28.4690   -0.7850   29.8287 C   0  0  0  0  0  0  0  0  0  0  0  0
  -26.5042   -0.7777   28.8766 C   0  0  0  0  0  0  0  0  0  0  0  0
  -25.9150   -0.6580   29.9230 C   0  0  0  0  0  0  0  0  0  0  0  0
  -27.9691   -0.7243   31.2047 C   0  0  0  0  0  0  0  0  0  0  0  0
  -26.5847   -0.6393   31.2062 C   0  0  0  0  0  0  0  0  0  0  0  0
  -30.2945   -0.8927   29.8840 Cl  0  0  0  0  0  0  0  0  0  0  0  0
  -24.5341   -0.5801   29.9718 F   0  0  0  0  0  0  0  0  0  0  0  0
  -28.8050   -0.7781   32.9318 Br  0  0  0  0  0  0  0  0  0  0  0  0
  -25.7728   -0.7808   27.6671 O   0  0  0  0  0  0  0  0  0  0  0  0
  -25.7791    0.3298   26.8751 C   0  0  0  0  0  0  0  0  0  0  0  0
  -24.5151    0.8727   26.9452 C   0  0  0  0  0  0  0  0  0  0  0  0
  -24.3394    2.0578   26.0521 C   0  0  0  0  0  0  0  0  0  0  0  0
  2  7  1  0
  4  8  1  0
  5  9  1  0
  3 10  1  0
 10 11  1  0
 11 12  2  3
 12 13  1  0
  1  2  2  0
  2  5  1  0
  5  6  2  0
  6  4  1  0
  4  3  2  0
  3  1  1  0
M  END

$$$$
