No_1679-gen_results/8p0m/2024-11-26-14-13-15/
     RDKit          3D

 20 21  0  0  0  0  0  0  0  0999 V2000
  -28.0162   -0.8135   28.8779 C   0  0  0  0  0  0  0  0  0  0  0  0
  -27.0636   -0.1190   28.6079 C   0  0  0  0  0  0  0  0  0  0  0  0
  -26.9716    0.7139   27.5060 C   0  0  0  0  0  0  0  0  0  0  0  0
  -25.8205    1.4909   27.1160 C   0  0  0  0  0  0  0  0  0  0  0  0
  -24.6775    1.4226   27.9573 C   0  0  0  0  0  0  0  0  0  0  0  0
  -24.7275    0.5623   29.0847 C   0  0  0  0  0  0  0  0  0  0  0  0
  -25.8339   -0.1353   29.3368 C   0  0  0  0  0  0  0  0  0  0  0  0
  -28.6264   -0.5428   30.1737 C   0  0  0  0  0  0  0  0  0  0  0  0
  -29.7421    0.0007   30.2986 N   0  0  0  0  0  0  0  0  0  0  0  0
  -30.5300    0.2488   29.4203 C   0  0  0  0  0  0  0  0  0  0  0  0
  -23.6346    2.1345   27.6736 F   0  0  0  0  0  0  0  0  0  0  0  0
  -31.8063    0.2306   29.3663 C   0  0  0  0  0  0  0  0  0  0  0  0
  -32.6426    0.5627   28.2606 C   0  0  0  0  0  0  0  0  0  0  0  0
  -31.9588    0.8834   27.0775 C   0  0  0  0  0  0  0  0  0  0  0  0
  -30.6164    0.8754   26.9969 C   0  0  0  0  0  0  0  0  0  0  0  0
  -29.8711    0.6012   28.1064 C   0  0  0  0  0  0  0  0  0  0  0  0
  -28.1004   -1.2393   31.1897 O   0  0  0  0  0  0  0  0  0  0  0  0
  -29.9731    1.2701   25.6956 C   0  0  0  0  0  0  0  0  0  0  0  0
  -29.5778    0.3084   24.7174 C   0  0  0  0  0  0  0  0  0  0  0  0
  -28.8378    0.7517   23.6455 C   0  0  0  0  0  0  0  0  0  0  0  0
  1  8  1  0
  8  9  1  0
  9 10  1  0
  5 11  1  0
  8 17  2  0
 15 18  1  0
 18 19  2  3
 19 20  1  0
  1  2  1  0
  2  3  2  0
  3  4  1  0
  4  5  2  0
  5  6  1  0
  6  7  2  0
  7  2  1  0
 10 12  2  0
 12 13  1  0
 13 14  2  0
 14 15  1  0
 15 16  2  0
 16 10  1  0
M  END

$$$$
