No_1473-gen_results/8p0m/2024-11-26-14-13-15/
     RDKit          3D

 19 21  0  0  0  0  0  0  0  0999 V2000
  -28.0162   -0.8135   28.8779 C   0  0  0  0  0  0  0  0  0  0  0  0
  -28.4690   -0.7850   29.8287 C   0  0  0  0  0  0  0  0  0  0  0  0
  -27.1356    0.2359   28.5352 C   0  0  0  0  0  0  0  0  0  0  0  0
  -26.8745    1.2825   29.3982 C   0  0  0  0  0  0  0  0  0  0  0  0
  -27.5070    1.2380   30.6295 C   0  0  0  0  0  0  0  0  0  0  0  0
  -28.3293    0.1745   30.9350 C   0  0  0  0  0  0  0  0  0  0  0  0
  -26.4077    0.3070   27.2259 C   0  0  0  0  0  0  0  0  0  0  0  0
  -25.0105    0.3902   27.3228 C   0  0  0  0  0  0  0  0  0  0  0  0
  -27.0459    0.3289   26.0049 C   0  0  0  0  0  0  0  0  0  0  0  0
  -26.2540    0.2395   24.9572 N   0  0  0  0  0  0  0  0  0  0  0  0
  -24.2138    0.6578   26.1873 C   0  0  0  0  0  0  0  0  0  0  0  0
  -24.9126    0.4990   24.9659 C   0  0  0  0  0  0  0  0  0  0  0  0
  -28.3163    0.1309   25.8459 N   0  0  0  0  0  0  0  0  0  0  0  0
  -29.1840    1.0309   25.3130 C   0  0  0  0  0  0  0  0  0  0  0  0
  -30.5468    0.7848   25.3022 C   0  0  0  0  0  0  0  0  0  0  0  0
  -28.6652    2.2706   24.8604 C   0  0  0  0  0  0  0  0  0  0  0  0
  -29.5095    3.2369   24.3443 C   0  0  0  0  0  0  0  0  0  0  0  0
  -31.3849    1.7731   24.7485 C   0  0  0  0  0  0  0  0  0  0  0  0
  -30.8519    3.0105   24.2733 C   0  0  0  0  0  0  0  0  0  0  0  0
  3  7  1  0
  9 13  1  0
 13 14  1  0
 14 15  2  0
 15 18  1  0
 18 19  2  0
 19 17  1  0
 17 16  2  0
 16 14  1  0
  1  2  2  0
  2  6  1  0
  6  5  2  0
  5  4  1  0
  4  3  2  0
  3  1  1  0
  7  8  2  0
  8 11  1  0
 11 12  2  0
 12 10  1  0
 10  9  2  0
  9  7  1  0
M  END

$$$$
