No_1243-gen_results/8p0m/2024-11-26-14-13-15/
     RDKit          3D

 35 38  0  0  0  0  0  0  0  0999 V2000
  -28.1229   -1.3353   28.4874 O   0  0  0  0  0  0  0  0  0  0  0  0
  -27.4806   -0.4044   28.7094 C   0  0  0  0  0  0  0  0  0  0  0  0
  -26.3804   -0.0867   27.9394 C   0  0  0  0  0  0  0  0  0  0  0  0
  -27.6664    0.4468   29.8988 N   0  0  0  0  0  0  0  0  0  0  0  0
  -25.1773   -0.4388   28.3946 C   0  0  0  0  0  0  0  0  0  0  0  0
  -23.9281   -0.2469   27.6677 C   0  0  0  0  0  0  0  0  0  0  0  0
  -24.0115    0.7683   26.6848 C   0  0  0  0  0  0  0  0  0  0  0  0
  -25.2436    1.2341   26.2435 C   0  0  0  0  0  0  0  0  0  0  0  0
  -26.3955    0.8712   26.8685 C   0  0  0  0  0  0  0  0  0  0  0  0
  -28.7657    0.1195   30.7687 C   0  0  0  0  0  0  0  0  0  0  0  0
  -26.8570    1.5236   30.2067 C   0  0  0  0  0  0  0  0  0  0  0  0
  -26.3372    1.6492   31.1156 C   0  0  0  0  0  0  0  0  0  0  0  0
  -25.3947    2.8095   31.3256 C   0  0  0  0  0  0  0  0  0  0  0  0
  -25.1330    3.6304   30.2418 C   0  0  0  0  0  0  0  0  0  0  0  0
  -25.7782    3.3621   29.0389 C   0  0  0  0  0  0  0  0  0  0  0  0
  -26.6479    2.3227   28.9948 C   0  0  0  0  0  0  0  0  0  0  0  0
  -25.4689    4.3564   27.9656 C   0  0  0  0  0  0  0  0  0  0  0  0
  -24.6273    4.3989   27.3695 O   0  0  0  0  0  0  0  0  0  0  0  0
  -26.4043    5.3782   27.9367 O   0  0  0  0  0  0  0  0  0  0  0  0
  -27.6774    1.2474   26.2726 C   0  0  0  0  0  0  0  0  0  0  0  0
  -27.7462    1.9526   25.1522 C   0  0  0  0  0  0  0  0  0  0  0  0
  -28.9635    2.3045   24.6583 C   0  0  0  0  0  0  0  0  0  0  0  0
  -30.1546    1.7108   24.8894 C   0  0  0  0  0  0  0  0  0  0  0  0
  -30.0711    0.7580   25.9994 C   0  0  0  0  0  0  0  0  0  0  0  0
  -28.8837    0.5530   26.6443 C   0  0  0  0  0  0  0  0  0  0  0  0
  -31.3639    0.1511   26.3952 C   0  0  0  0  0  0  0  0  0  0  0  0
  -31.7410   -0.8691   25.9223 O   0  0  0  0  0  0  0  0  0  0  0  0
  -31.9636    0.6077   27.4649 O   0  0  0  0  0  0  0  0  0  0  0  0
  -29.2812    1.0360   31.5772 C   0  0  0  0  0  0  0  0  0  0  0  0
  -30.4050    0.7614   32.2471 C   0  0  0  0  0  0  0  0  0  0  0  0
  -31.0315   -0.4691   32.0835 C   0  0  0  0  0  0  0  0  0  0  0  0
  -30.5113   -1.4307   31.2183 C   0  0  0  0  0  0  0  0  0  0  0  0
  -29.3906   -1.0872   30.5740 C   0  0  0  0  0  0  0  0  0  0  0  0
  -25.0005   -1.4697   29.5109 C   0  0  0  0  0  0  0  0  0  0  0  0
  -23.8852   -1.5517   30.5993 Cl  0  0  0  0  0  0  0  0  0  0  0  0
  1  2  2  0
  2  3  1  0
  2  4  1  0
  4 10  1  0
  4 11  1  0
 15 17  1  0
 17 18  2  0
 17 19  1  0
  9 20  1  0
 24 26  1  0
 26 27  1  0
 26 28  2  0
  5 34  1  0
 34 35  1  0
 20 21  2  0
 21 22  1  0
 22 23  2  0
 23 24  1  0
 24 25  2  0
 25 20  1  0
 11 12  2  0
 12 13  1  0
 13 14  2  0
 14 15  1  0
 15 16  2  0
 16 11  1  0
  3  5  2  0
  5  6  1  0
  6  7  2  0
  7  8  1  0
  8  9  2  0
  9  3  1  0
 10 29  2  0
 29 30  1  0
 30 31  2  0
 31 32  1  0
 32 33  2  0
 33 10  1  0
M  END

$$$$
