No_1776-gen_results/8p0m/2024-11-26-14-13-15/
     RDKit          3D

 21 23  0  0  0  0  0  0  0  0999 V2000
  -28.0162   -0.8135   28.8779 C   0  0  0  0  0  0  0  0  0  0  0  0
  -28.4690   -0.7850   29.8287 C   0  0  0  0  0  0  0  0  0  0  0  0
  -26.5042   -0.7777   28.8766 C   0  0  0  0  0  0  0  0  0  0  0  0
  -25.6540   -0.6597   27.7191 C   0  0  0  0  0  0  0  0  0  0  0  0
  -27.9180   -0.9374   31.1824 C   0  0  0  0  0  0  0  0  0  0  0  0
  -26.5423   -0.9399   31.2606 C   0  0  0  0  0  0  0  0  0  0  0  0
  -25.7832   -0.8935   30.1201 C   0  0  0  0  0  0  0  0  0  0  0  0
  -24.3096   -0.3015   27.8531 C   0  0  0  0  0  0  0  0  0  0  0  0
  -23.6669   -0.4595   29.0986 C   0  0  0  0  0  0  0  0  0  0  0  0
  -24.3700   -0.6645   30.2027 C   0  0  0  0  0  0  0  0  0  0  0  0
  -22.1946   -0.2290   29.1314 C   0  0  0  0  0  0  0  0  0  0  0  0
  -21.2882    0.5666   28.7716 N   0  0  0  0  0  0  0  0  0  0  0  0
  -21.6307   -1.3991   29.6379 F   0  0  0  0  0  0  0  0  0  0  0  0
  -30.0644   -0.8851   29.8747 C   0  0  0  0  0  0  0  0  0  0  0  0
  -30.5376   -0.3195   29.0102 O   0  0  0  0  0  0  0  0  0  0  0  0
  -30.7247   -1.2153   31.0283 N   0  0  0  0  0  0  0  0  0  0  0  0
  -32.1669   -1.2005   31.0295 C   0  0  0  0  0  0  0  0  0  0  0  0
  -32.8198   -1.6368   31.6584 C   0  0  0  0  0  0  0  0  0  0  0  0
  -32.2973   -2.4085   32.8382 C   0  0  0  0  0  0  0  0  0  0  0  0
  -30.8767   -2.5396   32.9484 C   0  0  0  0  0  0  0  0  0  0  0  0
  -30.1091   -2.0632   31.9938 C   0  0  0  0  0  0  0  0  0  0  0  0
  9 11  1  0
 11 12  2  0
 11 13  1  0
  2 14  1  0
 14 15  2  0
 14 16  1  0
 16 17  1  0
 18 19  1  0
 16 21  1  0
 20 21  1  0
 17 18  1  0
 19 20  1  0
  1  2  2  0
  2  5  1  0
  5  6  2  0
  6  7  1  0
  3  1  1  0
  3  4  2  0
  4  8  1  0
  8  9  2  0
  9 10  1  0
 10  7  2  0
  7  3  1  0
M  END

$$$$
