No_1701-gen_results/8p0m/2024-11-26-14-13-15/
     RDKit          3D

 18 19  0  0  0  0  0  0  0  0999 V2000
  -28.0162   -0.8135   28.8779 C   0  0  0  0  0  0  0  0  0  0  0  0
  -27.0636   -0.1190   28.6079 C   0  0  0  0  0  0  0  0  0  0  0  0
  -26.9716    0.7139   27.5060 C   0  0  0  0  0  0  0  0  0  0  0  0
  -25.8205    1.4909   27.1160 C   0  0  0  0  0  0  0  0  0  0  0  0
  -24.6562    1.4242   27.9180 C   0  0  0  0  0  0  0  0  0  0  0  0
  -24.7114    0.5419   29.0507 C   0  0  0  0  0  0  0  0  0  0  0  0
  -25.8042   -0.2058   29.3881 C   0  0  0  0  0  0  0  0  0  0  0  0
  -29.2771   -0.1377   29.0363 C   0  0  0  0  0  0  0  0  0  0  0  0
  -29.8652    0.0502   29.9088 C   0  0  0  0  0  0  0  0  0  0  0  0
  -31.1158    0.7615   29.8982 C   0  0  0  0  0  0  0  0  0  0  0  0
  -31.6274    1.1128   28.6761 C   0  0  0  0  0  0  0  0  0  0  0  0
  -30.9528    0.8124   27.5552 C   0  0  0  0  0  0  0  0  0  0  0  0
  -29.7530    0.1731   27.6525 C   0  0  0  0  0  0  0  0  0  0  0  0
  -23.4661    2.1557   27.6255 C   0  0  0  0  0  0  0  0  0  0  0  0
  -22.4253    1.6111   27.3124 N   0  0  0  0  0  0  0  0  0  0  0  0
  -31.4567    1.1840   26.2146 C   0  0  0  0  0  0  0  0  0  0  0  0
  -31.5786    2.2590   25.8403 O   0  0  0  0  0  0  0  0  0  0  0  0
  -31.6385    0.1256   25.4238 O   0  0  0  0  0  0  0  0  0  0  0  0
  1  8  1  0
  5 14  1  0
 14 15  3  0
 12 16  1  0
 16 17  2  0
 16 18  1  0
  1  2  1  0
  2  3  2  0
  3  4  1  0
  4  5  2  0
  5  6  1  0
  6  7  2  0
  7  2  1  0
  8  9  2  0
  9 10  1  0
 10 11  2  0
 11 12  1  0
 12 13  2  0
 13  8  1  0
M  END

$$$$
