No_1667-gen_results/8p0m/2024-11-26-14-13-15/
     RDKit          3D

 19 20  0  0  0  0  0  0  0  0999 V2000
  -28.1229   -1.3353   28.4874 O   0  0  0  0  0  0  0  0  0  0  0  0
  -27.0637   -0.8242   28.8687 C   0  0  0  0  0  0  0  0  0  0  0  0
  -26.9592    0.0926   29.7582 C   0  0  0  0  0  0  0  0  0  0  0  0
  -25.8788   -1.3797   28.3925 O   0  0  0  0  0  0  0  0  0  0  0  0
  -25.8746    0.5483   30.1391 C   0  0  0  0  0  0  0  0  0  0  0  0
  -25.5616    1.6957   31.0076 C   0  0  0  0  0  0  0  0  0  0  0  0
  -24.2632    2.1481   31.2687 C   0  0  0  0  0  0  0  0  0  0  0  0
  -23.2009    1.4058   30.7420 C   0  0  0  0  0  0  0  0  0  0  0  0
  -23.3960    0.3295   29.9583 C   0  0  0  0  0  0  0  0  0  0  0  0
  -24.6340   -0.0954   29.7121 C   0  0  0  0  0  0  0  0  0  0  0  0
  -24.7986   -1.1383   28.7685 C   0  0  0  0  0  0  0  0  0  0  0  0
  -26.6951    2.4489   31.6031 C   0  0  0  0  0  0  0  0  0  0  0  0
  -27.1982    3.4075   31.0973 C   0  0  0  0  0  0  0  0  0  0  0  0
  -26.5947    4.2252   30.1900 C   0  0  0  0  0  0  0  0  0  0  0  0
  -26.8134    4.6284   29.1904 C   0  0  0  0  0  0  0  0  0  0  0  0
  -25.9436    5.4498   28.2416 C   0  0  0  0  0  0  0  0  0  0  0  0
  -25.4913    4.9353   27.1854 C   0  0  0  0  0  0  0  0  0  0  0  0
  -26.0423    3.7015   26.6848 C   0  0  0  0  0  0  0  0  0  0  0  0
  -27.0477    3.0881   27.3736 C   0  0  0  0  0  0  0  0  0  0  0  0
  1  2  2  0
  2  3  1  0
  2  4  1  0
  3  5  2  0
  5  6  1  0
  6  7  2  0
  7  8  1  0
  8  9  2  0
  5 10  1  0
  9 10  1  0
  4 11  1  0
 10 11  1  0
  6 12  1  0
 12 13  1  0
 13 14  1  0
 14 15  2  3
 15 16  1  0
 16 17  2  3
 17 18  1  0
 18 19  2  0
M  END

$$$$
