No_143-gen_results/8p0m/2024-11-26-14-13-15/
     RDKit          3D

 35 39  0  0  0  0  0  0  0  0999 V2000
  -28.0162   -0.8135   28.8779 C   0  0  0  0  0  0  0  0  0  0  0  0
  -27.0636   -0.1189   28.6079 C   0  0  0  0  0  0  0  0  0  0  0  0
  -25.7923   -0.4302   29.0761 C   0  0  0  0  0  0  0  0  0  0  0  0
  -25.5756   -1.5654   29.9363 C   0  0  0  0  0  0  0  0  0  0  0  0
  -26.7354   -2.3004   30.2173 C   0  0  0  0  0  0  0  0  0  0  0  0
  -27.9184   -1.9537   29.7629 C   0  0  0  0  0  0  0  0  0  0  0  0
  -27.3243    1.0850   27.8190 C   0  0  0  0  0  0  0  0  0  0  0  0
  -27.7260    1.0711   26.6257 C   0  0  0  0  0  0  0  0  0  0  0  0
  -28.1358   -0.2429   26.1032 C   0  0  0  0  0  0  0  0  0  0  0  0
  -28.6403   -0.1923   24.7225 C   0  0  0  0  0  0  0  0  0  0  0  0
  -28.7598    1.0162   24.0667 C   0  0  0  0  0  0  0  0  0  0  0  0
  -28.3949    2.2410   24.5740 C   0  0  0  0  0  0  0  0  0  0  0  0
  -27.8907    2.2909   25.8542 C   0  0  0  0  0  0  0  0  0  0  0  0
  -26.7494    2.3421   28.4454 C   0  0  0  0  0  0  0  0  0  0  0  0
  -27.3427    3.1562   28.7604 N   0  0  0  0  0  0  0  0  0  0  0  0
  -26.8288    4.3239   29.3009 C   0  0  0  0  0  0  0  0  0  0  0  0
  -25.3809    2.5153   28.4533 N   0  0  0  0  0  0  0  0  0  0  0  0
  -25.1478    3.7351   28.9254 C   0  0  0  0  0  0  0  0  0  0  0  0
  -27.0287    5.5458   29.7605 C   0  0  0  0  0  0  0  0  0  0  0  0
  -27.6739    5.6848   30.6660 O   0  0  0  0  0  0  0  0  0  0  0  0
  -26.7711    6.5420   28.8260 O   0  0  0  0  0  0  0  0  0  0  0  0
  -28.8721    3.2457   28.8741 C   0  0  0  0  0  0  0  0  0  0  0  0
  -29.4846    2.5981   29.9157 C   0  0  0  0  0  0  0  0  0  0  0  0
  -29.1747    2.8394   31.1860 C   0  0  0  0  0  0  0  0  0  0  0  0
  -29.5882    2.1349   32.2478 C   0  0  0  0  0  0  0  0  0  0  0  0
  -29.0567    2.2385   33.5735 C   0  0  0  0  0  0  0  0  0  0  0  0
  -29.4024    1.3956   34.6374 C   0  0  0  0  0  0  0  0  0  0  0  0
  -30.3192    0.3617   34.3330 C   0  0  0  0  0  0  0  0  0  0  0  0
  -30.8107    0.1910   33.0760 C   0  0  0  0  0  0  0  0  0  0  0  0
  -30.4091    0.9874   32.0584 C   0  0  0  0  0  0  0  0  0  0  0  0
  -31.0363    2.6976   29.7846 C   0  0  0  0  0  0  0  0  0  0  0  0
  -31.3512    3.3385   28.6227 C   0  0  0  0  0  0  0  0  0  0  0  0
  -29.8086    3.1908   27.7109 C   0  0  0  0  0  0  0  0  0  0  0  0
  -32.4007    2.7847   27.7181 C   0  0  0  0  0  0  0  0  0  0  0  0
  -31.5131    4.8621   28.7795 C   0  0  0  0  0  0  0  0  0  0  0  0
  2  7  1  0
  7 14  1  0
 14 15  1  0
 15 16  1  0
 14 17  2  0
 16 18  1  0
 17 18  1  0
 16 19  1  0
 19 20  2  0
 19 21  1  0
 15 22  1  0
 22 23  1  0
 23 24  2  3
 24 25  1  0
 23 31  1  0
 31 32  1  0
 22 33  1  0
 32 33  1  0
 32 34  1  0
 32 35  1  0
  7  8  1  0
  1  2  2  0
  2  3  1  0
  3  4  2  0
  4  5  1  0
  5  6  2  0
  6  1  1  0
 25 26  2  0
 26 27  1  0
 27 28  2  0
 28 29  1  0
 29 30  2  0
 30 25  1  0
  8  9  2  0
  9 10  1  0
 10 11  2  0
 11 12  1  0
 12 13  2  0
 13  8  1  0
M  END

$$$$
