No_1029-gen_results/8p0m/2024-11-26-14-13-15/
     RDKit          3D

 16 17  0  0  0  0  0  0  0  0999 V2000
  -28.0162   -0.8135   28.8779 C   0  0  0  0  0  0  0  0  0  0  0  0
  -27.0636   -0.1190   28.6079 C   0  0  0  0  0  0  0  0  0  0  0  0
  -25.7647   -0.3897   29.0360 C   0  0  0  0  0  0  0  0  0  0  0  0
  -25.5296   -1.5302   29.9014 C   0  0  0  0  0  0  0  0  0  0  0  0
  -26.6577   -2.2915   30.2035 C   0  0  0  0  0  0  0  0  0  0  0  0
  -27.8548   -1.9555   29.7630 C   0  0  0  0  0  0  0  0  0  0  0  0
  -24.5349    0.4128   28.7431 C   0  0  0  0  0  0  0  0  0  0  0  0
  -24.0543    1.3255   29.5757 C   0  0  0  0  0  0  0  0  0  0  0  0
  -22.9412    2.1455   29.2103 C   0  0  0  0  0  0  0  0  0  0  0  0
  -22.2591    1.9298   27.9819 C   0  0  0  0  0  0  0  0  0  0  0  0
  -23.8354    0.3239   27.4986 C   0  0  0  0  0  0  0  0  0  0  0  0
  -22.7850    1.0558   27.1900 C   0  0  0  0  0  0  0  0  0  0  0  0
  -24.6740    1.5321   30.9370 C   0  0  0  0  0  0  0  0  0  0  0  0
  -24.8307    2.7532   31.4536 N   0  0  0  0  0  0  0  0  0  0  0  0
  -26.0582    3.3274   31.6887 C   0  0  0  0  0  0  0  0  0  0  0  0
  -25.9821    4.6371   32.1427 C   0  0  0  0  0  0  0  0  0  0  0  0
  3  7  1  0
  8 13  1  0
 13 14  1  0
 14 15  1  0
 15 16  2  0
  7  8  2  0
  8  9  1  0
  9 10  2  0
 10 12  1  0
 12 11  2  0
 11  7  1  0
  1  2  2  0
  2  3  1  0
  3  4  2  0
  4  5  1  0
  5  6  2  0
  6  1  1  0
M  END

$$$$
