No_1331-gen_results/8p0m/2024-11-26-14-13-15/
     RDKit          3D

 18 20  0  0  0  0  0  0  0  0999 V2000
  -28.1229   -1.3353   28.4874 O   0  0  0  0  0  0  0  0  0  0  0  0
  -27.0637   -0.8242   28.8687 C   0  0  0  0  0  0  0  0  0  0  0  0
  -26.4017   -0.0623   28.6224 C   0  0  0  0  0  0  0  0  0  0  0  0
  -26.2652   -1.8674   29.7609 N   0  0  0  0  0  0  0  0  0  0  0  0
  -26.8442    1.1343   27.8798 C   0  0  0  0  0  0  0  0  0  0  0  0
  -26.6915   -3.0657   30.1340 C   0  0  0  0  0  0  0  0  0  0  0  0
  -25.1977    0.4601   29.4503 C   0  0  0  0  0  0  0  0  0  0  0  0
  -24.4614    1.5974   29.1797 C   0  0  0  0  0  0  0  0  0  0  0  0
  -24.9363    2.5924   28.3484 C   0  0  0  0  0  0  0  0  0  0  0  0
  -26.1103    2.3166   27.5990 C   0  0  0  0  0  0  0  0  0  0  0  0
  -25.0150   -1.5677   30.3148 C   0  0  0  0  0  0  0  0  0  0  0  0
  -24.4739   -0.4799   30.2060 C   0  0  0  0  0  0  0  0  0  0  0  0
  -26.2787   -4.2042   29.3774 C   0  0  0  0  0  0  0  0  0  0  0  0
  -27.9908   -3.1596   30.8027 C   0  0  0  0  0  0  0  0  0  0  0  0
  -28.6099   -4.3990   31.0139 C   0  0  0  0  0  0  0  0  0  0  0  0
  -26.8416   -5.4843   29.7951 C   0  0  0  0  0  0  0  0  0  0  0  0
  -28.0030   -5.4686   30.5569 C   0  0  0  0  0  0  0  0  0  0  0  0
  -24.7941   -4.0977   28.6746 Cl  0  0  0  0  0  0  0  0  0  0  0  0
  1  2  2  0
  2  3  1  0
  2  4  1  0
  4  6  1  0
  4 11  1  0
  7 12  1  0
 13 18  1  0
 12 11  1  0
  3  5  2  0
  5 10  1  0
 10  9  2  0
  9  8  1  0
  8  7  2  0
  7  3  1  0
  6 13  2  0
 13 16  1  0
 16 17  2  0
 17 15  1  0
 15 14  2  0
 14  6  1  0
M  END

$$$$
