No_1717-gen_results/8p0m/2024-11-26-14-13-15/
     RDKit          3D

 15 15  0  0  0  0  0  0  0  0999 V2000
  -28.0162   -0.8135   28.8779 C   0  0  0  0  0  0  0  0  0  0  0  0
  -27.0636   -0.1190   28.6079 C   0  0  0  0  0  0  0  0  0  0  0  0
  -26.8756    1.1325   28.9134 C   0  0  0  0  0  0  0  0  0  0  0  0
  -25.6883    1.9515   28.5672 C   0  0  0  0  0  0  0  0  0  0  0  0
  -24.6394    1.2834   27.8753 C   0  0  0  0  0  0  0  0  0  0  0  0
  -24.8068   -0.0513   27.6040 C   0  0  0  0  0  0  0  0  0  0  0  0
  -25.9019   -0.7670   27.9511 C   0  0  0  0  0  0  0  0  0  0  0  0
  -29.2158   -0.1185   29.1813 C   0  0  0  0  0  0  0  0  0  0  0  0
  -30.2339   -0.7910   29.8154 C   0  0  0  0  0  0  0  0  0  0  0  0
  -23.4188    1.9753   27.5047 C   0  0  0  0  0  0  0  0  0  0  0  0
  -23.2912    2.7094   26.6521 O   0  0  0  0  0  0  0  0  0  0  0  0
  -22.3571    1.7969   28.4004 O   0  0  0  0  0  0  0  0  0  0  0  0
  -31.5269   -0.3152   29.8330 C   0  0  0  0  0  0  0  0  0  0  0  0
  -31.7490    0.9646   29.3588 C   0  0  0  0  0  0  0  0  0  0  0  0
  -30.7652    1.6453   28.7158 C   0  0  0  0  0  0  0  0  0  0  0  0
  1  2  2  3
  2  3  1  0
  3  4  1  0
  4  5  1  0
  5  6  1  0
  2  7  1  0
  6  7  1  0
  1  8  1  0
  8  9  2  3
  5 10  1  0
 10 11  2  0
 10 12  1  0
  9 13  1  0
 13 14  2  3
 14 15  1  0
M  END

$$$$
