No_1012-gen_results/8p0m/2024-11-26-14-13-15/
     RDKit          3D

 22 24  0  0  0  0  0  0  0  0999 V2000
  -28.0162   -0.8135   28.8779 C   0  0  0  0  0  0  0  0  0  0  0  0
  -27.0636   -0.1189   28.6079 C   0  0  0  0  0  0  0  0  0  0  0  0
  -25.7923   -0.4302   29.0761 C   0  0  0  0  0  0  0  0  0  0  0  0
  -25.5756   -1.5654   29.9363 C   0  0  0  0  0  0  0  0  0  0  0  0
  -26.7354   -2.3004   30.2173 C   0  0  0  0  0  0  0  0  0  0  0  0
  -27.9184   -1.9537   29.7629 C   0  0  0  0  0  0  0  0  0  0  0  0
  -29.0001   -2.7012   30.1151 O   0  0  0  0  0  0  0  0  0  0  0  0
  -24.5290    0.3490   28.7998 C   0  0  0  0  0  0  0  0  0  0  0  0
  -24.4808    1.2113   27.7998 C   0  0  0  0  0  0  0  0  0  0  0  0
  -23.2478    1.8974   27.4951 C   0  0  0  0  0  0  0  0  0  0  0  0
  -22.0497    1.5890   28.1642 C   0  0  0  0  0  0  0  0  0  0  0  0
  -23.3072    0.0149   29.4618 C   0  0  0  0  0  0  0  0  0  0  0  0
  -22.0852    0.6899   29.1374 C   0  0  0  0  0  0  0  0  0  0  0  0
  -29.3635   -2.8123   31.4419 C   0  0  0  0  0  0  0  0  0  0  0  0
  -29.7833   -4.1212   31.7495 C   0  0  0  0  0  0  0  0  0  0  0  0
  -29.5089   -5.0211   31.1120 O   0  0  0  0  0  0  0  0  0  0  0  0
  -30.4546   -4.3860   32.9264 N   0  0  0  0  0  0  0  0  0  0  0  0
  -30.8702   -3.3148   33.8880 C   0  0  0  0  0  0  0  0  0  0  0  0
  -29.6358   -1.6887   32.2817 C   0  0  0  0  0  0  0  0  0  0  0  0
  -30.1267   -1.7899   33.2530 C   0  0  0  0  0  0  0  0  0  0  0  0
  -30.8819   -5.6546   33.3731 C   0  0  0  0  0  0  0  0  0  0  0  0
  -29.6011   -0.4137   28.3240 Cl  0  0  0  0  0  0  0  0  0  0  0  0
  6  7  1  0
  3  8  1  0
  7 14  1  0
 14 15  1  0
 15 16  2  0
 15 17  1  0
 17 18  1  0
 14 19  1  0
 17 21  1  0
  1 22  1  0
 19 20  1  0
 20 18  1  0
  1  2  2  0
  2  3  1  0
  3  4  2  0
  4  5  1  0
  5  6  2  0
  6  1  1  0
  8  9  2  0
  9 10  1  0
 10 11  2  0
 11 13  1  0
 13 12  2  0
 12  8  1  0
M  END

$$$$
