No_1215-gen_results/8p0m/2024-11-26-14-13-15/
     RDKit          3D

 28 31  0  0  0  0  0  0  0  0999 V2000
  -28.0162   -0.8135   28.8779 C   0  0  0  0  0  0  0  0  0  0  0  0
  -28.4690   -0.7850   29.8287 C   0  0  0  0  0  0  0  0  0  0  0  0
  -27.0871    0.2903   28.6377 C   0  0  0  0  0  0  0  0  0  0  0  0
  -26.2516    0.4114   27.4223 C   0  0  0  0  0  0  0  0  0  0  0  0
  -28.3913    0.1041   30.9805 C   0  0  0  0  0  0  0  0  0  0  0  0
  -27.5332    1.1666   30.7866 C   0  0  0  0  0  0  0  0  0  0  0  0
  -26.8281    1.2557   29.6454 C   0  0  0  0  0  0  0  0  0  0  0  0
  -25.1893    0.4693   27.3615 N   0  0  0  0  0  0  0  0  0  0  0  0
  -26.9788    0.3975   26.2798 O   0  0  0  0  0  0  0  0  0  0  0  0
  -24.2071    0.5276   28.5048 C   0  0  0  0  0  0  0  0  0  0  0  0
  -23.5444   -0.6343   28.8585 C   0  0  0  0  0  0  0  0  0  0  0  0
  -22.5162   -0.5433   29.8206 C   0  0  0  0  0  0  0  0  0  0  0  0
  -24.1309    1.5610   29.2144 C   0  0  0  0  0  0  0  0  0  0  0  0
  -23.1768    1.6552   30.3526 C   0  0  0  0  0  0  0  0  0  0  0  0
  -22.4137    0.5782   30.6254 C   0  0  0  0  0  0  0  0  0  0  0  0
  -25.2820    2.5966   29.3353 C   0  0  0  0  0  0  0  0  0  0  0  0
  -26.5140    2.3331   29.0010 O   0  0  0  0  0  0  0  0  0  0  0  0
  -25.0242    3.6511   30.0390 O   0  0  0  0  0  0  0  0  0  0  0  0
  -24.3554    0.1281   26.1558 C   0  0  0  0  0  0  0  0  0  0  0  0
  -27.3594    2.2321   31.8388 C   0  0  0  0  0  0  0  0  0  0  0  0
  -28.0822    3.1838   31.9888 O   0  0  0  0  0  0  0  0  0  0  0  0
  -26.2986    1.9732   32.5599 F   0  0  0  0  0  0  0  0  0  0  0  0
  -27.6190    4.3609   32.2715 C   0  0  0  0  0  0  0  0  0  0  0  0
  -26.8937    4.6112   33.3823 C   0  0  0  0  0  0  0  0  0  0  0  0
  -25.8822    5.5265   33.3307 C   0  0  0  0  0  0  0  0  0  0  0  0
  -25.9037    6.5624   32.3611 C   0  0  0  0  0  0  0  0  0  0  0  0
  -26.7082    6.3343   31.2353 C   0  0  0  0  0  0  0  0  0  0  0  0
  -27.5563    5.2153   31.1538 C   0  0  0  0  0  0  0  0  0  0  0  0
  3  4  1  0
  4  8  1  0
  4  9  2  0
  8 10  1  0
 13 16  1  0
  7 17  1  0
 16 17  1  0
 16 18  2  0
  8 19  1  0
  6 20  1  0
 20 21  1  0
 20 22  1  0
 21 23  1  0
 23 24  2  0
 24 25  1  0
 25 26  2  0
 26 27  1  0
 27 28  2  0
 28 23  1  0
  1  2  2  0
  2  5  1  0
  5  6  2  0
  6  7  1  0
  7  3  2  0
  3  1  1  0
 10 11  2  0
 11 12  1  0
 12 15  2  0
 15 14  1  0
 14 13  2  0
 13 10  1  0
M  END

$$$$
