No_1943-gen_results/8p0m/2024-11-26-14-13-15/
     RDKit          3D

 21 23  0  0  0  0  0  0  0  0999 V2000
  -28.0162   -0.8135   28.8779 C   0  0  0  0  0  0  0  0  0  0  0  0
  -27.0636   -0.1189   28.6079 C   0  0  0  0  0  0  0  0  0  0  0  0
  -25.7647   -0.3897   29.0360 C   0  0  0  0  0  0  0  0  0  0  0  0
  -24.5516    0.4058   28.7646 C   0  0  0  0  0  0  0  0  0  0  0  0
  -23.2300    0.1178   29.2575 C   0  0  0  0  0  0  0  0  0  0  0  0
  -22.1393    0.9427   28.9224 C   0  0  0  0  0  0  0  0  0  0  0  0
  -27.8294   -1.9287   29.8545 C   0  0  0  0  0  0  0  0  0  0  0  0
  -26.5882   -2.3272   30.2682 C   0  0  0  0  0  0  0  0  0  0  0  0
  -25.4565   -1.5432   29.9146 C   0  0  0  0  0  0  0  0  0  0  0  0
  -22.2302    1.9089   27.8723 C   0  0  0  0  0  0  0  0  0  0  0  0
  -24.5538    1.4700   27.7617 C   0  0  0  0  0  0  0  0  0  0  0  0
  -23.4471    2.1666   27.3764 C   0  0  0  0  0  0  0  0  0  0  0  0
  -28.9783   -2.7708   30.2578 C   0  0  0  0  0  0  0  0  0  0  0  0
  -30.0952   -2.3380   30.2543 N   0  0  0  0  0  0  0  0  0  0  0  0
  -28.7418   -3.9507   30.7117 O   0  0  0  0  0  0  0  0  0  0  0  0
  -31.3151   -3.1062   30.6380 C   0  0  0  0  0  0  0  0  0  0  0  0
  -32.3242   -2.6156   30.8335 C   0  0  0  0  0  0  0  0  0  0  0  0
  -33.1953   -3.0480   31.7197 C   0  0  0  0  0  0  0  0  0  0  0  0
  -33.0630   -4.4214   32.1762 C   0  0  0  0  0  0  0  0  0  0  0  0
  -31.8780   -5.0654   31.9058 C   0  0  0  0  0  0  0  0  0  0  0  0
  -30.9296   -4.3865   31.2426 C   0  0  0  0  0  0  0  0  0  0  0  0
  3  4  1  0
  7 13  1  0
 13 14  1  0
 13 15  2  0
 14 16  1  0
  1  2  2  0
  2  3  1  0
  3  9  2  0
  9  8  1  0
  8  7  2  0
  7  1  1  0
  4  5  2  0
  5  6  1  0
  6 10  2  0
 10 12  1  0
 12 11  2  0
 11  4  1  0
 16 17  2  0
 17 18  1  0
 18 19  2  0
 19 20  1  0
 20 21  2  0
 21 16  1  0
M  END

$$$$
