No_1474-gen_results/8p0m/2024-11-26-14-13-15/
     RDKit          3D

 35 38  0  0  0  0  0  0  0  0999 V2000
  -28.0162   -0.8135   28.8779 C   0  0  0  0  0  0  0  0  0  0  0  0
  -28.4690   -0.7850   29.8287 C   0  0  0  0  0  0  0  0  0  0  0  0
  -28.1960    0.3478   28.0550 C   0  0  0  0  0  0  0  0  0  0  0  0
  -29.0191    1.3501   28.3782 C   0  0  0  0  0  0  0  0  0  0  0  0
  -29.6249    1.2683   29.6012 C   0  0  0  0  0  0  0  0  0  0  0  0
  -29.3821    0.1816   30.4004 C   0  0  0  0  0  0  0  0  0  0  0  0
  -27.4591    0.3787   26.7048 C   0  0  0  0  0  0  0  0  0  0  0  0
  -26.1346    0.3565   26.8185 C   0  0  0  0  0  0  0  0  0  0  0  0
  -25.3307    0.2623   28.0083 C   0  0  0  0  0  0  0  0  0  0  0  0
  -23.9452    0.2952   27.9570 C   0  0  0  0  0  0  0  0  0  0  0  0
  -23.1537    0.0275   29.1149 C   0  0  0  0  0  0  0  0  0  0  0  0
  -21.7671    0.0280   28.9884 C   0  0  0  0  0  0  0  0  0  0  0  0
  -21.1246    0.7902   28.0303 C   0  0  0  0  0  0  0  0  0  0  0  0
  -21.9722    1.4746   27.0813 C   0  0  0  0  0  0  0  0  0  0  0  0
  -23.3270    1.2810   27.1375 C   0  0  0  0  0  0  0  0  0  0  0  0
  -28.2120    0.3830   25.5725 C   0  0  0  0  0  0  0  0  0  0  0  0
  -29.4656    0.1753   25.4833 C   0  0  0  0  0  0  0  0  0  0  0  0
  -27.4162    0.6069   24.3544 C   0  0  0  0  0  0  0  0  0  0  0  0
  -25.3809    0.4918   25.5874 C   0  0  0  0  0  0  0  0  0  0  0  0
  -26.0407    0.5505   24.4100 C   0  0  0  0  0  0  0  0  0  0  0  0
  -30.4089    0.6789   26.0946 O   0  0  0  0  0  0  0  0  0  0  0  0
  -29.9343   -0.6945   24.5152 O   0  0  0  0  0  0  0  0  0  0  0  0
  -23.7412   -0.9515   30.0886 C   0  0  0  0  0  0  0  0  0  0  0  0
  -24.0087   -2.2377   29.8470 C   0  0  0  0  0  0  0  0  0  0  0  0
  -24.0288   -0.3180   31.3804 C   0  0  0  0  0  0  0  0  0  0  0  0
  -25.2177    0.0843   31.6932 C   0  0  0  0  0  0  0  0  0  0  0  0
  -25.6171    0.7573   32.8683 C   0  0  0  0  0  0  0  0  0  0  0  0
  -25.9235    2.1077   32.7386 C   0  0  0  0  0  0  0  0  0  0  0  0
  -26.5204    2.8386   33.8118 C   0  0  0  0  0  0  0  0  0  0  0  0
  -26.9900    2.0736   34.8840 C   0  0  0  0  0  0  0  0  0  0  0  0
  -26.8513    0.7280   34.9699 C   0  0  0  0  0  0  0  0  0  0  0  0
  -26.2184    0.0149   33.9304 C   0  0  0  0  0  0  0  0  0  0  0  0
  -25.4026    2.8997   31.6349 C   0  0  0  0  0  0  0  0  0  0  0  0
  -25.1981    4.0286   31.6971 O   0  0  0  0  0  0  0  0  0  0  0  0
  -25.4979    2.3588   30.4014 O   0  0  0  0  0  0  0  0  0  0  0  0
  3  7  1  0
  8  9  1  0
 16 17  1  0
 17 21  2  0
 17 22  1  0
 11 23  1  0
 23 24  1  0
 23 25  1  0
 25 26  2  3
 26 27  1  0
 28 33  1  0
 33 34  2  0
 33 35  1  0
  9 10  1  0
  1  2  2  0
  2  6  1  0
  6  5  2  0
  5  4  1  0
  4  3  2  0
  3  1  1  0
 10 11  1  0
 11 12  2  0
 12 13  1  0
 13 14  2  0
 14 15  1  0
 15 10  2  0
  7  8  2  0
  8 19  1  0
 19 20  2  0
 20 18  1  0
 18 16  2  0
 16  7  1  0
 27 28  2  0
 28 29  1  0
 29 30  2  0
 30 31  1  0
 31 32  2  0
 32 27  1  0
M  END

$$$$
