No_108-gen_results/8p0m/2024-11-26-14-13-15/
     RDKit          3D

 24 25  0  0  0  0  0  0  0  0999 V2000
  -28.0162   -0.8135   28.8779 C   0  0  0  0  0  0  0  0  0  0  0  0
  -28.4690   -0.7850   29.8287 C   0  0  0  0  0  0  0  0  0  0  0  0
  -28.1816    0.4277   28.1134 C   0  0  0  0  0  0  0  0  0  0  0  0
  -27.4498    0.6435   26.8500 C   0  0  0  0  0  0  0  0  0  0  0  0
  -26.1815    0.0357   26.7145 C   0  0  0  0  0  0  0  0  0  0  0  0
  -25.7800   -0.9326   27.6938 C   0  0  0  0  0  0  0  0  0  0  0  0
  -26.5568   -1.2134   28.7413 C   0  0  0  0  0  0  0  0  0  0  0  0
  -29.6101   -0.2783   30.1938 N   0  0  0  0  0  0  0  0  0  0  0  0
  -28.0389   -1.6599   30.8481 O   0  0  0  0  0  0  0  0  0  0  0  0
  -30.4672   -0.5472   31.3820 C   0  0  0  0  0  0  0  0  0  0  0  0
  -25.3512    0.2980   25.6733 O   0  0  0  0  0  0  0  0  0  0  0  0
  -24.6863    1.5160   25.6835 C   0  0  0  0  0  0  0  0  0  0  0  0
  -23.2714    1.4253   25.7523 C   0  0  0  0  0  0  0  0  0  0  0  0
  -22.6799    1.8494   27.0850 C   0  0  0  0  0  0  0  0  0  0  0  0
  -21.5790    1.1536   27.5858 C   0  0  0  0  0  0  0  0  0  0  0  0
  -21.7812    0.0775   28.4872 C   0  0  0  0  0  0  0  0  0  0  0  0
  -22.9042   -0.0639   29.0042 O   0  0  0  0  0  0  0  0  0  0  0  0
  -20.8399   -0.7229   28.7029 O   0  0  0  0  0  0  0  0  0  0  0  0
  -30.1705   -0.6867   32.4641 C   0  0  0  0  0  0  0  0  0  0  0  0
  -31.0576   -0.9474   33.5801 C   0  0  0  0  0  0  0  0  0  0  0  0
  -30.6254   -1.1729   34.8803 C   0  0  0  0  0  0  0  0  0  0  0  0
  -29.2358   -1.1854   35.1940 C   0  0  0  0  0  0  0  0  0  0  0  0
  -28.2900   -0.9968   34.1561 C   0  0  0  0  0  0  0  0  0  0  0  0
  -28.7474   -0.7608   32.8708 C   0  0  0  0  0  0  0  0  0  0  0  0
  1  2  1  0
  2  8  1  0
  2  9  2  0
  8 10  1  0
  5 11  1  0
 11 12  1  0
 12 13  1  0
 13 14  1  0
 14 15  1  0
 15 16  1  0
 16 17  2  0
 16 18  1  0
 10 19  1  0
 19 20  2  0
 20 21  1  0
 21 22  2  0
 22 23  1  0
 23 24  2  0
 24 19  1  0
  1  3  2  0
  3  4  1  0
  4  5  2  0
  5  6  1  0
  6  7  2  0
  7  1  1  0
M  END

$$$$
