No_170-gen_results/8p0m/2024-11-26-14-13-15/
     RDKit          3D

 17 18  0  0  0  0  0  0  0  0999 V2000
  -28.0162   -0.8135   28.8779 C   0  0  0  0  0  0  0  0  0  0  0  0
  -28.4690   -0.7850   29.8287 C   0  0  0  0  0  0  0  0  0  0  0  0
  -28.1960    0.3478   28.0550 C   0  0  0  0  0  0  0  0  0  0  0  0
  -27.4421    0.5100   26.7946 C   0  0  0  0  0  0  0  0  0  0  0  0
  -26.4394    0.8329   26.6142 C   0  0  0  0  0  0  0  0  0  0  0  0
  -25.2140    0.6624   26.7020 C   0  0  0  0  0  0  0  0  0  0  0  0
  -24.3985    0.0427   27.6996 C   0  0  0  0  0  0  0  0  0  0  0  0
  -23.2270    0.5345   28.2267 C   0  0  0  0  0  0  0  0  0  0  0  0
  -22.5415   -0.1250   29.2949 C   0  0  0  0  0  0  0  0  0  0  0  0
  -29.5184    0.0578   30.3532 C   0  0  0  0  0  0  0  0  0  0  0  0
  -29.8119    1.1316   29.5782 C   0  0  0  0  0  0  0  0  0  0  0  0
  -29.1492    1.3054   28.3882 C   0  0  0  0  0  0  0  0  0  0  0  0
  -23.0326   -1.3159   29.7624 C   0  0  0  0  0  0  0  0  0  0  0  0
  -24.2056   -1.8525   29.3043 C   0  0  0  0  0  0  0  0  0  0  0  0
  -24.9001   -1.1611   28.2841 C   0  0  0  0  0  0  0  0  0  0  0  0
  -28.2071   -0.1432   25.8259 O   0  0  0  0  0  0  0  0  0  0  0  0
  -24.3937    0.8115   25.4539 C   0  0  0  0  0  0  0  0  0  0  0  0
  3  4  1  0
  4  5  1  0
  5  6  1  0
  6  7  1  0
  4 16  2  0
  6 17  1  0
  1  2  2  0
  2 10  1  0
 10 11  2  0
 11 12  1  0
 12  3  2  0
  3  1  1  0
  7  8  2  0
  8  9  1  0
  9 13  2  0
 13 14  1  0
 14 15  2  0
 15  7  1  0
M  END

$$$$
