No_1458-gen_results/8p0m/2024-11-26-14-13-15/
     RDKit          3D

 13 13  0  0  0  0  0  0  0  0999 V2000
  -28.0162   -0.8135   28.8779 C   0  0  0  0  0  0  0  0  0  0  0  0
  -27.0636   -0.1189   28.6079 C   0  0  0  0  0  0  0  0  0  0  0  0
  -26.9287    1.1713   29.0083 C   0  0  0  0  0  0  0  0  0  0  0  0
  -25.7702    2.0341   28.6884 C   0  0  0  0  0  0  0  0  0  0  0  0
  -24.7141    1.4431   27.9188 C   0  0  0  0  0  0  0  0  0  0  0  0
  -24.8590    0.0783   27.5836 C   0  0  0  0  0  0  0  0  0  0  0  0
  -25.9647   -0.6606   27.9164 C   0  0  0  0  0  0  0  0  0  0  0  0
  -28.0422   -1.5426   30.2417 C   0  0  0  0  0  0  0  0  0  0  0  0
  -29.0635   -2.4584   30.5917 C   0  0  0  0  0  0  0  0  0  0  0  0
  -28.7747   -3.5509   31.2409 C   0  0  0  0  0  0  0  0  0  0  0  0
  -29.9110   -4.2663   31.6595 C   0  0  0  0  0  0  0  0  0  0  0  0
  -31.1344   -4.0074   31.1775 C   0  0  0  0  0  0  0  0  0  0  0  0
  -31.3891   -2.9117   30.4413 C   0  0  0  0  0  0  0  0  0  0  0  0
  1  2  1  0
  1  8  1  0
  8  9  2  3
  9 10  1  0
 10 11  1  0
 11 12  2  3
 12 13  1  0
  2  3  2  0
  3  4  1  0
  4  5  2  0
  5  6  1  0
  6  7  2  0
  7  2  1  0
M  END

$$$$
