No_1057-gen_results/8p0m/2024-11-26-14-13-15/
     RDKit          3D

 35 38  0  0  0  0  0  0  0  0999 V2000
  -28.0162   -0.8135   28.8779 C   0  0  0  0  0  0  0  0  0  0  0  0
  -27.0636   -0.1189   28.6079 C   0  0  0  0  0  0  0  0  0  0  0  0
  -26.8756    1.1325   28.9134 C   0  0  0  0  0  0  0  0  0  0  0  0
  -27.9014    1.8066   29.6436 C   0  0  0  0  0  0  0  0  0  0  0  0
  -29.0458   -0.2316   29.7181 C   0  0  0  0  0  0  0  0  0  0  0  0
  -28.9402    1.0517   30.0597 C   0  0  0  0  0  0  0  0  0  0  0  0
  -30.0593   -1.0632   30.0946 O   0  0  0  0  0  0  0  0  0  0  0  0
  -25.6684    1.9362   28.4484 C   0  0  0  0  0  0  0  0  0  0  0  0
  -24.9744    2.6172   28.9157 N   0  0  0  0  0  0  0  0  0  0  0  0
  -25.3709    1.7935   26.9695 C   0  0  0  0  0  0  0  0  0  0  0  0
  -24.1881    2.5375   26.8005 C   0  0  0  0  0  0  0  0  0  0  0  0
  -23.8972    3.1516   28.0647 C   0  0  0  0  0  0  0  0  0  0  0  0
  -29.8635   -2.1294   30.8569 C   0  0  0  0  0  0  0  0  0  0  0  0
  -30.1234   -3.3540   30.2209 C   0  0  0  0  0  0  0  0  0  0  0  0
  -29.4690   -4.5303   30.7745 C   0  0  0  0  0  0  0  0  0  0  0  0
  -28.6505   -5.0201   30.3713 C   0  0  0  0  0  0  0  0  0  0  0  0
  -27.7692   -4.2490   29.4028 C   0  0  0  0  0  0  0  0  0  0  0  0
  -27.1211   -3.1125   29.9557 C   0  0  0  0  0  0  0  0  0  0  0  0
  -31.0172   -3.4650   29.3915 O   0  0  0  0  0  0  0  0  0  0  0  0
  -25.6635   -3.0079   29.6979 C   0  0  0  0  0  0  0  0  0  0  0  0
  -24.9233   -1.9597   30.2647 C   0  0  0  0  0  0  0  0  0  0  0  0
  -25.4628   -1.0841   31.2843 C   0  0  0  0  0  0  0  0  0  0  0  0
  -26.8322   -1.3835   31.7135 C   0  0  0  0  0  0  0  0  0  0  0  0
  -27.5284   -2.3516   31.0835 C   0  0  0  0  0  0  0  0  0  0  0  0
  -28.9461   -2.2609   31.4779 C   0  0  0  0  0  0  0  0  0  0  0  0
  -29.9718    1.7431   30.9336 C   0  0  0  0  0  0  0  0  0  0  0  0
  -29.9081    2.6035   31.4425 O   0  0  0  0  0  0  0  0  0  0  0  0
  -31.2350    1.1748   30.6073 O   0  0  0  0  0  0  0  0  0  0  0  0
  -31.6826   -4.5560   29.0286 C   0  0  0  0  0  0  0  0  0  0  0  0
  -32.1140   -4.5742   27.7260 C   0  0  0  0  0  0  0  0  0  0  0  0
  -32.1914   -3.4628   27.0700 C   0  0  0  0  0  0  0  0  0  0  0  0
  -31.9369   -2.4972   27.4699 O   0  0  0  0  0  0  0  0  0  0  0  0
  -32.5705   -3.5524   25.6905 N   0  0  0  0  0  0  0  0  0  0  0  0
  -24.7260    0.0767   31.4724 C   0  0  0  0  0  0  0  0  0  0  0  0
  -25.2258    1.0967   32.3359 C   0  0  0  0  0  0  0  0  0  0  0  0
  5  7  1  0
  3  8  1  0
  8  9  2  0
  8 10  1  0
 10 11  1  0
  9 12  1  0
 11 12  1  0
  7 13  1  0
 13 14  2  3
 14 15  1  0
 15 16  2  3
 16 17  1  0
 17 18  1  0
 14 19  1  0
 13 25  1  0
 24 25  1  0
  6 26  1  0
 26 27  2  0
 26 28  1  0
 19 29  1  0
 29 30  1  0
 30 31  1  0
 31 32  2  0
 31 33  1  0
 22 34  1  0
 34 35  2  0
  1  2  2  0
  2  3  1  0
  3  4  2  0
  4  6  1  0
  6  5  2  0
  5  1  1  0
 18 20  2  0
 20 21  1  0
 21 22  2  0
 22 23  1  0
 23 24  2  0
 24 18  1  0
M  END

$$$$
