No_1829-gen_results/8p0m/2024-11-26-14-13-15/
     RDKit          3D

 31 35  0  0  0  0  0  0  0  0999 V2000
  -28.0162   -0.8135   28.8779 C   0  0  0  0  0  0  0  0  0  0  0  0
  -27.0636   -0.1189   28.6079 C   0  0  0  0  0  0  0  0  0  0  0  0
  -27.0010    0.6913   27.4910 C   0  0  0  0  0  0  0  0  0  0  0  0
  -25.8548    1.4825   27.0830 C   0  0  0  0  0  0  0  0  0  0  0  0
  -24.6901    1.4526   27.8807 C   0  0  0  0  0  0  0  0  0  0  0  0
  -24.7379    0.6010   29.0416 C   0  0  0  0  0  0  0  0  0  0  0  0
  -25.8234   -0.1688   29.3887 C   0  0  0  0  0  0  0  0  0  0  0  0
  -28.7350   -0.4637   30.1419 C   0  0  0  0  0  0  0  0  0  0  0  0
  -29.8111   -1.3049   30.6007 C   0  0  0  0  0  0  0  0  0  0  0  0
  -23.5152    2.1989   27.5480 C   0  0  0  0  0  0  0  0  0  0  0  0
  -22.7560    1.7136   26.9988 F   0  0  0  0  0  0  0  0  0  0  0  0
  -22.9583    2.7175   28.7505 F   0  0  0  0  0  0  0  0  0  0  0  0
  -23.9536    3.3804   26.9639 F   0  0  0  0  0  0  0  0  0  0  0  0
  -30.8459   -1.3578   30.4533 C   0  0  0  0  0  0  0  0  0  0  0  0
  -31.4548   -0.2808   29.6441 C   0  0  0  0  0  0  0  0  0  0  0  0
  -32.6687   -0.3951   29.0902 C   0  0  0  0  0  0  0  0  0  0  0  0
  -33.1742    0.6120   28.2540 C   0  0  0  0  0  0  0  0  0  0  0  0
  -32.4653    1.4077   27.8726 C   0  0  0  0  0  0  0  0  0  0  0  0
  -31.1225    1.6901   28.2638 C   0  0  0  0  0  0  0  0  0  0  0  0
  -30.6313    0.7485   29.1518 C   0  0  0  0  0  0  0  0  0  0  0  0
  -29.1923    0.8667   30.3069 C   0  0  0  0  0  0  0  0  0  0  0  0
  -27.7377   -0.1492   31.3825 C   0  0  0  0  0  0  0  0  0  0  0  0
  -27.8074    0.8757   32.1873 C   0  0  0  0  0  0  0  0  0  0  0  0
  -28.9904    2.0035   30.8474 C   0  0  0  0  0  0  0  0  0  0  0  0
  -28.2657    2.0505   31.9070 C   0  0  0  0  0  0  0  0  0  0  0  0
  -28.1409    0.7609   26.5232 C   0  0  0  0  0  0  0  0  0  0  0  0
  -28.7217    0.0682   25.8389 C   0  0  0  0  0  0  0  0  0  0  0  0
  -29.8889    0.2663   25.0779 C   0  0  0  0  0  0  0  0  0  0  0  0
  -30.2797    1.5715   24.8819 C   0  0  0  0  0  0  0  0  0  0  0  0
  -28.5294    2.2925   26.3805 C   0  0  0  0  0  0  0  0  0  0  0  0
  -29.5537    2.6146   25.5440 C   0  0  0  0  0  0  0  0  0  0  0  0
  1  2  1  0
  1  8  1  0
  8  9  1  0
  5 10  1  0
 10 11  1  0
 10 12  1  0
 10 13  1  0
 14 15  1  0
  8 21  1  0
 20 21  1  0
  8 22  1  0
 21 24  1  0
 23 25  1  0
  3 26  1  0
  9 14  1  0
 24 25  1  0
 23 22  1  0
 15 16  2  0
 16 17  1  0
 17 18  2  0
 18 19  1  0
 19 20  2  0
 20 15  1  0
  2  3  1  0
  3  4  2  0
  4  5  1  0
  5  6  2  0
  6  7  1  0
  7  2  2  0
 26 27  2  0
 27 28  1  0
 28 29  2  0
 29 31  1  0
 31 30  2  0
 30 26  1  0
M  END

$$$$
