No_1856-gen_results/8p0m/2024-11-26-14-13-15/
     RDKit          3D

 16 17  0  0  0  0  0  0  0  0999 V2000
  -28.0162   -0.8135   28.8779 C   0  0  0  0  0  0  0  0  0  0  0  0
  -27.0636   -0.1190   28.6079 C   0  0  0  0  0  0  0  0  0  0  0  0
  -26.9287    1.1713   29.0083 C   0  0  0  0  0  0  0  0  0  0  0  0
  -27.9560    1.7411   29.7840 C   0  0  0  0  0  0  0  0  0  0  0  0
  -29.0569   -0.3271   29.7466 C   0  0  0  0  0  0  0  0  0  0  0  0
  -28.9828    0.9722   30.1516 C   0  0  0  0  0  0  0  0  0  0  0  0
  -25.8196   -0.9203   27.7393 Cl  0  0  0  0  0  0  0  0  0  0  0  0
  -30.0314    1.7288   30.9176 C   0  0  0  0  0  0  0  0  0  0  0  0
  -30.9386    1.0192   31.5528 C   0  0  0  0  0  0  0  0  0  0  0  0
  -32.0087    1.6706   32.2988 C   0  0  0  0  0  0  0  0  0  0  0  0
  -32.0054    3.0881   32.2691 C   0  0  0  0  0  0  0  0  0  0  0  0
  -31.0521    3.7707   31.5820 C   0  0  0  0  0  0  0  0  0  0  0  0
  -30.0249    3.1221   30.8973 C   0  0  0  0  0  0  0  0  0  0  0  0
  -31.0264    5.2589   31.5815 C   0  0  0  0  0  0  0  0  0  0  0  0
  -31.1374    5.9326   32.6323 C   0  0  0  0  0  0  0  0  0  0  0  0
  -31.1448    7.3816   32.6100 C   0  0  0  0  0  0  0  0  0  0  0  0
  2  7  1  0
  6  8  1  0
 12 14  1  0
 14 15  2  3
 15 16  1  0
  1  2  2  0
  2  3  1  0
  3  4  2  0
  4  6  1  0
  6  5  2  0
  5  1  1  0
  8  9  2  0
  9 10  1  0
 10 11  2  0
 11 12  1  0
 12 13  2  0
 13  8  1  0
M  END

$$$$
