No_1184-gen_results/8p0m/2024-11-26-14-13-15/
     RDKit          3D

 20 20  0  0  0  0  0  0  0  0999 V2000
  -28.1493   -0.8198   28.9079 Cl  0  0  0  0  0  0  0  0  0  0  0  0
  -26.9116   -0.0797   28.9452 C   0  0  0  0  0  0  0  0  0  0  0  0
  -25.9665   -0.2123   29.6235 C   0  0  0  0  0  0  0  0  0  0  0  0
  -24.7040    0.5534   29.6218 C   0  0  0  0  0  0  0  0  0  0  0  0
  -24.6011    1.5437   28.6212 C   0  0  0  0  0  0  0  0  0  0  0  0
  -25.6671    1.7162   27.8026 C   0  0  0  0  0  0  0  0  0  0  0  0
  -26.7607    0.9618   27.8836 C   0  0  0  0  0  0  0  0  0  0  0  0
  -23.1653    2.4583   28.5574 Cl  0  0  0  0  0  0  0  0  0  0  0  0
  -27.7591    1.1618   27.0358 F   0  0  0  0  0  0  0  0  0  0  0  0
  -23.5579    0.3260   30.5598 C   0  0  0  0  0  0  0  0  0  0  0  0
  -23.5150   -0.4152   31.4122 O   0  0  0  0  0  0  0  0  0  0  0  0
  -22.4472    1.0713   30.3512 O   0  0  0  0  0  0  0  0  0  0  0  0
  -25.5173    2.9474   26.5892 Cl  0  0  0  0  0  0  0  0  0  0  0  0
  -25.9081   -1.1966   30.6089 O   0  0  0  0  0  0  0  0  0  0  0  0
  -25.8699   -2.4693   30.0737 C   0  0  0  0  0  0  0  0  0  0  0  0
  -27.1522   -3.2625   30.1878 C   0  0  0  0  0  0  0  0  0  0  0  0
  -28.0640   -2.6744   30.6933 F   0  0  0  0  0  0  0  0  0  0  0  0
  -26.7693   -4.3923   30.9671 F   0  0  0  0  0  0  0  0  0  0  0  0
  -27.4415   -3.7228   28.9847 F   0  0  0  0  0  0  0  0  0  0  0  0
  -24.7844   -2.8986   29.6274 O   0  0  0  0  0  0  0  0  0  0  0  0
  1  2  1  0
  5  8  1  0
  7  9  1  0
  4 10  1  0
 10 11  2  0
 10 12  1  0
  6 13  1  0
  3 14  1  0
 14 15  1  0
 15 16  1  0
 16 17  1  0
 16 18  1  0
 16 19  1  0
 15 20  2  0
  2  3  2  0
  3  4  1  0
  4  5  2  0
  5  6  1  0
  6  7  2  0
  7  2  1  0
M  END

$$$$
