No_1455-gen_results/8p0m/2024-11-26-14-13-15/
     RDKit          3D

 17 19  0  0  0  0  0  0  0  0999 V2000
  -28.0162   -0.8135   28.8779 C   0  0  0  0  0  0  0  0  0  0  0  0
  -28.4690   -0.7850   29.8287 C   0  0  0  0  0  0  0  0  0  0  0  0
  -27.1356    0.2359   28.5352 C   0  0  0  0  0  0  0  0  0  0  0  0
  -26.8745    1.2825   29.3982 C   0  0  0  0  0  0  0  0  0  0  0  0
  -28.3613    0.1987   30.9244 C   0  0  0  0  0  0  0  0  0  0  0  0
  -25.9723    2.3852   29.1040 C   0  0  0  0  0  0  0  0  0  0  0  0
  -27.5118    1.2316   30.6323 C   0  0  0  0  0  0  0  0  0  0  0  0
  -25.3009    2.5053   28.0335 C   0  0  0  0  0  0  0  0  0  0  0  0
  -24.7278    1.4799   27.3812 C   0  0  0  0  0  0  0  0  0  0  0  0
  -24.2004    0.4255   28.0721 C   0  0  0  0  0  0  0  0  0  0  0  0
  -22.9717    0.6001   28.7724 C   0  0  0  0  0  0  0  0  0  0  0  0
  -22.3975   -0.5620   29.4100 C   0  0  0  0  0  0  0  0  0  0  0  0
  -23.0889   -1.7204   29.4213 C   0  0  0  0  0  0  0  0  0  0  0  0
  -24.2981   -1.9089   28.8292 C   0  0  0  0  0  0  0  0  0  0  0  0
  -24.7222   -0.8011   28.2256 C   0  0  0  0  0  0  0  0  0  0  0  0
  -25.6110   -0.3779   28.1766 C   0  0  0  0  0  0  0  0  0  0  0  0
  -26.1388   -1.7585   26.8828 Cl  0  0  0  0  0  0  0  0  0  0  0  0
  4  6  1  0
  6  8  2  3
  8  9  1  0
  9 10  1  0
  3 16  1  0
 15 16  1  0
 16 17  1  0
 10 11  2  0
 11 12  1  0
 12 13  2  0
 13 14  1  0
 14 15  2  0
 15 10  1  0
  1  2  2  0
  2  5  1  0
  5  7  2  0
  7  4  1  0
  4  3  2  0
  3  1  1  0
M  END

$$$$
