No_1898-gen_results/8p0m/2024-11-26-14-13-15/
     RDKit          3D

 23 24  0  0  0  0  0  0  0  0999 V2000
  -28.0162   -0.8135   28.8779 C   0  0  0  0  0  0  0  0  0  0  0  0
  -28.4690   -0.7850   29.8287 C   0  0  0  0  0  0  0  0  0  0  0  0
  -28.1816    0.4277   28.1134 C   0  0  0  0  0  0  0  0  0  0  0  0
  -28.9841    1.4155   28.5154 C   0  0  0  0  0  0  0  0  0  0  0  0
  -29.3802    0.1384   30.4612 C   0  0  0  0  0  0  0  0  0  0  0  0
  -29.5415    1.2736   29.7242 C   0  0  0  0  0  0  0  0  0  0  0  0
  -27.4452    0.4872   26.7726 C   0  0  0  0  0  0  0  0  0  0  0  0
  -27.8546    0.6986   25.7753 N   0  0  0  0  0  0  0  0  0  0  0  0
  -26.0936    0.2403   26.8551 O   0  0  0  0  0  0  0  0  0  0  0  0
  -29.2817    0.9744   25.5258 C   0  0  0  0  0  0  0  0  0  0  0  0
  -27.0698    0.6623   24.5032 C   0  0  0  0  0  0  0  0  0  0  0  0
  -30.5910    2.5245   30.3012 Cl  0  0  0  0  0  0  0  0  0  0  0  0
  -29.9449    0.0377   24.6300 C   0  0  0  0  0  0  0  0  0  0  0  0
  -30.6436   -0.9108   25.3182 C   0  0  0  0  0  0  0  0  0  0  0  0
  -32.0541   -0.8446   25.1272 C   0  0  0  0  0  0  0  0  0  0  0  0
  -32.8301   -1.6311   26.0151 C   0  0  0  0  0  0  0  0  0  0  0  0
  -32.7184   -1.7158   27.0161 C   0  0  0  0  0  0  0  0  0  0  0  0
  -33.4192   -2.6255   27.9594 C   0  0  0  0  0  0  0  0  0  0  0  0
  -34.4446   -3.3054   27.4467 C   0  0  0  0  0  0  0  0  0  0  0  0
  -34.7374   -3.2553   26.0831 C   0  0  0  0  0  0  0  0  0  0  0  0
  -33.9499   -2.4355   25.3524 C   0  0  0  0  0  0  0  0  0  0  0  0
  -32.4240    0.4584   25.2334 F   0  0  0  0  0  0  0  0  0  0  0  0
  -32.3066   -1.1722   23.7035 O   0  0  0  0  0  0  0  0  0  0  0  0
  3  7  1  0
  7  8  1  0
  7  9  2  0
  8 10  1  0
  8 11  1  0
  6 12  1  0
 10 13  1  0
 13 14  1  0
 14 15  1  0
 15 16  1  0
 15 22  1  0
 15 23  1  0
  1  2  2  0
  2  5  1  0
  5  6  2  0
  6  4  1  0
  4  3  2  0
  3  1  1  0
 16 17  2  0
 17 18  1  0
 18 19  2  0
 19 20  1  0
 20 21  2  0
 21 16  1  0
M  END

$$$$
