No_1047-gen_results/8p0m/2024-11-26-14-13-15/
     RDKit          3D

 34 37  0  0  0  0  0  0  0  0999 V2000
  -28.0162   -0.8135   28.8779 C   0  0  0  0  0  0  0  0  0  0  0  0
  -27.0636   -0.1189   28.6079 C   0  0  0  0  0  0  0  0  0  0  0  0
  -25.7923   -0.4302   29.0761 C   0  0  0  0  0  0  0  0  0  0  0  0
  -25.5756   -1.5654   29.9363 C   0  0  0  0  0  0  0  0  0  0  0  0
  -26.7354   -2.3004   30.2173 C   0  0  0  0  0  0  0  0  0  0  0  0
  -27.9184   -1.9537   29.7629 C   0  0  0  0  0  0  0  0  0  0  0  0
  -29.0732   -2.7835   30.1783 C   0  0  0  0  0  0  0  0  0  0  0  0
  -28.9369   -4.0716   30.3653 N   0  0  0  0  0  0  0  0  0  0  0  0
  -30.0462   -4.8326   30.6607 C   0  0  0  0  0  0  0  0  0  0  0  0
  -29.9285   -6.1305   30.9459 C   0  0  0  0  0  0  0  0  0  0  0  0
  -31.1051   -4.2536   30.9015 O   0  0  0  0  0  0  0  0  0  0  0  0
  -30.8188   -6.7855   31.8891 C   0  0  0  0  0  0  0  0  0  0  0  0
  -31.8809   -6.9027   31.5412 C   0  0  0  0  0  0  0  0  0  0  0  0
  -30.1969   -7.4607   33.0365 C   0  0  0  0  0  0  0  0  0  0  0  0
  -24.5358    0.3646   28.7158 C   0  0  0  0  0  0  0  0  0  0  0  0
  -24.5330    1.2281   27.6971 C   0  0  0  0  0  0  0  0  0  0  0  0
  -23.5592    1.8915   27.3550 C   0  0  0  0  0  0  0  0  0  0  0  0
  -22.2703    1.7398   27.9294 C   0  0  0  0  0  0  0  0  0  0  0  0
  -23.3832    0.2297   29.5609 C   0  0  0  0  0  0  0  0  0  0  0  0
  -22.2014    0.9187   29.0898 C   0  0  0  0  0  0  0  0  0  0  0  0
  -23.6974    2.8188   26.3272 O   0  0  0  0  0  0  0  0  0  0  0  0
  -30.9080   -8.3828   33.7245 C   0  0  0  0  0  0  0  0  0  0  0  0
  -32.8217   -7.8165   32.3490 C   0  0  0  0  0  0  0  0  0  0  0  0
  -32.3101   -8.4674   33.4265 C   0  0  0  0  0  0  0  0  0  0  0  0
  -29.2483   -0.5156   28.4563 F   0  0  0  0  0  0  0  0  0  0  0  0
  -34.2303   -7.9215   31.9820 C   0  0  0  0  0  0  0  0  0  0  0  0
  -35.0406   -7.0022   32.5147 C   0  0  0  0  0  0  0  0  0  0  0  0
  -35.8179   -6.3890   32.3635 C   0  0  0  0  0  0  0  0  0  0  0  0
  -36.4280   -6.2234   30.9885 C   0  0  0  0  0  0  0  0  0  0  0  0
  -35.8935   -7.1967   30.1357 C   0  0  0  0  0  0  0  0  0  0  0  0
  -34.6078   -7.9419   30.5407 C   0  0  0  0  0  0  0  0  0  0  0  0
  -36.3164   -7.3405   28.7714 C   0  0  0  0  0  0  0  0  0  0  0  0
  -36.3948   -8.2806   28.1794 O   0  0  0  0  0  0  0  0  0  0  0  0
  -36.6960   -6.1964   28.1725 O   0  0  0  0  0  0  0  0  0  0  0  0
  6  7  1  0
  7  8  2  3
  8  9  1  0
  9 10  1  0
  9 11  2  0
 10 12  1  0
  3 15  1  0
 17 21  1  0
  1 25  1  0
 23 26  1  0
 30 32  1  0
 32 33  2  0
 32 34  1  0
 12 13  2  0
 13 23  1  0
 23 24  2  0
 24 22  1  0
 22 14  2  0
 14 12  1  0
  1  2  2  0
  2  3  1  0
  3  4  2  0
  4  5  1  0
  5  6  2  0
  6  1  1  0
 26 27  2  0
 27 28  1  0
 28 29  2  0
 29 30  1  0
 30 31  2  0
 31 26  1  0
 15 16  2  0
 16 17  1  0
 17 18  2  0
 18 20  1  0
 20 19  2  0
 19 15  1  0
M  END

$$$$
