No_1970-gen_results/8p0m/2024-11-26-14-13-15/
     RDKit          3D

 35 37  0  0  0  0  0  0  0  0999 V2000
  -28.0162   -0.8135   28.8779 C   0  0  0  0  0  0  0  0  0  0  0  0
  -27.0636   -0.1189   28.6079 C   0  0  0  0  0  0  0  0  0  0  0  0
  -26.9287    1.1713   29.0083 C   0  0  0  0  0  0  0  0  0  0  0  0
  -27.9560    1.7411   29.7840 C   0  0  0  0  0  0  0  0  0  0  0  0
  -29.0569   -0.3271   29.7466 C   0  0  0  0  0  0  0  0  0  0  0  0
  -30.1704   -1.1582   30.1327 C   0  0  0  0  0  0  0  0  0  0  0  0
  -28.9772    0.9577   30.1786 C   0  0  0  0  0  0  0  0  0  0  0  0
  -30.7874   -0.7994   31.1655 O   0  0  0  0  0  0  0  0  0  0  0  0
  -30.3771   -2.2469   29.5059 O   0  0  0  0  0  0  0  0  0  0  0  0
  -26.0057   -0.5866   27.8538 F   0  0  0  0  0  0  0  0  0  0  0  0
  -27.8167    3.0492   30.1764 O   0  0  0  0  0  0  0  0  0  0  0  0
  -27.2570    3.3149   31.3043 C   0  0  0  0  0  0  0  0  0  0  0  0
  -25.9856    3.7473   31.2485 C   0  0  0  0  0  0  0  0  0  0  0  0
  -25.1299    3.8812   32.4700 C   0  0  0  0  0  0  0  0  0  0  0  0
  -25.7346    3.6998   33.6744 C   0  0  0  0  0  0  0  0  0  0  0  0
  -27.0422    3.2765   33.7074 C   0  0  0  0  0  0  0  0  0  0  0  0
  -27.7808    3.0645   32.5597 C   0  0  0  0  0  0  0  0  0  0  0  0
  -25.3177    3.9650   30.0830 O   0  0  0  0  0  0  0  0  0  0  0  0
  -24.7404    2.9899   29.3337 C   0  0  0  0  0  0  0  0  0  0  0  0
  -24.3368    3.3249   27.9835 C   0  0  0  0  0  0  0  0  0  0  0  0
  -23.6578    2.3401   27.1961 C   0  0  0  0  0  0  0  0  0  0  0  0
  -22.9983    1.2462   27.9080 C   0  0  0  0  0  0  0  0  0  0  0  0
  -23.1855    1.0705   29.2535 C   0  0  0  0  0  0  0  0  0  0  0  0
  -23.9790    2.0017   29.9694 C   0  0  0  0  0  0  0  0  0  0  0  0
  -22.5899   -0.0857   29.8920 C   0  0  0  0  0  0  0  0  0  0  0  0
  -23.1732   -1.1737   29.9402 N   0  0  0  0  0  0  0  0  0  0  0  0
  -24.0948   -1.5607   30.8825 C   0  0  0  0  0  0  0  0  0  0  0  0
  -25.4062   -1.5486   30.6694 C   0  0  0  0  0  0  0  0  0  0  0  0
  -26.3066   -1.7360   31.7695 C   0  0  0  0  0  0  0  0  0  0  0  0
  -27.7099   -1.8101   31.5260 C   0  0  0  0  0  0  0  0  0  0  0  0
  -28.2123   -2.2484   32.7134 C   0  0  0  0  0  0  0  0  0  0  0  0
  -28.6813   -1.9205   33.5817 N   0  0  0  0  0  0  0  0  0  0  0  0
  -29.1662   -2.6234   34.6937 C   0  0  0  0  0  0  0  0  0  0  0  0
  -23.1708   -2.0251   28.7518 C   0  0  0  0  0  0  0  0  0  0  0  0
  -25.0381    4.3886   27.2300 C   0  0  0  0  0  0  0  0  0  0  0  0
  5  6  1  0
  6  8  2  0
  6  9  1  0
  2 10  1  0
  4 11  1  0
 11 12  1  0
 13 18  1  0
 18 19  1  0
 23 25  1  0
 25 26  1  0
 26 27  1  0
 27 28  2  3
 28 29  1  0
 29 30  1  0
 30 31  2  0
 31 32  2  0
 32 33  1  0
 26 34  1  0
 20 35  1  0
 12 13  1  0
 13 14  2  0
 14 15  1  0
 15 16  2  0
 16 17  1  0
 17 12  2  0
  1  2  2  0
  2  3  1  0
  3  4  2  0
  4  7  1  0
  7  5  2  0
  5  1  1  0
 19 20  2  0
 20 21  1  0
 21 22  2  0
 22 23  1  0
 23 24  2  0
 24 19  1  0
M  END

$$$$
