No_1179-gen_results/8p0m/2024-11-26-14-13-15/
     RDKit          3D

 32 35  0  0  0  0  0  0  0  0999 V2000
  -28.0162   -0.8135   28.8779 C   0  0  0  0  0  0  0  0  0  0  0  0
  -27.0636   -0.1189   28.6079 C   0  0  0  0  0  0  0  0  0  0  0  0
  -25.7923   -0.4302   29.0761 C   0  0  0  0  0  0  0  0  0  0  0  0
  -24.5456    0.3494   28.8225 C   0  0  0  0  0  0  0  0  0  0  0  0
  -23.2409    0.0217   29.3323 C   0  0  0  0  0  0  0  0  0  0  0  0
  -27.8820   -1.8995   29.8633 C   0  0  0  0  0  0  0  0  0  0  0  0
  -26.6706   -2.3272   30.3212 C   0  0  0  0  0  0  0  0  0  0  0  0
  -25.5433   -1.5852   29.9316 C   0  0  0  0  0  0  0  0  0  0  0  0
  -22.1918    0.8302   29.0004 C   0  0  0  0  0  0  0  0  0  0  0  0
  -22.1472    1.7783   28.0287 C   0  0  0  0  0  0  0  0  0  0  0  0
  -24.5322    1.3987   27.8163 C   0  0  0  0  0  0  0  0  0  0  0  0
  -23.3620    2.0694   27.4607 C   0  0  0  0  0  0  0  0  0  0  0  0
  -29.0683   -2.7198   30.2979 C   0  0  0  0  0  0  0  0  0  0  0  0
  -29.0092   -3.9279   30.2794 O   0  0  0  0  0  0  0  0  0  0  0  0
  -30.1092   -2.1305   30.7127 O   0  0  0  0  0  0  0  0  0  0  0  0
  -23.4848    3.0107   26.5149 F   0  0  0  0  0  0  0  0  0  0  0  0
  -31.0648   -2.5372   31.2379 C   0  0  0  0  0  0  0  0  0  0  0  0
  -32.1846   -2.9245   30.5103 C   0  0  0  0  0  0  0  0  0  0  0  0
  -32.7785   -3.9492   30.6471 C   0  0  0  0  0  0  0  0  0  0  0  0
  -32.5407   -2.0162   29.4066 C   0  0  0  0  0  0  0  0  0  0  0  0
  -33.5083   -2.3790   28.4764 C   0  0  0  0  0  0  0  0  0  0  0  0
  -33.8855   -4.3848   29.7390 C   0  0  0  0  0  0  0  0  0  0  0  0
  -34.2461   -3.5253   28.7075 C   0  0  0  0  0  0  0  0  0  0  0  0
  -33.8931   -1.4657   27.3934 C   0  0  0  0  0  0  0  0  0  0  0  0
  -34.0193   -0.2049   27.6600 C   0  0  0  0  0  0  0  0  0  0  0  0
  -34.2261    0.7572   26.5862 C   0  0  0  0  0  0  0  0  0  0  0  0
  -34.3338    0.2264   25.3001 C   0  0  0  0  0  0  0  0  0  0  0  0
  -33.9054   -1.9039   26.0928 C   0  0  0  0  0  0  0  0  0  0  0  0
  -34.1478   -1.0875   25.0444 C   0  0  0  0  0  0  0  0  0  0  0  0
  -31.5031   -1.4487   32.3491 C   0  0  0  0  0  0  0  0  0  0  0  0
  -30.7641   -0.9939   33.0492 O   0  0  0  0  0  0  0  0  0  0  0  0
  -32.7735   -1.1477   32.3978 O   0  0  0  0  0  0  0  0  0  0  0  0
  3  4  1  0
  6 13  1  0
 13 14  2  0
 13 15  1  0
 12 16  1  0
 15 17  1  0
 17 18  1  0
 21 24  1  0
 17 30  1  0
 30 31  2  0
 30 32  1  0
 18 19  2  0
 19 22  1  0
 22 23  2  0
 23 21  1  0
 21 20  2  0
 20 18  1  0
  1  2  2  0
  2  3  1  0
  3  8  2  0
  8  7  1  0
  7  6  2  0
  6  1  1  0
 24 25  2  0
 25 26  1  0
 26 27  2  0
 27 29  1  0
 29 28  2  0
 28 24  1  0
  4  5  2  0
  5  9  1  0
  9 10  2  0
 10 12  1  0
 12 11  2  0
 11  4  1  0
M  END

$$$$
