No_1902-gen_results/8p0m/2024-11-26-14-13-15/
     RDKit          3D

 26 27  0  0  0  0  0  0  0  0999 V2000
  -28.0162   -0.8135   28.8779 C   0  0  0  0  0  0  0  0  0  0  0  0
  -27.0636   -0.1190   28.6079 C   0  0  0  0  0  0  0  0  0  0  0  0
  -25.7923   -0.4302   29.0761 C   0  0  0  0  0  0  0  0  0  0  0  0
  -24.5456    0.3494   28.8225 C   0  0  0  0  0  0  0  0  0  0  0  0
  -24.6586    1.4196   27.8878 C   0  0  0  0  0  0  0  0  0  0  0  0
  -25.9471    1.6811   27.3792 C   0  0  0  0  0  0  0  0  0  0  0  0
  -27.0439    0.9739   27.6871 C   0  0  0  0  0  0  0  0  0  0  0  0
  -28.0241   -1.6475   30.1263 C   0  0  0  0  0  0  0  0  0  0  0  0
  -26.7278   -2.0846   30.5807 C   0  0  0  0  0  0  0  0  0  0  0  0
  -25.5915   -1.4064   30.1489 C   0  0  0  0  0  0  0  0  0  0  0  0
  -23.4486    2.1675   27.5241 C   0  0  0  0  0  0  0  0  0  0  0  0
  -23.5841    3.2600   27.0815 O   0  0  0  0  0  0  0  0  0  0  0  0
  -22.2517    1.6981   27.7826 O   0  0  0  0  0  0  0  0  0  0  0  0
  -29.1596   -2.4692   30.5342 C   0  0  0  0  0  0  0  0  0  0  0  0
  -29.1443   -3.6259   30.8931 N   0  0  0  0  0  0  0  0  0  0  0  0
  -30.4502   -1.7822   30.5523 C   0  0  0  0  0  0  0  0  0  0  0  0
  -30.5847   -0.5666   30.2849 O   0  0  0  0  0  0  0  0  0  0  0  0
  -31.4926   -2.5196   30.5664 F   0  0  0  0  0  0  0  0  0  0  0  0
  -28.6563    1.4726   26.8632 Br  0  0  0  0  0  0  0  0  0  0  0  0
  -31.6040    0.2074   30.9596 C   0  0  0  0  0  0  0  0  0  0  0  0
  -31.6741    0.4568   31.9630 C   0  0  0  0  0  0  0  0  0  0  0  0
  -30.4807    0.2860   32.9216 C   0  0  0  0  0  0  0  0  0  0  0  0
  -29.3865    0.5184   32.5342 F   0  0  0  0  0  0  0  0  0  0  0  0
  -30.5399    1.0901   34.0953 F   0  0  0  0  0  0  0  0  0  0  0  0
  -30.5471   -1.0358   33.4276 F   0  0  0  0  0  0  0  0  0  0  0  0
  -28.4654   -4.6293   30.2259 C   0  0  0  0  0  0  0  0  0  0  0  0
  5 11  1  0
 11 12  2  0
 11 13  1  0
  8 14  1  0
 14 15  2  3
 14 16  1  0
 16 17  1  0
 16 18  1  0
  7 19  1  0
 17 20  1  0
 20 21  2  3
 21 22  1  0
 22 23  1  0
 22 24  1  0
 22 25  1  0
 15 26  1  0
  3  4  1  0
  4  5  2  0
  5  6  1  0
  6  7  2  0
  7  2  1  0
  1  2  2  0
  2  3  1  0
  3 10  2  0
 10  9  1  0
  9  8  2  0
  8  1  1  0
M  END

$$$$
