No_1647-gen_results/8p0m/2024-11-26-14-13-15/
     RDKit          3D

 35 37  0  0  0  0  0  0  0  0999 V2000
  -28.0162   -0.8135   28.8779 C   0  0  0  0  0  0  0  0  0  0  0  0
  -28.4690   -0.7850   29.8287 C   0  0  0  0  0  0  0  0  0  0  0  0
  -26.5042   -0.7777   28.8766 C   0  0  0  0  0  0  0  0  0  0  0  0
  -25.9500    0.1157   29.4052 C   0  0  0  0  0  0  0  0  0  0  0  0
  -27.9964    0.1190   30.9527 C   0  0  0  0  0  0  0  0  0  0  0  0
  -26.6037    0.4647   30.8030 C   0  0  0  0  0  0  0  0  0  0  0  0
  -29.8281   -1.2296   30.0522 C   0  0  0  0  0  0  0  0  0  0  0  0
  -30.7587   -0.9918   29.3056 O   0  0  0  0  0  0  0  0  0  0  0  0
  -30.0716   -2.1418   31.1730 N   0  0  0  0  0  0  0  0  0  0  0  0
  -31.3493   -2.7989   31.3253 C   0  0  0  0  0  0  0  0  0  0  0  0
  -29.0419   -2.4727   32.1433 C   0  0  0  0  0  0  0  0  0  0  0  0
  -24.5311    0.4381   29.3739 C   0  0  0  0  0  0  0  0  0  0  0  0
  -23.5286   -0.3674   29.6896 C   0  0  0  0  0  0  0  0  0  0  0  0
  -23.4588   -1.4354   30.4291 C   0  0  0  0  0  0  0  0  0  0  0  0
  -22.1973   -0.1049   29.0120 C   0  0  0  0  0  0  0  0  0  0  0  0
  -21.3214   -0.9714   29.0998 F   0  0  0  0  0  0  0  0  0  0  0  0
  -21.9684    0.9790   28.1160 C   0  0  0  0  0  0  0  0  0  0  0  0
  -22.9738    1.8493   27.8039 C   0  0  0  0  0  0  0  0  0  0  0  0
  -24.2382    1.4140   28.1007 C   0  0  0  0  0  0  0  0  0  0  0  0
  -25.3677    2.3508   27.7413 C   0  0  0  0  0  0  0  0  0  0  0  0
  -25.7486    2.2393   26.5227 C   0  0  0  0  0  0  0  0  0  0  0  0
  -25.1288    3.7606   28.2508 C   0  0  0  0  0  0  0  0  0  0  0  0
  -26.3249    4.6029   28.4755 C   0  0  0  0  0  0  0  0  0  0  0  0
  -26.2920    5.2412   29.5038 O   0  0  0  0  0  0  0  0  0  0  0  0
  -27.2692    5.7858   30.1482 C   0  0  0  0  0  0  0  0  0  0  0  0
  -28.3328    5.2294   30.1288 C   0  0  0  0  0  0  0  0  0  0  0  0
  -28.7117    4.6323   28.8396 C   0  0  0  0  0  0  0  0  0  0  0  0
  -27.5147    3.7248   28.4025 C   0  0  0  0  0  0  0  0  0  0  0  0
  -28.8544    5.6053   27.8424 O   0  0  0  0  0  0  0  0  0  0  0  0
  -29.7787    6.1603   30.6825 Cl  0  0  0  0  0  0  0  0  0  0  0  0
  -26.9876    7.0489   30.9275 C   0  0  0  0  0  0  0  0  0  0  0  0
  -26.0305    7.4075   30.9164 F   0  0  0  0  0  0  0  0  0  0  0  0
  -27.2969    6.7343   32.2442 F   0  0  0  0  0  0  0  0  0  0  0  0
  -27.7835    7.9617   30.3973 F   0  0  0  0  0  0  0  0  0  0  0  0
  -27.4739    2.6811   29.3306 O   0  0  0  0  0  0  0  0  0  0  0  0
  2  7  1  0
  7  8  2  0
  7  9  1  0
  9 10  1  0
  9 11  1  0
  4 12  1  0
 13 14  1  0
 15 16  1  0
 19 20  1  0
 20 21  1  0
 20 22  1  0
 22 23  1  0
 23 24  1  0
 24 25  1  0
 25 26  2  0
 26 27  1  0
 23 28  1  0
 27 28  1  0
 27 29  1  0
 26 30  1  0
 25 31  1  0
 31 32  1  0
 31 33  1  0
 31 34  1  0
 28 35  1  0
 12 13  2  0
 13 15  1  0
 15 17  2  0
 17 18  1  0
 18 19  2  0
 19 12  1  0
  1  2  2  0
  2  5  1  0
  5  6  2  0
  6  4  1  0
  4  3  2  0
  3  1  1  0
M  END

$$$$
