No_1172-gen_results/8p0m/2024-11-26-14-13-15/
     RDKit          3D

 35 37  0  0  0  0  0  0  0  0999 V2000
  -28.0162   -0.8135   28.8779 C   0  0  0  0  0  0  0  0  0  0  0  0
  -28.4690   -0.7850   29.8287 C   0  0  0  0  0  0  0  0  0  0  0  0
  -27.1356    0.2359   28.5352 C   0  0  0  0  0  0  0  0  0  0  0  0
  -26.8745    1.2825   29.3982 C   0  0  0  0  0  0  0  0  0  0  0  0
  -27.5070    1.2380   30.6295 C   0  0  0  0  0  0  0  0  0  0  0  0
  -28.3293    0.1745   30.9350 C   0  0  0  0  0  0  0  0  0  0  0  0
  -26.4077    0.3070   27.2259 C   0  0  0  0  0  0  0  0  0  0  0  0
  -25.7128    1.4905   26.9212 C   0  0  0  0  0  0  0  0  0  0  0  0
  -25.4551    2.4911   27.8860 C   0  0  0  0  0  0  0  0  0  0  0  0
  -26.0927    2.4423   29.1084 C   0  0  0  0  0  0  0  0  0  0  0  0
  -24.6035    3.6472   27.4439 C   0  0  0  0  0  0  0  0  0  0  0  0
  -24.5146    4.6305   28.2356 N   0  0  0  0  0  0  0  0  0  0  0  0
  -23.9940    3.6023   26.3236 O   0  0  0  0  0  0  0  0  0  0  0  0
  -24.3672    6.0577   27.7631 C   0  0  0  0  0  0  0  0  0  0  0  0
  -25.0273    7.0829   28.5856 C   0  0  0  0  0  0  0  0  0  0  0  0
  -24.5190    8.3465   28.4623 C   0  0  0  0  0  0  0  0  0  0  0  0
  -24.8929    9.3987   29.3450 C   0  0  0  0  0  0  0  0  0  0  0  0
  -25.9036    9.1038   30.2700 C   0  0  0  0  0  0  0  0  0  0  0  0
  -26.4158    7.8475   30.3381 C   0  0  0  0  0  0  0  0  0  0  0  0
  -25.9749    6.8238   29.5273 C   0  0  0  0  0  0  0  0  0  0  0  0
  -27.4477    7.5162   31.3862 C   0  0  0  0  0  0  0  0  0  0  0  0
  -28.1751    6.6141   31.2973 O   0  0  0  0  0  0  0  0  0  0  0  0
  -27.5112    8.3051   32.4660 O   0  0  0  0  0  0  0  0  0  0  0  0
  -29.3710   -2.0426   30.3723 C   0  0  0  0  0  0  0  0  0  0  0  0
  -30.1022   -1.8994   31.1490 O   0  0  0  0  0  0  0  0  0  0  0  0
  -28.9577   -3.1676   29.9013 O   0  0  0  0  0  0  0  0  0  0  0  0
  -25.9490    3.3742   30.0254 O   0  0  0  0  0  0  0  0  0  0  0  0
  -24.1810    6.2520   26.5756 O   0  0  0  0  0  0  0  0  0  0  0  0
  -28.0780    7.9072   33.5614 C   0  0  0  0  0  0  0  0  0  0  0  0
  -29.3413    8.3177   33.7908 C   0  0  0  0  0  0  0  0  0  0  0  0
  -29.7019    9.2950   33.3268 O   0  0  0  0  0  0  0  0  0  0  0  0
  -30.1878    7.5060   34.4985 N   0  0  0  0  0  0  0  0  0  0  0  0
  -31.5977    7.8146   34.6975 C   0  0  0  0  0  0  0  0  0  0  0  0
  -32.3161    7.1383   35.1022 C   0  0  0  0  0  0  0  0  0  0  0  0
  -33.8060    7.4368   35.2576 C   0  0  0  0  0  0  0  0  0  0  0  0
  3  7  1  0
  8  9  1  0
  4 10  1  0
  9 10  1  0
  9 11  1  0
 11 12  1  0
 11 13  2  0
 12 14  1  0
 14 15  1  0
 19 21  1  0
 21 22  2  0
 21 23  1  0
  2 24  1  0
 24 25  2  0
 24 26  1  0
 10 27  2  0
 14 28  2  0
 23 29  1  0
 29 30  1  0
 30 31  2  0
 30 32  1  0
 32 33  1  0
 33 34  2  3
 34 35  1  0
  7  8  1  0
 15 16  2  0
 16 17  1  0
 17 18  2  0
 18 19  1  0
 19 20  2  0
 20 15  1  0
  1  2  2  0
  2  6  1  0
  6  5  2  0
  5  4  1  0
  4  3  2  0
  3  1  1  0
M  END

$$$$
