No_1767-gen_results/8p0m/2024-11-26-14-13-15/
     RDKit          3D

 23 23  0  0  0  0  0  0  0  0999 V2000
  -28.0162   -0.8135   28.8779 C   0  0  0  0  0  0  0  0  0  0  0  0
  -27.0636   -0.1189   28.6079 C   0  0  0  0  0  0  0  0  0  0  0  0
  -26.9287    1.1713   29.0083 C   0  0  0  0  0  0  0  0  0  0  0  0
  -25.7702    2.0341   28.6884 C   0  0  0  0  0  0  0  0  0  0  0  0
  -24.7141    1.4431   27.9188 C   0  0  0  0  0  0  0  0  0  0  0  0
  -24.8590    0.0783   27.5836 C   0  0  0  0  0  0  0  0  0  0  0  0
  -25.9647   -0.6606   27.9164 C   0  0  0  0  0  0  0  0  0  0  0  0
  -28.7025   -0.6427   30.0750 N   0  0  0  0  0  0  0  0  0  0  0  0
  -29.5716   -1.0828   30.6278 C   0  0  0  0  0  0  0  0  0  0  0  0
  -30.2490   -2.1905   30.0523 C   0  0  0  0  0  0  0  0  0  0  0  0
  -30.1129   -0.7040   31.7731 O   0  0  0  0  0  0  0  0  0  0  0  0
  -23.5281    2.1784   27.5646 C   0  0  0  0  0  0  0  0  0  0  0  0
  -22.3795    2.1950   27.7661 N   0  0  0  0  0  0  0  0  0  0  0  0
  -23.8642    3.0816   26.3361 C   0  0  0  0  0  0  0  0  0  0  0  0
  -31.2461   -2.5910   31.0856 F   0  0  0  0  0  0  0  0  0  0  0  0
  -30.9037   -1.8802   29.0454 F   0  0  0  0  0  0  0  0  0  0  0  0
  -29.5050   -3.2324   29.9132 F   0  0  0  0  0  0  0  0  0  0  0  0
  -21.9444    1.2824   28.7486 C   0  0  0  0  0  0  0  0  0  0  0  0
  -22.5525    1.1269   29.7291 F   0  0  0  0  0  0  0  0  0  0  0  0
  -21.5602   -0.0156   28.0613 N   0  0  0  0  0  0  0  0  0  0  0  0
  -25.6763    3.4115   29.0987 C   0  0  0  0  0  0  0  0  0  0  0  0
  -24.9792    3.7170   29.9807 O   0  0  0  0  0  0  0  0  0  0  0  0
  -26.5778    4.1822   28.6243 O   0  0  0  0  0  0  0  0  0  0  0  0
  1  2  1  0
  1  8  1  0
  8  9  1  0
  9 10  1  0
  9 11  2  0
  5 12  1  0
 12 13  2  3
 12 14  1  0
 10 15  1  0
 10 16  1  0
 10 17  1  0
 13 18  1  0
 18 19  1  0
 18 20  1  0
  4 21  1  0
 21 22  1  0
 21 23  2  0
  2  3  2  0
  3  4  1  0
  4  5  2  0
  5  6  1  0
  6  7  2  0
  7  2  1  0
M  END

$$$$
