No_1769-gen_results/8p0m/2024-11-26-14-13-15/
     RDKit          3D

 23 25  0  0  0  0  0  0  0  0999 V2000
  -28.0162   -0.8135   28.8779 C   0  0  0  0  0  0  0  0  0  0  0  0
  -28.4690   -0.7850   29.8287 C   0  0  0  0  0  0  0  0  0  0  0  0
  -28.1816    0.4277   28.1134 C   0  0  0  0  0  0  0  0  0  0  0  0
  -28.9841    1.4155   28.5154 C   0  0  0  0  0  0  0  0  0  0  0  0
  -28.3375   -2.0481   30.7873 C   0  0  0  0  0  0  0  0  0  0  0  0
  -29.5615    1.2930   29.7416 C   0  0  0  0  0  0  0  0  0  0  0  0
  -29.3196    0.1647   30.4451 C   0  0  0  0  0  0  0  0  0  0  0  0
  -28.8934   -3.2654   30.5086 C   0  0  0  0  0  0  0  0  0  0  0  0
  -29.9513   -3.5217   30.3081 N   0  0  0  0  0  0  0  0  0  0  0  0
  -27.9462   -4.2312   30.1359 O   0  0  0  0  0  0  0  0  0  0  0  0
  -31.0576   -2.5983   30.6993 C   0  0  0  0  0  0  0  0  0  0  0  0
  -32.3599   -3.0351   30.2337 C   0  0  0  0  0  0  0  0  0  0  0  0
  -30.6491   -4.7795   30.0943 C   0  0  0  0  0  0  0  0  0  0  0  0
  -31.7866   -5.0269   29.5026 C   0  0  0  0  0  0  0  0  0  0  0  0
  -32.7356   -4.1530   29.7523 C   0  0  0  0  0  0  0  0  0  0  0  0
  -27.5018    0.5060   26.7204 C   0  0  0  0  0  0  0  0  0  0  0  0
  -26.4452    1.1893   26.6265 C   0  0  0  0  0  0  0  0  0  0  0  0
  -25.8326    1.9160   27.4506 C   0  0  0  0  0  0  0  0  0  0  0  0
  -24.5346    2.5315   27.2058 C   0  0  0  0  0  0  0  0  0  0  0  0
  -23.8872    2.2009   26.0123 C   0  0  0  0  0  0  0  0  0  0  0  0
  -25.3919    0.6760   25.6532 C   0  0  0  0  0  0  0  0  0  0  0  0
  -24.2810    1.2164   25.2757 C   0  0  0  0  0  0  0  0  0  0  0  0
  -28.2541    0.0702   25.7898 O   0  0  0  0  0  0  0  0  0  0  0  0
  2  5  1  0
  5  8  1  0
  8  9  1  0
  8 10  2  0
  9 11  1  0
  9 13  1  0
 12 15  1  0
 14 15  1  0
  3 16  1  0
 16 17  1  0
 16 23  2  0
 11 12  1  0
 14 13  1  0
 17 18  2  0
 18 19  1  0
 19 20  2  0
 20 22  1  0
 22 21  2  0
 21 17  1  0
  1  2  2  0
  2  7  1  0
  7  6  2  0
  6  4  1  0
  4  3  2  0
  3  1  1  0
M  END

$$$$
