No_1553-gen_results/8p0m/2024-11-26-14-13-15/
     RDKit          3D

 13 13  0  0  0  0  0  0  0  0999 V2000
  -28.0162   -0.8135   28.8779 C   0  0  0  0  0  0  0  0  0  0  0  0
  -27.0636   -0.1190   28.6079 C   0  0  0  0  0  0  0  0  0  0  0  0
  -26.8756    1.1325   28.9134 C   0  0  0  0  0  0  0  0  0  0  0  0
  -27.9014    1.8066   29.6436 C   0  0  0  0  0  0  0  0  0  0  0  0
  -29.0458   -0.2316   29.7181 C   0  0  0  0  0  0  0  0  0  0  0  0
  -28.9402    1.0517   30.0597 C   0  0  0  0  0  0  0  0  0  0  0  0
  -25.8732   -0.7125   27.8045 C   0  0  0  0  0  0  0  0  0  0  0  0
  -25.5914   -1.8060   28.0687 F   0  0  0  0  0  0  0  0  0  0  0  0
  -26.1165   -0.6287   26.4124 F   0  0  0  0  0  0  0  0  0  0  0  0
  -24.6473    0.0701   27.8603 F   0  0  0  0  0  0  0  0  0  0  0  0
  -30.1651   -1.1315   30.1624 C   0  0  0  0  0  0  0  0  0  0  0  0
  -30.0689   -2.1345   30.7574 O   0  0  0  0  0  0  0  0  0  0  0  0
  -31.2972   -0.5197   30.1821 O   0  0  0  0  0  0  0  0  0  0  0  0
  2  7  1  0
  7  8  1  0
  7  9  1  0
  7 10  1  0
  5 11  1  0
 11 12  2  0
 11 13  1  0
  1  2  2  0
  2  3  1  0
  3  4  2  0
  4  6  1  0
  6  5  2  0
  5  1  1  0
M  END

$$$$
