No_1142-gen_results/8p0m/2024-11-26-14-13-15/
     RDKit          3D

 18 19  0  0  0  0  0  0  0  0999 V2000
  -28.0162   -0.8135   28.8779 C   0  0  0  0  0  0  0  0  0  0  0  0
  -27.0636   -0.1189   28.6079 C   0  0  0  0  0  0  0  0  0  0  0  0
  -27.0010    0.6913   27.4910 C   0  0  0  0  0  0  0  0  0  0  0  0
  -28.1373    0.7363   26.6350 C   0  0  0  0  0  0  0  0  0  0  0  0
  -29.2360    0.0765   27.0690 C   0  0  0  0  0  0  0  0  0  0  0  0
  -29.2177   -0.6429   28.1747 C   0  0  0  0  0  0  0  0  0  0  0  0
  -30.4152    0.1590   26.1819 C   0  0  0  0  0  0  0  0  0  0  0  0
  -31.0962    1.1819   26.0730 C   0  0  0  0  0  0  0  0  0  0  0  0
  -30.1131   -0.5287   24.8602 C   0  0  0  0  0  0  0  0  0  0  0  0
  -31.4508   -0.9727   26.7385 C   0  0  0  0  0  0  0  0  0  0  0  0
  -31.6863   -1.0462   27.8570 O   0  0  0  0  0  0  0  0  0  0  0  0
  -31.9480   -1.8315   25.8757 O   0  0  0  0  0  0  0  0  0  0  0  0
  -25.7247    1.4105   27.0597 C   0  0  0  0  0  0  0  0  0  0  0  0
  -24.6967    1.0873   27.7707 C   0  0  0  0  0  0  0  0  0  0  0  0
  -23.4282    1.8768   27.5709 C   0  0  0  0  0  0  0  0  0  0  0  0
  -23.3661    2.6819   26.4400 C   0  0  0  0  0  0  0  0  0  0  0  0
  -24.5015    2.9340   25.7436 C   0  0  0  0  0  0  0  0  0  0  0  0
  -25.5736    2.3652   26.1527 C   0  0  0  0  0  0  0  0  0  0  0  0
  5  7  1  0
  7  8  1  0
  7  9  1  0
  7 10  1  0
 10 11  1  0
 10 12  2  0
  3 13  1  0
  1  2  2  0
  2  3  1  0
  3  4  2  0
  4  5  1  0
  5  6  2  0
  6  1  1  0
 13 14  2  0
 14 15  1  0
 15 16  2  0
 16 17  1  0
 17 18  2  0
 18 13  1  0
M  END

$$$$
