No_1098-gen_results/8p0m/2024-11-26-14-13-15/
     RDKit          3D

 18 19  0  0  0  0  0  0  0  0999 V2000
  -28.0162   -0.8135   28.8779 C   0  0  0  0  0  0  0  0  0  0  0  0
  -28.4690   -0.7850   29.8287 C   0  0  0  0  0  0  0  0  0  0  0  0
  -26.5042   -0.7777   28.8766 C   0  0  0  0  0  0  0  0  0  0  0  0
  -25.8103   -0.8531   30.1028 C   0  0  0  0  0  0  0  0  0  0  0  0
  -27.9906   -0.8916   31.2257 C   0  0  0  0  0  0  0  0  0  0  0  0
  -26.6042   -0.8676   31.2652 C   0  0  0  0  0  0  0  0  0  0  0  0
  -29.9385   -0.8194   29.8358 O   0  0  0  0  0  0  0  0  0  0  0  0
  -30.6978   -1.6543   30.3501 C   0  0  0  0  0  0  0  0  0  0  0  0
  -24.3665   -0.8009   30.1517 C   0  0  0  0  0  0  0  0  0  0  0  0
  -23.7964   -1.3338   29.2355 F   0  0  0  0  0  0  0  0  0  0  0  0
  -23.9143   -1.4857   31.3305 F   0  0  0  0  0  0  0  0  0  0  0  0
  -23.9540    0.4756   30.3174 F   0  0  0  0  0  0  0  0  0  0  0  0
  -31.7560   -1.9507   29.5950 C   0  0  0  0  0  0  0  0  0  0  0  0
  -32.5378   -3.1260   29.8692 C   0  0  0  0  0  0  0  0  0  0  0  0
  -32.2360   -3.8531   31.0648 C   0  0  0  0  0  0  0  0  0  0  0  0
  -31.1447   -3.5065   31.8304 C   0  0  0  0  0  0  0  0  0  0  0  0
  -30.3097   -2.4976   31.4308 C   0  0  0  0  0  0  0  0  0  0  0  0
  -34.1197   -3.4815   28.9683 Br  0  0  0  0  0  0  0  0  0  0  0  0
  2  7  1  0
  7  8  1  0
  4  9  1  0
  9 10  1  0
  9 11  1  0
  9 12  1  0
 14 18  1  0
  8 13  2  0
 13 14  1  0
 14 15  2  0
 15 16  1  0
 16 17  2  0
 17  8  1  0
  1  2  2  0
  2  5  1  0
  5  6  2  0
  6  4  1  0
  4  3  2  0
  3  1  1  0
M  END

$$$$
