No_1696-gen_results/8p0m/2024-11-26-14-13-15/
     RDKit          3D

 13 14  0  0  0  0  0  0  0  0999 V2000
  -28.0162   -0.8135   28.8779 C   0  0  0  0  0  0  0  0  0  0  0  0
  -27.0636   -0.1189   28.6079 C   0  0  0  0  0  0  0  0  0  0  0  0
  -25.7647   -0.3897   29.0360 C   0  0  0  0  0  0  0  0  0  0  0  0
  -24.5516    0.4058   28.7646 C   0  0  0  0  0  0  0  0  0  0  0  0
  -24.6957    1.4480   27.7988 C   0  0  0  0  0  0  0  0  0  0  0  0
  -25.9755    1.7250   27.3077 C   0  0  0  0  0  0  0  0  0  0  0  0
  -27.0718    1.0134   27.6535 C   0  0  0  0  0  0  0  0  0  0  0  0
  -27.9653   -1.6216   30.1356 C   0  0  0  0  0  0  0  0  0  0  0  0
  -26.6745   -2.1506   30.4965 C   0  0  0  0  0  0  0  0  0  0  0  0
  -25.5535   -1.4129   30.0823 C   0  0  0  0  0  0  0  0  0  0  0  0
  -23.4812    2.2323   27.4585 C   0  0  0  0  0  0  0  0  0  0  0  0
  -23.4751    3.4566   27.7628 C   0  0  0  0  0  0  0  0  0  0  0  0
  -22.3143    1.5916   26.9606 C   0  0  0  0  0  0  0  0  0  0  0  0
  5 11  1  0
 11 12  2  0
 11 13  1  0
  3  4  1  0
  4  5  2  0
  5  6  1  0
  6  7  2  0
  7  2  1  0
  1  2  2  0
  2  3  1  0
  3 10  2  0
 10  9  1  0
  9  8  2  0
  8  1  1  0
M  END

$$$$
