No_1136-gen_results/8p0m/2024-11-26-14-13-15/
     RDKit          3D

 24 26  0  0  0  0  0  0  0  0999 V2000
  -28.0162   -0.8135   28.8779 C   0  0  0  0  0  0  0  0  0  0  0  0
  -28.4690   -0.7850   29.8287 C   0  0  0  0  0  0  0  0  0  0  0  0
  -26.5042   -0.7777   28.8766 C   0  0  0  0  0  0  0  0  0  0  0  0
  -25.8103   -0.8531   30.1028 C   0  0  0  0  0  0  0  0  0  0  0  0
  -27.9906   -0.8916   31.2257 C   0  0  0  0  0  0  0  0  0  0  0  0
  -26.6042   -0.8676   31.2652 C   0  0  0  0  0  0  0  0  0  0  0  0
  -29.9385   -0.8194   29.8358 O   0  0  0  0  0  0  0  0  0  0  0  0
  -30.6393    0.2340   30.2522 C   0  0  0  0  0  0  0  0  0  0  0  0
  -31.7597    0.2238   30.0390 C   0  0  0  0  0  0  0  0  0  0  0  0
  -32.6044    1.4051   30.4106 C   0  0  0  0  0  0  0  0  0  0  0  0
  -31.9249    2.4725   31.0455 C   0  0  0  0  0  0  0  0  0  0  0  0
  -30.5797    2.3814   31.2575 C   0  0  0  0  0  0  0  0  0  0  0  0
  -29.8580    1.3049   30.8845 C   0  0  0  0  0  0  0  0  0  0  0  0
  -29.8588    3.4940   31.9408 C   0  0  0  0  0  0  0  0  0  0  0  0
  -30.2805    4.2761   32.6448 F   0  0  0  0  0  0  0  0  0  0  0  0
  -28.5704    3.6259   31.6784 F   0  0  0  0  0  0  0  0  0  0  0  0
  -25.7675   -0.7618   27.7485 O   0  0  0  0  0  0  0  0  0  0  0  0
  -25.6788    0.4436   27.0998 C   0  0  0  0  0  0  0  0  0  0  0  0
  -26.3326    0.5217   25.9060 C   0  0  0  0  0  0  0  0  0  0  0  0
  -27.0445   -0.5658   25.4233 C   0  0  0  0  0  0  0  0  0  0  0  0
  -27.7575   -0.3509   24.1535 C   0  0  0  0  0  0  0  0  0  0  0  0
  -27.9883    0.9557   23.7935 C   0  0  0  0  0  0  0  0  0  0  0  0
  -27.4053    2.0460   24.3763 C   0  0  0  0  0  0  0  0  0  0  0  0
  -26.5712    1.8502   25.5012 C   0  0  0  0  0  0  0  0  0  0  0  0
  2  7  1  0
  7  8  1  0
 12 14  1  0
 14 15  1  0
 14 16  1  0
  3 17  1  0
 17 18  1  0
 18 19  1  0
  8  9  2  0
  9 10  1  0
 10 11  2  0
 11 12  1  0
 12 13  2  0
 13  8  1  0
  1  2  2  0
  2  5  1  0
  5  6  2  0
  6  4  1  0
  4  3  2  0
  3  1  1  0
 19 20  2  0
 20 21  1  0
 21 22  2  0
 22 23  1  0
 23 24  2  0
 24 19  1  0
M  END

$$$$
