No_1264-gen_results/8p0m/2024-11-26-14-13-15/
     RDKit          3D

 21 23  0  0  0  0  0  0  0  0999 V2000
  -28.0162   -0.8135   28.8779 C   0  0  0  0  0  0  0  0  0  0  0  0
  -28.4690   -0.7850   29.8287 C   0  0  0  0  0  0  0  0  0  0  0  0
  -26.5455   -0.8762   28.8500 C   0  0  0  0  0  0  0  0  0  0  0  0
  -25.8041   -1.0324   30.0571 C   0  0  0  0  0  0  0  0  0  0  0  0
  -26.5373   -1.0386   31.2171 C   0  0  0  0  0  0  0  0  0  0  0  0
  -27.8843   -0.9532   31.1862 C   0  0  0  0  0  0  0  0  0  0  0  0
  -24.3655   -1.1134   30.0483 C   0  0  0  0  0  0  0  0  0  0  0  0
  -23.6254   -0.9434   29.0230 C   0  0  0  0  0  0  0  0  0  0  0  0
  -22.1628   -0.8291   29.0965 C   0  0  0  0  0  0  0  0  0  0  0  0
  -23.6191   -0.2385   31.0306 C   0  0  0  0  0  0  0  0  0  0  0  0
  -24.1490   -0.0763   32.3085 N   0  0  0  0  0  0  0  0  0  0  0  0
  -22.1886   -0.2955   30.9870 C   0  0  0  0  0  0  0  0  0  0  0  0
  -29.9542   -0.6988   29.8792 N   0  0  0  0  0  0  0  0  0  0  0  0
  -30.5923   -0.0457   28.9797 C   0  0  0  0  0  0  0  0  0  0  0  0
  -32.0197   -0.2553   28.9062 C   0  0  0  0  0  0  0  0  0  0  0  0
  -30.7003   -1.8437   30.3845 C   0  0  0  0  0  0  0  0  0  0  0  0
  -32.0126   -1.9582   30.3441 C   0  0  0  0  0  0  0  0  0  0  0  0
  -32.7071   -1.1670   29.5376 C   0  0  0  0  0  0  0  0  0  0  0  0
  -32.7698    0.7548   27.9792 C   0  0  0  0  0  0  0  0  0  0  0  0
  -33.1260    1.7318   28.4319 O   0  0  0  0  0  0  0  0  0  0  0  0
  -32.8555    0.3423   26.7638 O   0  0  0  0  0  0  0  0  0  0  0  0
  4  7  1  0
  7  8  2  0
  8  9  1  0
  7 10  1  0
 10 11  1  0
  9 12  1  0
 10 12  1  0
  2 13  1  0
 13 14  1  0
 13 16  1  0
 15 18  1  0
 17 18  1  0
 15 19  1  0
 19 20  1  0
 19 21  2  0
 14 15  1  0
 17 16  1  0
  1  2  2  0
  2  6  1  0
  6  5  2  0
  5  4  1  0
  4  3  2  0
  3  1  1  0
M  END

$$$$
