No_1084-gen_results/8p0m/2024-11-26-14-13-15/
     RDKit          3D

 23 25  0  0  0  0  0  0  0  0999 V2000
  -28.0727   -1.2542   28.5316 F   0  0  0  0  0  0  0  0  0  0  0  0
  -27.3591   -0.3792   28.7224 C   0  0  0  0  0  0  0  0  0  0  0  0
  -26.3323   -0.6441   29.4520 C   0  0  0  0  0  0  0  0  0  0  0  0
  -25.2562    0.3203   29.7818 C   0  0  0  0  0  0  0  0  0  0  0  0
  -25.4242    1.6275   29.2026 C   0  0  0  0  0  0  0  0  0  0  0  0
  -26.5263    1.8254   28.4032 C   0  0  0  0  0  0  0  0  0  0  0  0
  -27.4513    0.8601   28.1355 C   0  0  0  0  0  0  0  0  0  0  0  0
  -28.5399    1.2022   27.2448 C   0  0  0  0  0  0  0  0  0  0  0  0
  -29.4852    0.8770   27.0868 C   0  0  0  0  0  0  0  0  0  0  0  0
  -30.4923    1.2139   26.0511 C   0  0  0  0  0  0  0  0  0  0  0  0
  -31.7734    0.7077   25.9002 C   0  0  0  0  0  0  0  0  0  0  0  0
  -32.0877   -0.3924   26.7310 C   0  0  0  0  0  0  0  0  0  0  0  0
  -31.2201   -0.8603   27.7151 C   0  0  0  0  0  0  0  0  0  0  0  0
  -30.0810   -0.3123   27.9220 C   0  0  0  0  0  0  0  0  0  0  0  0
  -27.9856    2.2833   26.2348 C   0  0  0  0  0  0  0  0  0  0  0  0
  -24.2483    2.7990   29.5811 Cl  0  0  0  0  0  0  0  0  0  0  0  0
  -31.7040   -1.8733   28.5000 O   0  0  0  0  0  0  0  0  0  0  0  0
  -31.0867   -2.1723   29.6547 C   0  0  0  0  0  0  0  0  0  0  0  0
  -31.9572   -2.5787   30.7396 C   0  0  0  0  0  0  0  0  0  0  0  0
  -31.3327   -2.8214   31.9194 C   0  0  0  0  0  0  0  0  0  0  0  0
  -29.9037   -2.8191   32.0858 C   0  0  0  0  0  0  0  0  0  0  0  0
  -29.1463   -2.4575   30.9416 C   0  0  0  0  0  0  0  0  0  0  0  0
  -29.7128   -2.1437   29.8374 C   0  0  0  0  0  0  0  0  0  0  0  0
  1  2  1  0
  7  8  1  0
  8 15  1  0
  5 16  1  0
 13 17  1  0
 17 18  1  0
  8  9  1  0
 18 19  2  0
 19 20  1  0
 20 21  2  0
 21 22  1  0
 22 23  2  0
 23 18  1  0
  2  3  2  0
  3  4  1  0
  4  5  2  0
  5  6  1  0
  6  7  2  0
  7  2  1  0
  9 10  2  0
 10 11  1  0
 11 12  2  0
 12 13  1  0
 13 14  2  0
 14  9  1  0
M  END

$$$$
