No_1802-gen_results/8p0m/2024-11-26-14-13-15/
     RDKit          3D

 16 17  0  0  0  0  0  0  0  0999 V2000
  -28.0162   -0.8135   28.8779 C   0  0  0  0  0  0  0  0  0  0  0  0
  -27.0636   -0.1189   28.6079 C   0  0  0  0  0  0  0  0  0  0  0  0
  -26.8756    1.1325   28.9134 C   0  0  0  0  0  0  0  0  0  0  0  0
  -25.6883    1.9515   28.5672 C   0  0  0  0  0  0  0  0  0  0  0  0
  -24.6394    1.2834   27.8753 C   0  0  0  0  0  0  0  0  0  0  0  0
  -24.8068   -0.0513   27.6040 C   0  0  0  0  0  0  0  0  0  0  0  0
  -25.9019   -0.7670   27.9511 C   0  0  0  0  0  0  0  0  0  0  0  0
  -29.2158   -0.1185   29.1813 C   0  0  0  0  0  0  0  0  0  0  0  0
  -29.2012    1.1767   29.4009 C   0  0  0  0  0  0  0  0  0  0  0  0
  -27.9952    1.9274   29.3121 C   0  0  0  0  0  0  0  0  0  0  0  0
  -23.3662    1.8999   27.5474 C   0  0  0  0  0  0  0  0  0  0  0  0
  -22.1631    2.1311   27.9624 N   0  0  0  0  0  0  0  0  0  0  0  0
  -23.4754    2.5980   25.8557 Cl  0  0  0  0  0  0  0  0  0  0  0  0
  -25.4581    3.3896   28.9005 C   0  0  0  0  0  0  0  0  0  0  0  0
  -25.4729    3.9051   29.8684 O   0  0  0  0  0  0  0  0  0  0  0  0
  -25.5000    4.2896   27.7770 O   0  0  0  0  0  0  0  0  0  0  0  0
  3  4  1  0
  4  5  1  0
  5  6  1  0
  2  7  1  0
  6  7  1  0
  5 11  1  0
 11 12  1  0
 11 13  1  0
  4 14  1  0
 14 15  2  0
 14 16  1  0
  1  2  2  0
  2  3  1  0
  3 10  2  0
 10  9  1  0
  9  8  2  0
  8  1  1  0
M  END

$$$$
