No_1685-gen_results/8p0m/2024-11-26-14-13-15/
     RDKit          3D

 16 17  0  0  0  0  0  0  0  0999 V2000
  -28.0162   -0.8135   28.8779 C   0  0  0  0  0  0  0  0  0  0  0  0
  -28.4690   -0.7850   29.8287 C   0  0  0  0  0  0  0  0  0  0  0  0
  -28.1960    0.3478   28.0550 C   0  0  0  0  0  0  0  0  0  0  0  0
  -29.0191    1.3501   28.3782 C   0  0  0  0  0  0  0  0  0  0  0  0
  -29.6249    1.2683   29.6012 C   0  0  0  0  0  0  0  0  0  0  0  0
  -29.3821    0.1816   30.4004 C   0  0  0  0  0  0  0  0  0  0  0  0
  -27.4497    0.3750   26.7070 C   0  0  0  0  0  0  0  0  0  0  0  0
  -26.4790    1.3700   26.6045 C   0  0  0  0  0  0  0  0  0  0  0  0
  -25.1571    0.9785   26.3311 C   0  0  0  0  0  0  0  0  0  0  0  0
  -24.0775    1.8930   26.3251 C   0  0  0  0  0  0  0  0  0  0  0  0
  -24.4136    3.2186   26.6450 C   0  0  0  0  0  0  0  0  0  0  0  0
  -25.6894    3.6644   26.9254 C   0  0  0  0  0  0  0  0  0  0  0  0
  -26.7188    2.6733   26.9548 C   0  0  0  0  0  0  0  0  0  0  0  0
  -30.5319    2.3636   30.0232 C   0  0  0  0  0  0  0  0  0  0  0  0
  -30.5445    2.8547   31.0257 O   0  0  0  0  0  0  0  0  0  0  0  0
  -31.3368    2.7304   28.9961 O   0  0  0  0  0  0  0  0  0  0  0  0
  3  7  1  0
  7  8  1  0
  5 14  1  0
 14 15  2  0
 14 16  1  0
  1  2  2  0
  2  6  1  0
  6  5  2  0
  5  4  1  0
  4  3  2  0
  3  1  1  0
  8  9  2  0
  9 10  1  0
 10 11  2  0
 11 12  1  0
 12 13  2  0
 13  8  1  0
M  END

$$$$
