No_1010-gen_results/8p0m/2024-11-26-14-13-15/
     RDKit          3D

 35 38  0  0  0  0  0  0  0  0999 V2000
  -28.0162   -0.8135   28.8779 C   0  0  0  0  0  0  0  0  0  0  0  0
  -27.0636   -0.1189   28.6079 C   0  0  0  0  0  0  0  0  0  0  0  0
  -26.9716    0.7139   27.5060 C   0  0  0  0  0  0  0  0  0  0  0  0
  -25.8205    1.4909   27.1160 C   0  0  0  0  0  0  0  0  0  0  0  0
  -24.6562    1.4242   27.9180 C   0  0  0  0  0  0  0  0  0  0  0  0
  -23.4598    2.1165   27.6160 C   0  0  0  0  0  0  0  0  0  0  0  0
  -22.3627    1.9155   28.4482 C   0  0  0  0  0  0  0  0  0  0  0  0
  -22.4137    0.9215   29.4584 C   0  0  0  0  0  0  0  0  0  0  0  0
  -23.5531    0.2322   29.7679 C   0  0  0  0  0  0  0  0  0  0  0  0
  -24.6758    0.4356   28.9850 C   0  0  0  0  0  0  0  0  0  0  0  0
  -25.7809   -0.2644   29.3119 C   0  0  0  0  0  0  0  0  0  0  0  0
  -28.0384   -1.6122   30.1539 C   0  0  0  0  0  0  0  0  0  0  0  0
  -29.1459   -2.2963   30.5623 N   0  0  0  0  0  0  0  0  0  0  0  0
  -27.0919   -1.9724   30.8900 F   0  0  0  0  0  0  0  0  0  0  0  0
  -30.3858   -1.8623   30.3771 C   0  0  0  0  0  0  0  0  0  0  0  0
  -31.4463   -2.8214   30.5867 C   0  0  0  0  0  0  0  0  0  0  0  0
  -29.0421   -3.6409   31.0784 C   0  0  0  0  0  0  0  0  0  0  0  0
  -27.8352   -4.1755   31.0604 O   0  0  0  0  0  0  0  0  0  0  0  0
  -30.1716   -4.4047   31.2746 C   0  0  0  0  0  0  0  0  0  0  0  0
  -31.3802   -3.9713   31.0775 C   0  0  0  0  0  0  0  0  0  0  0  0
  -28.2047    0.9272   26.6942 C   0  0  0  0  0  0  0  0  0  0  0  0
  -29.0887    1.8582   27.1330 C   0  0  0  0  0  0  0  0  0  0  0  0
  -28.0584    0.8773   25.2689 C   0  0  0  0  0  0  0  0  0  0  0  0
  -30.4112    1.8280   26.6318 C   0  0  0  0  0  0  0  0  0  0  0  0
  -30.4341    1.9286   25.1819 C   0  0  0  0  0  0  0  0  0  0  0  0
  -29.4536    0.9592   24.5381 C   0  0  0  0  0  0  0  0  0  0  0  0
  -31.2267    0.5464   26.9740 C   0  0  0  0  0  0  0  0  0  0  0  0
  -31.6220    0.7413   28.2395 F   0  0  0  0  0  0  0  0  0  0  0  0
  -32.3163    0.4820   26.2699 F   0  0  0  0  0  0  0  0  0  0  0  0
  -30.5425   -0.5447   26.8525 F   0  0  0  0  0  0  0  0  0  0  0  0
  -31.2716    3.0714   27.1862 C   0  0  0  0  0  0  0  0  0  0  0  0
  -25.8753    2.3364   26.1379 O   0  0  0  0  0  0  0  0  0  0  0  0
  -31.6679    3.2300   28.1434 C   0  0  0  0  0  0  0  0  0  0  0  0
  -32.2199    4.4318   28.7707 C   0  0  0  0  0  0  0  0  0  0  0  0
  -32.3733    5.4433   27.8102 C   0  0  0  0  0  0  0  0  0  0  0  0
  1  2  2  3
  2  3  1  0
  3  4  1  0
  4  5  1  0
  2 11  1  0
 10 11  1  0
  1 12  1  0
 12 13  1  0
 12 14  1  0
 13 15  1  0
 13 17  1  0
 17 18  2  0
 17 19  1  0
 16 20  1  0
 19 20  1  0
  3 21  1  0
 21 22  1  0
 21 23  1  0
 22 24  1  0
 24 25  1  0
 23 26  1  0
 25 26  1  0
 24 27  1  0
 27 28  1  0
 27 29  1  0
 27 30  1  0
 24 31  1  0
  4 32  2  0
 31 33  2  3
 33 34  1  0
 34 35  2  0
 15 16  1  0
  5  6  2  0
  6  7  1  0
  7  8  2  0
  8  9  1  0
  9 10  2  0
 10  5  1  0
M  END

$$$$
