No_1996-gen_results/8p0m/2024-11-26-14-13-15/
     RDKit          3D

 22 23  0  0  0  0  0  0  0  0999 V2000
  -28.0162   -0.8135   28.8779 C   0  0  0  0  0  0  0  0  0  0  0  0
  -28.4690   -0.7850   29.8287 C   0  0  0  0  0  0  0  0  0  0  0  0
  -26.5455   -0.8762   28.8500 C   0  0  0  0  0  0  0  0  0  0  0  0
  -25.8041   -1.0324   30.0571 C   0  0  0  0  0  0  0  0  0  0  0  0
  -30.0055   -0.7457   29.8978 C   0  0  0  0  0  0  0  0  0  0  0  0
  -26.5747   -1.0565   31.2005 C   0  0  0  0  0  0  0  0  0  0  0  0
  -27.9251   -0.9738   31.1683 C   0  0  0  0  0  0  0  0  0  0  0  0
  -30.5711    0.0580   30.7471 O   0  0  0  0  0  0  0  0  0  0  0  0
  -30.6431   -1.3896   29.0486 O   0  0  0  0  0  0  0  0  0  0  0  0
  -24.3827   -0.9794   29.8751 C   0  0  0  0  0  0  0  0  0  0  0  0
  -23.7369    0.3060   30.1791 C   0  0  0  0  0  0  0  0  0  0  0  0
  -22.4873    0.5438   29.5786 C   0  0  0  0  0  0  0  0  0  0  0  0
  -21.7726   -0.5214   29.0284 C   0  0  0  0  0  0  0  0  0  0  0  0
  -22.3768   -1.7277   28.8423 C   0  0  0  0  0  0  0  0  0  0  0  0
  -23.6900   -1.9503   29.2099 C   0  0  0  0  0  0  0  0  0  0  0  0
  -24.2625   -3.1050   28.9525 N   0  0  0  0  0  0  0  0  0  0  0  0
  -23.8940   -4.2687   29.4750 C   0  0  0  0  0  0  0  0  0  0  0  0
  -25.3041   -3.2190   27.9665 C   0  0  0  0  0  0  0  0  0  0  0  0
  -20.4790   -0.3719   28.7357 O   0  0  0  0  0  0  0  0  0  0  0  0
  -24.4474    1.5201   30.7688 C   0  0  0  0  0  0  0  0  0  0  0  0
  -24.4995    2.5712   30.1979 O   0  0  0  0  0  0  0  0  0  0  0  0
  -24.8285    1.3265   32.0525 O   0  0  0  0  0  0  0  0  0  0  0  0
  2  5  1  0
  5  8  1  0
  5  9  2  0
  4 10  1  0
 15 16  1  0
 16 17  1  0
 16 18  1  0
 13 19  1  0
 11 20  1  0
 20 21  2  0
 20 22  1  0
 10 11  2  0
 11 12  1  0
 12 13  2  0
 13 14  1  0
 14 15  2  0
 15 10  1  0
  1  2  2  0
  2  7  1  0
  7  6  2  0
  6  4  1  0
  4  3  2  0
  3  1  1  0
M  END

$$$$
