No_136-gen_results/8p0m/2024-11-26-14-13-15/
     RDKit          3D

 23 26  0  0  0  0  0  0  0  0999 V2000
  -28.0162   -0.8135   28.8779 C   0  0  0  0  0  0  0  0  0  0  0  0
  -28.4690   -0.7850   29.8287 C   0  0  0  0  0  0  0  0  0  0  0  0
  -27.0871    0.2903   28.6377 C   0  0  0  0  0  0  0  0  0  0  0  0
  -26.8317    1.2487   29.5869 C   0  0  0  0  0  0  0  0  0  0  0  0
  -28.3914    0.0801   31.0065 C   0  0  0  0  0  0  0  0  0  0  0  0
  -27.4940    1.1521   30.7841 C   0  0  0  0  0  0  0  0  0  0  0  0
  -26.3172    0.3994   27.3653 C   0  0  0  0  0  0  0  0  0  0  0  0
  -25.4320    1.4866   27.2802 C   0  0  0  0  0  0  0  0  0  0  0  0
  -24.5070    1.5431   26.2743 C   0  0  0  0  0  0  0  0  0  0  0  0
  -23.4985    2.6837   26.2861 C   0  0  0  0  0  0  0  0  0  0  0  0
  -23.6668    3.5873   27.3249 C   0  0  0  0  0  0  0  0  0  0  0  0
  -25.3030    2.5340   28.2891 C   0  0  0  0  0  0  0  0  0  0  0  0
  -24.4393    3.5828   28.1637 C   0  0  0  0  0  0  0  0  0  0  0  0
  -26.1411    2.3129   29.4520 N   0  0  0  0  0  0  0  0  0  0  0  0
  -26.0111    3.3595   30.5024 C   0  0  0  0  0  0  0  0  0  0  0  0
  -26.1948    4.3886   30.2851 C   0  0  0  0  0  0  0  0  0  0  0  0
  -26.0859    5.1469   31.5372 C   0  0  0  0  0  0  0  0  0  0  0  0
  -25.6784    2.9312   31.8042 C   0  0  0  0  0  0  0  0  0  0  0  0
  -26.3248    6.6024   31.7397 C   0  0  0  0  0  0  0  0  0  0  0  0
  -25.6733    4.2325   32.5891 C   0  0  0  0  0  0  0  0  0  0  0  0
  -26.6850    7.3099   30.8869 Br  0  0  0  0  0  0  0  0  0  0  0  0
  -26.0611    6.8313   33.0940 O   0  0  0  0  0  0  0  0  0  0  0  0
  -26.1785   -0.5627   26.6502 O   0  0  0  0  0  0  0  0  0  0  0  0
  3  7  1  0
  7  8  1  0
  4 14  1  0
 12 14  1  0
 14 15  1  0
 15 16  1  0
 16 17  1  0
 15 18  1  0
 17 19  1  0
 17 20  1  0
 18 20  1  0
 19 21  1  0
 19 22  2  0
  7 23  2  0
  1  2  2  0
  2  5  1  0
  5  6  2  0
  6  4  1  0
  4  3  2  0
  3  1  1  0
  8  9  2  0
  9 10  1  0
 10 11  2  0
 11 13  1  0
 13 12  2  0
 12  8  1  0
M  END

$$$$
