No_1946-gen_results/8p0m/2024-11-26-14-13-15/
     RDKit          3D

 14 14  0  0  0  0  0  0  0  0999 V2000
  -28.0162   -0.8135   28.8779 C   0  0  0  0  0  0  0  0  0  0  0  0
  -27.0636   -0.1189   28.6079 C   0  0  0  0  0  0  0  0  0  0  0  0
  -25.7647   -0.3897   29.0360 C   0  0  0  0  0  0  0  0  0  0  0  0
  -24.5516    0.4058   28.7646 C   0  0  0  0  0  0  0  0  0  0  0  0
  -24.6957    1.4480   27.7988 C   0  0  0  0  0  0  0  0  0  0  0  0
  -25.9755    1.7250   27.3077 C   0  0  0  0  0  0  0  0  0  0  0  0
  -27.0718    1.0134   27.6535 C   0  0  0  0  0  0  0  0  0  0  0  0
  -28.4888   -0.6099   30.0449 O   0  0  0  0  0  0  0  0  0  0  0  0
  -23.4909    2.1742   27.4783 C   0  0  0  0  0  0  0  0  0  0  0  0
  -22.3120    1.5920   27.2338 C   0  0  0  0  0  0  0  0  0  0  0  0
  -21.9049    0.5669   28.1658 C   0  0  0  0  0  0  0  0  0  0  0  0
  -22.6914   -0.0003   29.0928 C   0  0  0  0  0  0  0  0  0  0  0  0
  -22.6411   -1.1516   29.8686 C   0  0  0  0  0  0  0  0  0  0  0  0
  -22.6626    0.9396   30.4788 C   0  0  0  0  0  0  0  0  0  0  0  0
  1  8  1  0
  5  9  1  0
  9 10  2  3
 10 11  1  0
 11 12  1  0
 12 13  1  0
 12 14  1  0
  1  2  1  0
  2  3  2  0
  3  4  1  0
  4  5  2  0
  5  6  1  0
  6  7  2  0
  7  2  1  0
M  END

$$$$
