No_1751-gen_results/8p0m/2024-11-26-14-13-15/
     RDKit          3D

  9  9  0  0  0  0  0  0  0  0999 V2000
  -28.1229   -1.3353   28.4874 O   0  0  0  0  0  0  0  0  0  0  0  0
  -28.5208   -0.4363   29.0779 C   0  0  0  0  0  0  0  0  0  0  0  0
  -29.6977    0.0507   28.9764 C   0  0  0  0  0  0  0  0  0  0  0  0
  -27.7059   -0.0219   30.1625 N   0  0  0  0  0  0  0  0  0  0  0  0
  -28.0553    1.0912   30.9931 C   0  0  0  0  0  0  0  0  0  0  0  0
  -30.1419    1.1807   29.8085 C   0  0  0  0  0  0  0  0  0  0  0  0
  -29.2705    1.6345   30.8189 C   0  0  0  0  0  0  0  0  0  0  0  0
  -26.3775   -0.5952   30.3641 C   0  0  0  0  0  0  0  0  0  0  0  0
  -25.8876   -1.4656   29.6164 C   0  0  0  0  0  0  0  0  0  0  0  0
  1  2  2  0
  2  3  1  0
  2  4  1  0
  4  5  1  0
  6  7  1  0
  4  8  1  0
  8  9  2  0
  3  6  1  0
  7  5  1  0
M  END

$$$$
