No_1267-gen_results/8p0m/2024-11-26-14-13-15/
     RDKit          3D

 16 16  0  0  0  0  0  0  0  0999 V2000
  -28.0162   -0.8135   28.8779 C   0  0  0  0  0  0  0  0  0  0  0  0
  -27.0636   -0.1189   28.6079 C   0  0  0  0  0  0  0  0  0  0  0  0
  -25.7647   -0.3897   29.0360 C   0  0  0  0  0  0  0  0  0  0  0  0
  -25.5296   -1.5302   29.9014 C   0  0  0  0  0  0  0  0  0  0  0  0
  -26.6888   -2.2893   30.1810 C   0  0  0  0  0  0  0  0  0  0  0  0
  -27.8727   -1.9508   29.7373 C   0  0  0  0  0  0  0  0  0  0  0  0
  -24.5491    0.4100   28.7341 C   0  0  0  0  0  0  0  0  0  0  0  0
  -24.5413    0.8962   27.5953 F   0  0  0  0  0  0  0  0  0  0  0  0
  -23.3814   -0.3845   28.8484 F   0  0  0  0  0  0  0  0  0  0  0  0
  -24.3736    1.3916   29.6595 F   0  0  0  0  0  0  0  0  0  0  0  0
  -28.9576   -2.6961   30.1093 O   0  0  0  0  0  0  0  0  0  0  0  0
  -30.0822   -2.1547   30.5746 C   0  0  0  0  0  0  0  0  0  0  0  0
  -31.1667   -2.7940   30.1695 C   0  0  0  0  0  0  0  0  0  0  0  0
  -32.2621   -2.0870   29.8066 C   0  0  0  0  0  0  0  0  0  0  0  0
  -32.4263   -0.7469   30.3541 C   0  0  0  0  0  0  0  0  0  0  0  0
  -33.5564    0.0146   30.0719 C   0  0  0  0  0  0  0  0  0  0  0  0
  3  7  1  0
  7  8  1  0
  7  9  1  0
  7 10  1  0
  6 11  1  0
 11 12  1  0
 12 13  1  0
 13 14  2  3
 14 15  1  0
 15 16  1  0
  1  2  2  0
  2  3  1  0
  3  4  2  0
  4  5  1  0
  5  6  2  0
  6  1  1  0
M  END

$$$$
