No_1272-gen_results/8p0m/2024-11-26-14-13-15/
     RDKit          3D

 32 34  0  0  0  0  0  0  0  0999 V2000
  -28.0162   -0.8135   28.8779 C   0  0  0  0  0  0  0  0  0  0  0  0
  -28.4690   -0.7850   29.8287 C   0  0  0  0  0  0  0  0  0  0  0  0
  -27.1356    0.2359   28.5352 C   0  0  0  0  0  0  0  0  0  0  0  0
  -26.8745    1.2825   29.3982 C   0  0  0  0  0  0  0  0  0  0  0  0
  -28.3613    0.1987   30.9244 C   0  0  0  0  0  0  0  0  0  0  0  0
  -25.9723    2.3852   29.1040 C   0  0  0  0  0  0  0  0  0  0  0  0
  -27.5118    1.2316   30.6323 C   0  0  0  0  0  0  0  0  0  0  0  0
  -25.4925    3.0751   29.8094 C   0  0  0  0  0  0  0  0  0  0  0  0
  -25.9493    3.0646   31.2874 C   0  0  0  0  0  0  0  0  0  0  0  0
  -26.9337    2.1155   31.6659 C   0  0  0  0  0  0  0  0  0  0  0  0
  -25.4032    2.4093   27.6658 C   0  0  0  0  0  0  0  0  0  0  0  0
  -24.4840    2.9950   27.3744 N   0  0  0  0  0  0  0  0  0  0  0  0
  -26.3011    2.2166   26.7411 O   0  0  0  0  0  0  0  0  0  0  0  0
  -23.9325    3.1662   25.9610 C   0  0  0  0  0  0  0  0  0  0  0  0
  -29.4113   -1.8235   30.1752 O   0  0  0  0  0  0  0  0  0  0  0  0
  -29.0222   -3.0681   30.5992 C   0  0  0  0  0  0  0  0  0  0  0  0
  -29.9259   -4.1026   30.3241 C   0  0  0  0  0  0  0  0  0  0  0  0
  -30.4112   -4.2938   29.2432 N   0  0  0  0  0  0  0  0  0  0  0  0
  -31.6973   -4.0687   29.0766 C   0  0  0  0  0  0  0  0  0  0  0  0
  -32.2561   -4.4043   27.7912 C   0  0  0  0  0  0  0  0  0  0  0  0
  -31.6620   -5.5262   27.1405 C   0  0  0  0  0  0  0  0  0  0  0  0
  -30.3571   -5.9645   27.5524 C   0  0  0  0  0  0  0  0  0  0  0  0
  -29.8160   -5.2156   28.3839 C   0  0  0  0  0  0  0  0  0  0  0  0
  -33.6047   -4.0317   27.3967 C   0  0  0  0  0  0  0  0  0  0  0  0
  -34.0800   -3.0441   27.4545 O   0  0  0  0  0  0  0  0  0  0  0  0
  -34.3413   -5.0782   27.0403 O   0  0  0  0  0  0  0  0  0  0  0  0
  -29.3849   -5.3479   31.0995 C   0  0  0  0  0  0  0  0  0  0  0  0
  -27.8714   -3.1164   31.1261 O   0  0  0  0  0  0  0  0  0  0  0  0
  -27.4543    2.0867   33.0529 C   0  0  0  0  0  0  0  0  0  0  0  0
  -27.0309    1.0795   33.6317 F   0  0  0  0  0  0  0  0  0  0  0  0
  -28.7815    2.1335   33.0437 F   0  0  0  0  0  0  0  0  0  0  0  0
  -27.0590    3.1698   33.7302 F   0  0  0  0  0  0  0  0  0  0  0  0
  6 11  1  0
 11 12  1  0
 11 13  2  0
 12 14  1  0
  2 15  1  0
 15 16  1  0
 16 17  1  0
 17 18  1  0
 18 19  1  0
 20 21  1  0
 18 23  1  0
 22 23  1  0
 20 24  1  0
 24 25  2  0
 24 26  1  0
 17 27  1  0
 16 28  2  0
 10 29  1  0
 29 30  1  0
 29 31  1  0
 29 32  1  0
 19 20  1  0
 21 22  1  0
  4  6  1  0
  6  8  2  0
  8  9  1  0
  9 10  2  0
 10  7  1  0
  1  2  2  0
  2  5  1  0
  5  7  2  0
  7  4  1  0
  4  3  2  0
  3  1  1  0
M  END

$$$$
