No_1710-gen_results/8p0m/2024-11-26-14-13-15/
     RDKit          3D

 25 26  0  0  0  0  0  0  0  0999 V2000
  -28.0162   -0.8135   28.8779 C   0  0  0  0  0  0  0  0  0  0  0  0
  -28.4690   -0.7850   29.8287 C   0  0  0  0  0  0  0  0  0  0  0  0
  -27.0871    0.2903   28.6377 C   0  0  0  0  0  0  0  0  0  0  0  0
  -26.8317    1.2487   29.5869 C   0  0  0  0  0  0  0  0  0  0  0  0
  -28.3914    0.0801   31.0065 C   0  0  0  0  0  0  0  0  0  0  0  0
  -27.4940    1.1521   30.7841 C   0  0  0  0  0  0  0  0  0  0  0  0
  -26.3172    0.3994   27.3653 C   0  0  0  0  0  0  0  0  0  0  0  0
  -24.9405    0.2550   27.5028 C   0  0  0  0  0  0  0  0  0  0  0  0
  -26.9129    0.5860   26.1397 C   0  0  0  0  0  0  0  0  0  0  0  0
  -28.2688    0.7168   25.9850 C   0  0  0  0  0  0  0  0  0  0  0  0
  -28.7657    0.7315   24.6860 C   0  0  0  0  0  0  0  0  0  0  0  0
  -30.1595    0.8701   24.4627 C   0  0  0  0  0  0  0  0  0  0  0  0
  -30.9938    0.9584   25.5406 C   0  0  0  0  0  0  0  0  0  0  0  0
  -30.5076    0.9507   26.8390 C   0  0  0  0  0  0  0  0  0  0  0  0
  -29.1995    0.8714   27.0780 C   0  0  0  0  0  0  0  0  0  0  0  0
  -26.1028    0.0791   25.0737 C   0  0  0  0  0  0  0  0  0  0  0  0
  -31.5453    1.1344   27.9281 C   0  0  0  0  0  0  0  0  0  0  0  0
  -31.6993    0.0809   28.4207 F   0  0  0  0  0  0  0  0  0  0  0  0
  -30.9504    1.9560   28.8988 F   0  0  0  0  0  0  0  0  0  0  0  0
  -32.5944    1.7341   27.5416 F   0  0  0  0  0  0  0  0  0  0  0  0
  -24.2102    1.1365   28.3663 C   0  0  0  0  0  0  0  0  0  0  0  0
  -23.0978    0.8209   28.8608 C   0  0  0  0  0  0  0  0  0  0  0  0
  -21.8850    1.1989   28.2037 C   0  0  0  0  0  0  0  0  0  0  0  0
  -22.9557   -0.1978   29.8836 C   0  0  0  0  0  0  0  0  0  0  0  0
  -20.6972    0.6976   28.5267 O   0  0  0  0  0  0  0  0  0  0  0  0
  3  7  1  0
  7  8  1  0
  7  9  1  0
  9 10  1  0
  9 16  1  0
 14 17  1  0
 17 18  1  0
 17 19  1  0
 17 20  1  0
  8 21  1  0
 21 22  1  0
 22 23  2  0
 22 24  1  0
 23 25  2  0
  1  2  2  0
  2  5  1  0
  5  6  2  0
  6  4  1  0
  4  3  2  0
  3  1  1  0
 10 11  2  0
 11 12  1  0
 12 13  2  0
 13 14  1  0
 14 15  2  0
 15 10  1  0
M  END

$$$$
