No_1135-gen_results/8p0m/2024-11-26-14-13-15/
     RDKit          3D

 29 31  0  0  0  0  0  0  0  0999 V2000
  -28.0162   -0.8135   28.8779 C   0  0  0  0  0  0  0  0  0  0  0  0
  -27.0636   -0.1190   28.6079 C   0  0  0  0  0  0  0  0  0  0  0  0
  -26.9716    0.7139   27.5060 C   0  0  0  0  0  0  0  0  0  0  0  0
  -28.1053    0.7744   26.6421 C   0  0  0  0  0  0  0  0  0  0  0  0
  -29.2041    0.1179   27.0477 C   0  0  0  0  0  0  0  0  0  0  0  0
  -29.2127   -0.6088   28.1281 C   0  0  0  0  0  0  0  0  0  0  0  0
  -25.6860    1.2756   27.3185 N   0  0  0  0  0  0  0  0  0  0  0  0
  -24.6614    0.8680   27.8780 C   0  0  0  0  0  0  0  0  0  0  0  0
  -23.3806    1.6171   27.6941 C   0  0  0  0  0  0  0  0  0  0  0  0
  -23.5614    2.4537   26.5699 C   0  0  0  0  0  0  0  0  0  0  0  0
  -25.2897    2.2985   26.3339 C   0  0  0  0  0  0  0  0  0  0  0  0
  -22.0822    1.3900   28.1808 C   0  0  0  0  0  0  0  0  0  0  0  0
  -21.9754    0.7073   29.3126 N   0  0  0  0  0  0  0  0  0  0  0  0
  -21.0704    2.1272   27.8991 O   0  0  0  0  0  0  0  0  0  0  0  0
  -30.3912    0.2515   26.1687 C   0  0  0  0  0  0  0  0  0  0  0  0
  -31.3641   -0.4625   26.3093 O   0  0  0  0  0  0  0  0  0  0  0  0
  -30.5284    1.2984   25.4034 O   0  0  0  0  0  0  0  0  0  0  0  0
  -27.9240   -1.6526   30.1640 C   0  0  0  0  0  0  0  0  0  0  0  0
  -26.9309   -2.2331   30.4567 O   0  0  0  0  0  0  0  0  0  0  0  0
  -29.1452   -2.1370   30.5844 O   0  0  0  0  0  0  0  0  0  0  0  0
  -29.2954   -2.8543   31.3801 C   0  0  0  0  0  0  0  0  0  0  0  0
  -30.5666   -3.6769   31.3903 C   0  0  0  0  0  0  0  0  0  0  0  0
  -30.5948   -4.7264   31.8733 O   0  0  0  0  0  0  0  0  0  0  0  0
  -31.6567   -3.1297   30.8416 N   0  0  0  0  0  0  0  0  0  0  0  0
  -32.8551   -3.8329   30.6484 C   0  0  0  0  0  0  0  0  0  0  0  0
  -33.6502   -3.1289   29.9590 C   0  0  0  0  0  0  0  0  0  0  0  0
  -33.3846   -1.8875   29.4154 C   0  0  0  0  0  0  0  0  0  0  0  0
  -32.1816   -1.2461   29.6564 C   0  0  0  0  0  0  0  0  0  0  0  0
  -31.3849   -1.8557   30.2925 C   0  0  0  0  0  0  0  0  0  0  0  0
  3  7  1  0
  7  8  1  0
  8  9  2  0
  9 10  1  0
  7 11  1  0
 10 11  2  0
  9 12  1  0
 12 13  1  0
 12 14  2  0
  5 15  1  0
 15 16  2  0
 15 17  1  0
  1 18  1  0
 18 19  2  0
 18 20  1  0
 20 21  1  0
 21 22  1  0
 22 23  2  0
 22 24  1  0
 24 25  1  0
 26 27  1  0
 24 29  1  0
 28 29  1  0
 25 26  1  0
 27 28  1  0
  1  2  2  0
  2  3  1  0
  3  4  2  0
  4  5  1  0
  5  6  2  0
  6  1  1  0
M  END

$$$$
