No_1851-gen_results/8p0m/2024-11-26-14-13-15/
     RDKit          3D

 17 19  0  0  0  0  0  0  0  0999 V2000
  -28.0162   -0.8135   28.8779 C   0  0  0  0  0  0  0  0  0  0  0  0
  -27.0636   -0.1190   28.6079 C   0  0  0  0  0  0  0  0  0  0  0  0
  -26.9716    0.7139   27.5060 C   0  0  0  0  0  0  0  0  0  0  0  0
  -25.8205    1.4909   27.1160 C   0  0  0  0  0  0  0  0  0  0  0  0
  -24.6562    1.4242   27.9180 C   0  0  0  0  0  0  0  0  0  0  0  0
  -24.6847    0.5901   29.0659 C   0  0  0  0  0  0  0  0  0  0  0  0
  -23.4723    0.4701   29.8435 C   0  0  0  0  0  0  0  0  0  0  0  0
  -25.7941   -0.1679   29.3440 C   0  0  0  0  0  0  0  0  0  0  0  0
  -27.9615   -1.6587   30.0310 N   0  0  0  0  0  0  0  0  0  0  0  0
  -22.2438    0.8902   29.3873 C   0  0  0  0  0  0  0  0  0  0  0  0
  -22.1280    1.6206   28.2134 C   0  0  0  0  0  0  0  0  0  0  0  0
  -23.3358    1.9632   27.4702 C   0  0  0  0  0  0  0  0  0  0  0  0
  -26.7774   -1.8893   30.6721 C   0  0  0  0  0  0  0  0  0  0  0  0
  -25.6585   -1.0559   30.4916 C   0  0  0  0  0  0  0  0  0  0  0  0
  -28.1257    0.8321   26.6064 C   0  0  0  0  0  0  0  0  0  0  0  0
  -29.0801    0.8331   27.0092 F   0  0  0  0  0  0  0  0  0  0  0  0
  -27.8857    0.6954   25.3788 F   0  0  0  0  0  0  0  0  0  0  0  0
  2  3  1  0
  3  4  1  0
  4  5  1  0
  6  8  1  0
  3 15  1  0
 15 16  1  0
 15 17  1  0
  1  2  2  0
  2  8  1  0
  8 14  2  0
 14 13  1  0
 13  9  2  0
  9  1  1  0
  5  6  2  0
  6  7  1  0
  7 10  2  0
 10 11  1  0
 11 12  2  0
 12  5  1  0
M  END

$$$$
