No_1674-gen_results/8p0m/2024-11-26-14-13-15/
     RDKit          3D

 14 15  0  0  0  0  0  0  0  0999 V2000
  -28.0162   -0.8135   28.8779 C   0  0  0  0  0  0  0  0  0  0  0  0
  -28.4690   -0.7850   29.8287 C   0  0  0  0  0  0  0  0  0  0  0  0
  -26.5042   -0.7777   28.8766 C   0  0  0  0  0  0  0  0  0  0  0  0
  -25.8103   -0.8531   30.1028 C   0  0  0  0  0  0  0  0  0  0  0  0
  -27.9906   -0.8916   31.2257 C   0  0  0  0  0  0  0  0  0  0  0  0
  -26.6042   -0.8676   31.2652 C   0  0  0  0  0  0  0  0  0  0  0  0
  -29.9203   -0.8331   29.8239 F   0  0  0  0  0  0  0  0  0  0  0  0
  -24.3796   -0.8022   30.1424 C   0  0  0  0  0  0  0  0  0  0  0  0
  -23.6323   -0.3170   29.1196 C   0  0  0  0  0  0  0  0  0  0  0  0
  -22.1884   -0.2415   29.2461 C   0  0  0  0  0  0  0  0  0  0  0  0
  -21.4465    0.3223   28.1882 C   0  0  0  0  0  0  0  0  0  0  0  0
  -22.1232    1.2259   27.3046 C   0  0  0  0  0  0  0  0  0  0  0  0
  -23.5021    1.3684   27.3406 C   0  0  0  0  0  0  0  0  0  0  0  0
  -24.2580    0.6956   28.2849 C   0  0  0  0  0  0  0  0  0  0  0  0
  2  7  1  0
  4  8  1  0
  8  9  1  0
  9 10  2  0
 10 11  1  0
 11 12  2  0
 12 13  1  0
 13 14  2  0
 14  9  1  0
  1  2  2  0
  2  5  1  0
  5  6  2  0
  6  4  1  0
  4  3  2  0
  3  1  1  0
M  END

$$$$
