No_1231-gen_results/8p0m/2024-11-26-14-13-15/
     RDKit          3D

 19 20  0  0  0  0  0  0  0  0999 V2000
  -28.0162   -0.8135   28.8779 C   0  0  0  0  0  0  0  0  0  0  0  0
  -28.4690   -0.7850   29.8287 C   0  0  0  0  0  0  0  0  0  0  0  0
  -28.1816    0.4277   28.1134 C   0  0  0  0  0  0  0  0  0  0  0  0
  -28.9841    1.4155   28.5154 C   0  0  0  0  0  0  0  0  0  0  0  0
  -29.3802    0.1384   30.4612 C   0  0  0  0  0  0  0  0  0  0  0  0
  -29.5415    1.2736   29.7242 C   0  0  0  0  0  0  0  0  0  0  0  0
  -27.4586    0.4934   26.7701 C   0  0  0  0  0  0  0  0  0  0  0  0
  -26.0264    0.3840   26.7617 C   0  0  0  0  0  0  0  0  0  0  0  0
  -25.2257    1.3507   27.3721 C   0  0  0  0  0  0  0  0  0  0  0  0
  -23.8545    1.0997   27.5822 C   0  0  0  0  0  0  0  0  0  0  0  0
  -23.4145   -0.0549   28.1094 C   0  0  0  0  0  0  0  0  0  0  0  0
  -22.0584   -0.1657   28.5524 C   0  0  0  0  0  0  0  0  0  0  0  0
  -21.1282    0.7609   28.1424 C   0  0  0  0  0  0  0  0  0  0  0  0
  -21.5562    1.9701   27.5549 C   0  0  0  0  0  0  0  0  0  0  0  0
  -22.9513    2.1399   27.3265 C   0  0  0  0  0  0  0  0  0  0  0  0
  -25.7707    2.6774   27.6525 C   0  0  0  0  0  0  0  0  0  0  0  0
  -28.1911    0.5715   25.5941 C   0  0  0  0  0  0  0  0  0  0  0  0
  -27.9459   -0.0427   24.5459 C   0  0  0  0  0  0  0  0  0  0  0  0
  -28.8239    0.0080   23.3607 C   0  0  0  0  0  0  0  0  0  0  0  0
  3  7  1  0
  7  8  1  0
  8  9  1  0
  9 16  1  0
  7 17  1  0
 17 18  2  3
 18 19  1  0
  9 10  1  0
  1  2  2  0
  2  5  1  0
  5  6  2  0
  6  4  1  0
  4  3  2  0
  3  1  1  0
 10 11  2  0
 11 12  1  0
 12 13  2  0
 13 14  1  0
 14 15  2  0
 15 10  1  0
M  END

$$$$
