No_1313-gen_results/8p0m/2024-11-26-14-13-15/
     RDKit          3D

 20 22  0  0  0  0  0  0  0  0999 V2000
  -28.0162   -0.8135   28.8779 C   0  0  0  0  0  0  0  0  0  0  0  0
  -28.4690   -0.7850   29.8287 C   0  0  0  0  0  0  0  0  0  0  0  0
  -26.5042   -0.7777   28.8766 C   0  0  0  0  0  0  0  0  0  0  0  0
  -25.6540   -0.6597   27.7191 C   0  0  0  0  0  0  0  0  0  0  0  0
  -27.9180   -0.9374   31.1824 C   0  0  0  0  0  0  0  0  0  0  0  0
  -26.5423   -0.9399   31.2606 C   0  0  0  0  0  0  0  0  0  0  0  0
  -25.7832   -0.8935   30.1201 C   0  0  0  0  0  0  0  0  0  0  0  0
  -25.9259    0.2819   26.7445 C   0  0  0  0  0  0  0  0  0  0  0  0
  -25.0234    0.4476   25.6774 C   0  0  0  0  0  0  0  0  0  0  0  0
  -26.4789    1.4903   27.1017 C   0  0  0  0  0  0  0  0  0  0  0  0
  -26.7018    2.5037   26.1680 C   0  0  0  0  0  0  0  0  0  0  0  0
  -27.4343    3.6318   26.5320 C   0  0  0  0  0  0  0  0  0  0  0  0
  -27.4805    4.7176   25.6850 C   0  0  0  0  0  0  0  0  0  0  0  0
  -28.2646    5.8404   26.0305 C   0  0  0  0  0  0  0  0  0  0  0  0
  -29.0420    5.8548   27.2246 C   0  0  0  0  0  0  0  0  0  0  0  0
  -28.9453    4.7682   28.0357 C   0  0  0  0  0  0  0  0  0  0  0  0
  -28.1644    3.6546   27.7574 C   0  0  0  0  0  0  0  0  0  0  0  0
  -26.1944    2.1646   25.2222 C   0  0  0  0  0  0  0  0  0  0  0  0
  -25.2829    1.2736   24.7244 C   0  0  0  0  0  0  0  0  0  0  0  0
  -29.9108   -0.7316   29.8397 F   0  0  0  0  0  0  0  0  0  0  0  0
  3  4  1  0
 11 12  1  0
  2 20  1  0
  4  8  1  0
 12 13  2  0
 13 14  1  0
 14 15  2  0
 15 16  1  0
 16 17  2  0
 17 12  1  0
  8  9  2  0
  9 19  1  0
 19 18  2  0
 18 11  1  0
 11 10  2  0
 10  8  1  0
  1  2  2  0
  2  5  1  0
  5  6  2  0
  6  7  1  0
  7  3  2  0
  3  1  1  0
M  END

$$$$
