No_1199-gen_results/8p0m/2024-11-26-14-13-15/
     RDKit          3D

 13 13  0  0  0  0  0  0  0  0999 V2000
  -28.0162   -0.8135   28.8779 C   0  0  0  0  0  0  0  0  0  0  0  0
  -27.0636   -0.1190   28.6079 C   0  0  0  0  0  0  0  0  0  0  0  0
  -26.9716    0.7139   27.5060 C   0  0  0  0  0  0  0  0  0  0  0  0
  -25.8205    1.4909   27.1160 C   0  0  0  0  0  0  0  0  0  0  0  0
  -24.6562    1.4242   27.9180 C   0  0  0  0  0  0  0  0  0  0  0  0
  -24.6847    0.5901   29.0659 C   0  0  0  0  0  0  0  0  0  0  0  0
  -25.8099   -0.1266   29.3338 C   0  0  0  0  0  0  0  0  0  0  0  0
  -29.2185   -0.0422   29.3127 C   0  0  0  0  0  0  0  0  0  0  0  0
  -30.5123   -0.8015   29.9648 Cl  0  0  0  0  0  0  0  0  0  0  0  0
  -29.2966    1.1682   29.0436 O   0  0  0  0  0  0  0  0  0  0  0  0
  -23.4615    2.1937   27.5822 C   0  0  0  0  0  0  0  0  0  0  0  0
  -23.2302    2.6220   26.3798 N   0  0  0  0  0  0  0  0  0  0  0  0
  -22.4245    2.1477   28.3544 O   0  0  0  0  0  0  0  0  0  0  0  0
  1  2  2  3
  2  3  1  0
  3  4  1  0
  4  5  1  0
  5  6  1  0
  2  7  1  0
  6  7  1  0
  1  8  1  0
  8  9  1  0
  8 10  2  0
  5 11  1  0
 11 12  1  0
 11 13  2  0
M  END

$$$$
