No_1727-gen_results/8p0m/2024-11-26-14-13-15/
     RDKit          3D

 12 13  0  0  0  0  0  0  0  0999 V2000
  -28.1229   -1.3353   28.4874 O   0  0  0  0  0  0  0  0  0  0  0  0
  -27.4806   -0.4044   28.7094 C   0  0  0  0  0  0  0  0  0  0  0  0
  -26.3804   -0.0867   27.9394 C   0  0  0  0  0  0  0  0  0  0  0  0
  -27.4232    0.1749   30.0549 N   0  0  0  0  0  0  0  0  0  0  0  0
  -25.4065    0.7421   28.2860 C   0  0  0  0  0  0  0  0  0  0  0  0
  -24.3010    1.1589   27.4854 C   0  0  0  0  0  0  0  0  0  0  0  0
  -23.1649    1.6163   28.0526 C   0  0  0  0  0  0  0  0  0  0  0  0
  -23.0776    1.6723   29.4941 C   0  0  0  0  0  0  0  0  0  0  0  0
  -24.0753    1.2307   30.3125 C   0  0  0  0  0  0  0  0  0  0  0  0
  -25.1734    0.6549   29.7033 C   0  0  0  0  0  0  0  0  0  0  0  0
  -26.2963    0.4357   30.6032 C   0  0  0  0  0  0  0  0  0  0  0  0
  -28.7107    0.1564   30.7240 C   0  0  0  0  0  0  0  0  0  0  0  0
  1  2  2  0
  2  3  1  0
  2  4  1  0
  3  5  1  0
  4 11  1  0
 10 11  1  0
  4 12  1  0
  5  6  2  0
  6  7  1  0
  7  8  2  0
  8  9  1  0
  9 10  2  0
 10  5  1  0
M  END

$$$$
