No_1189-gen_results/8p0m/2024-11-26-14-13-15/
     RDKit          3D

 22 24  0  0  0  0  0  0  0  0999 V2000
  -28.0162   -0.8135   28.8779 C   0  0  0  0  0  0  0  0  0  0  0  0
  -27.0636   -0.1190   28.6079 C   0  0  0  0  0  0  0  0  0  0  0  0
  -27.0010    0.6913   27.4910 C   0  0  0  0  0  0  0  0  0  0  0  0
  -25.8548    1.4825   27.0830 C   0  0  0  0  0  0  0  0  0  0  0  0
  -24.6901    1.4526   27.8807 C   0  0  0  0  0  0  0  0  0  0  0  0
  -24.7379    0.6010   29.0416 C   0  0  0  0  0  0  0  0  0  0  0  0
  -25.8234   -0.1688   29.3887 C   0  0  0  0  0  0  0  0  0  0  0  0
  -29.2150   -0.1726   29.0132 N   0  0  0  0  0  0  0  0  0  0  0  0
  -30.2463   -0.7736   29.6388 C   0  0  0  0  0  0  0  0  0  0  0  0
  -23.5190    2.2034   27.5550 C   0  0  0  0  0  0  0  0  0  0  0  0
  -23.4334    2.7576   26.3383 N   0  0  0  0  0  0  0  0  0  0  0  0
  -22.3302    1.8517   28.0163 O   0  0  0  0  0  0  0  0  0  0  0  0
  -29.9978   -1.9394   30.3222 C   0  0  0  0  0  0  0  0  0  0  0  0
  -29.0719   -2.1719   30.6438 C   0  0  0  0  0  0  0  0  0  0  0  0
  -27.7664   -1.7429   30.0337 C   0  0  0  0  0  0  0  0  0  0  0  0
  -31.4411   -0.3061   29.3823 O   0  0  0  0  0  0  0  0  0  0  0  0
  -26.4907   -2.1981   30.3183 C   0  0  0  0  0  0  0  0  0  0  0  0
  -25.5372   -1.2281   30.2568 C   0  0  0  0  0  0  0  0  0  0  0  0
  -28.0294    0.7920   26.7403 F   0  0  0  0  0  0  0  0  0  0  0  0
  -31.2752   -2.5990   30.8967 C   0  0  0  0  0  0  0  0  0  0  0  0
  -31.0644   -3.6545   31.5552 C   0  0  0  0  0  0  0  0  0  0  0  0
  -29.7172   -4.0969   31.9786 C   0  0  0  0  0  0  0  0  0  0  0  0
  1  8  1  0
  8  9  1  0
  5 10  1  0
 10 11  1  0
 10 12  2  0
  9 13  1  0
 14 15  1  0
  9 16  2  0
  3 19  1  0
 13 20  1  0
 20 21  2  3
 21 22  1  0
 14 13  1  0
  2  3  2  0
  3  4  1  0
  4  5  2  0
  5  6  1  0
  6  7  2  0
  1  2  1  0
  2  7  1  0
  7 18  1  0
 18 17  2  0
 17 15  1  0
 15  1  2  0
M  END

$$$$
