No_1442-gen_results/8p0m/2024-11-26-14-13-15/
     RDKit          3D

 13 14  0  0  0  0  0  0  0  0999 V2000
  -28.0162   -0.8135   28.8779 C   0  0  0  0  0  0  0  0  0  0  0  0
  -28.4690   -0.7850   29.8287 C   0  0  0  0  0  0  0  0  0  0  0  0
  -26.5042   -0.7777   28.8766 C   0  0  0  0  0  0  0  0  0  0  0  0
  -25.8103   -0.8531   30.1028 C   0  0  0  0  0  0  0  0  0  0  0  0
  -27.9906   -0.8916   31.2257 C   0  0  0  0  0  0  0  0  0  0  0  0
  -26.6042   -0.8676   31.2652 C   0  0  0  0  0  0  0  0  0  0  0  0
  -24.3894   -0.8049   30.1638 C   0  0  0  0  0  0  0  0  0  0  0  0
  -23.7660   -0.9500   31.0679 C   0  0  0  0  0  0  0  0  0  0  0  0
  -22.2665   -0.8379   31.2250 C   0  0  0  0  0  0  0  0  0  0  0  0
  -21.6700   -0.5264   30.0648 C   0  0  0  0  0  0  0  0  0  0  0  0
  -23.6437   -0.4433   28.9621 C   0  0  0  0  0  0  0  0  0  0  0  0
  -22.3479   -0.3035   28.9177 C   0  0  0  0  0  0  0  0  0  0  0  0
  -30.3169   -0.7825   29.8243 Cl  0  0  0  0  0  0  0  0  0  0  0  0
  4  7  1  0
  2 13  1  0
  7  8  2  0
  8  9  1  0
  9 10  2  0
 10 12  1  0
 12 11  2  0
 11  7  1  0
  1  2  2  0
  2  5  1  0
  5  6  2  0
  6  4  1  0
  4  3  2  0
  3  1  1  0
M  END

$$$$
