No_1657-gen_results/8p0m/2024-11-26-14-13-15/
     RDKit          3D

 11 11  0  0  0  0  0  0  0  0999 V2000
  -28.0162   -0.8135   28.8779 C   0  0  0  0  0  0  0  0  0  0  0  0
  -28.4690   -0.7850   29.8287 C   0  0  0  0  0  0  0  0  0  0  0  0
  -26.5042   -0.7777   28.8766 C   0  0  0  0  0  0  0  0  0  0  0  0
  -25.8103   -0.8531   30.1028 C   0  0  0  0  0  0  0  0  0  0  0  0
  -30.0136   -0.8410   29.8508 C   0  0  0  0  0  0  0  0  0  0  0  0
  -26.5670   -0.8850   31.2517 C   0  0  0  0  0  0  0  0  0  0  0  0
  -27.9410   -0.9069   31.1850 C   0  0  0  0  0  0  0  0  0  0  0  0
  -30.5389   -0.4288   28.9958 O   0  0  0  0  0  0  0  0  0  0  0  0
  -30.6943   -1.4225   30.8668 F   0  0  0  0  0  0  0  0  0  0  0  0
  -25.5225   -0.7025   27.4709 Cl  0  0  0  0  0  0  0  0  0  0  0  0
  -24.1003   -0.8016   30.1692 Cl  0  0  0  0  0  0  0  0  0  0  0  0
  2  5  1  0
  5  8  2  0
  5  9  1  0
  3 10  1  0
  4 11  1  0
  1  2  2  0
  2  7  1  0
  7  6  2  0
  6  4  1  0
  4  3  2  0
  3  1  1  0
M  END

$$$$
