No_1974-gen_results/8p0m/2024-11-26-14-13-15/
     RDKit          3D

  9  9  0  0  0  0  0  0  0  0999 V2000
  -28.0162   -0.8135   28.8779 C   0  0  0  0  0  0  0  0  0  0  0  0
  -28.4690   -0.7850   29.8287 C   0  0  0  0  0  0  0  0  0  0  0  0
  -26.5455   -0.8762   28.8500 C   0  0  0  0  0  0  0  0  0  0  0  0
  -25.8041   -1.0324   30.0571 C   0  0  0  0  0  0  0  0  0  0  0  0
  -27.9487   -0.9304   31.0996 C   0  0  0  0  0  0  0  0  0  0  0  0
  -26.5925   -1.0065   31.2026 C   0  0  0  0  0  0  0  0  0  0  0  0
  -30.0598   -0.7301   29.8609 C   0  0  0  0  0  0  0  0  0  0  0  0
  -30.6333    0.0272   30.8141 O   0  0  0  0  0  0  0  0  0  0  0  0
  -30.6781   -1.2994   28.9862 O   0  0  0  0  0  0  0  0  0  0  0  0
  2  7  1  0
  7  8  1  0
  7  9  2  0
  1  2  2  0
  2  5  1  0
  5  6  2  0
  6  4  1  0
  4  3  2  0
  3  1  1  0
M  END

$$$$
