No_1853-gen_results/8p0m/2024-11-26-14-13-15/
     RDKit          3D

 30 34  0  0  0  0  0  0  0  0999 V2000
  -28.1229   -1.3353   28.4874 O   0  0  0  0  0  0  0  0  0  0  0  0
  -27.4806   -0.4044   28.7094 C   0  0  0  0  0  0  0  0  0  0  0  0
  -26.3804   -0.0867   27.9394 C   0  0  0  0  0  0  0  0  0  0  0  0
  -27.6664    0.4468   29.8988 N   0  0  0  0  0  0  0  0  0  0  0  0
  -26.4086    0.8567   26.8802 C   0  0  0  0  0  0  0  0  0  0  0  0
  -25.0824   -0.6970   28.1699 C   0  0  0  0  0  0  0  0  0  0  0  0
  -25.2842    1.0488   26.0470 C   0  0  0  0  0  0  0  0  0  0  0  0
  -23.9159   -0.3440   27.4444 C   0  0  0  0  0  0  0  0  0  0  0  0
  -24.0618    0.5290   26.3706 C   0  0  0  0  0  0  0  0  0  0  0  0
  -28.7784    0.1033   30.7872 C   0  0  0  0  0  0  0  0  0  0  0  0
  -26.8454    1.5246   30.2211 C   0  0  0  0  0  0  0  0  0  0  0  0
  -27.2474    2.6214   30.2572 C   0  0  0  0  0  0  0  0  0  0  0  0
  -28.1791    3.2074   30.4550 C   0  0  0  0  0  0  0  0  0  0  0  0
  -29.3990    2.4975   30.6944 C   0  0  0  0  0  0  0  0  0  0  0  0
  -30.6385    3.1407   30.8616 C   0  0  0  0  0  0  0  0  0  0  0  0
  -29.4900    1.0885   30.7792 C   0  0  0  0  0  0  0  0  0  0  0  0
  -31.3974    3.2983   29.8139 C   0  0  0  0  0  0  0  0  0  0  0  0
  -32.6657    4.0084   29.8965 C   0  0  0  0  0  0  0  0  0  0  0  0
  -33.0264    4.5398   31.1492 C   0  0  0  0  0  0  0  0  0  0  0  0
  -32.2139    4.3875   32.2183 C   0  0  0  0  0  0  0  0  0  0  0  0
  -31.0019    3.7222   32.1073 C   0  0  0  0  0  0  0  0  0  0  0  0
  -32.5949    4.9712   33.5392 C   0  0  0  0  0  0  0  0  0  0  0  0
  -33.0292    6.1905   33.6504 C   0  0  0  0  0  0  0  0  0  0  0  0
  -33.2548    6.9023   34.3753 C   0  0  0  0  0  0  0  0  0  0  0  0
  -33.7425    8.3168   34.3044 C   0  0  0  0  0  0  0  0  0  0  0  0
  -34.0293    8.7337   33.0322 C   0  0  0  0  0  0  0  0  0  0  0  0
  -33.7701    7.9016   31.9873 C   0  0  0  0  0  0  0  0  0  0  0  0
  -33.2361    6.6337   32.1746 C   0  0  0  0  0  0  0  0  0  0  0  0
  -33.1990    5.8089   31.0376 C   0  0  0  0  0  0  0  0  0  0  0  0
  -30.3284    3.4439   33.2352 O   0  0  0  0  0  0  0  0  0  0  0  0
  1  2  2  0
  2  3  1  0
  2  4  1  0
  4 10  1  0
  4 11  1  0
 11 12  2  0
 12 13  1  0
 13 14  1  0
 14 15  1  0
 10 16  2  0
 14 16  1  0
 17 18  1  0
 15 21  1  0
 20 21  1  0
 21 30  2  0
 15 17  1  0
 18 19  1  0
 23 24  1  0
 24 25  2  0
 25 26  1  0
 26 27  2  0
 27 28  1  0
 19 20  2  0
 20 22  1  0
 22 23  2  0
 23 28  1  0
 28 29  2  0
 29 19  1  0
  3  5  2  0
  5  7  1  0
  7  9  2  0
  9  8  1  0
  8  6  2  0
  6  3  1  0
M  END

$$$$
