No_1263-gen_results/8p0m/2024-11-26-14-13-15/
     RDKit          3D

 21 22  0  0  0  0  0  0  0  0999 V2000
  -28.0162   -0.8135   28.8779 C   0  0  0  0  0  0  0  0  0  0  0  0
  -28.4690   -0.7850   29.8287 C   0  0  0  0  0  0  0  0  0  0  0  0
  -28.1816    0.4277   28.1134 C   0  0  0  0  0  0  0  0  0  0  0  0
  -27.4498    0.6435   26.8500 C   0  0  0  0  0  0  0  0  0  0  0  0
  -26.4529    0.9939   26.6681 C   0  0  0  0  0  0  0  0  0  0  0  0
  -25.1810    0.8624   26.8164 C   0  0  0  0  0  0  0  0  0  0  0  0
  -24.5150    0.1164   27.8116 C   0  0  0  0  0  0  0  0  0  0  0  0
  -23.1975    0.2648   28.2065 C   0  0  0  0  0  0  0  0  0  0  0  0
  -28.2893   -2.0095   30.8342 C   0  0  0  0  0  0  0  0  0  0  0  0
  -27.5172   -2.9939   30.3016 C   0  0  0  0  0  0  0  0  0  0  0  0
  -26.6620   -2.8265   29.2754 C   0  0  0  0  0  0  0  0  0  0  0  0
  -26.8777   -1.6181   28.5501 C   0  0  0  0  0  0  0  0  0  0  0  0
  -22.4347    1.2056   27.5575 C   0  0  0  0  0  0  0  0  0  0  0  0
  -22.9551    2.0266   26.5539 C   0  0  0  0  0  0  0  0  0  0  0  0
  -24.2731    1.8986   26.2569 C   0  0  0  0  0  0  0  0  0  0  0  0
  -26.5173    1.9264   25.3387 C   0  0  0  0  0  0  0  0  0  0  0  0
  -28.3128   -0.0755   25.9942 F   0  0  0  0  0  0  0  0  0  0  0  0
  -22.5696   -0.5446   29.2470 C   0  0  0  0  0  0  0  0  0  0  0  0
  -23.2484   -1.0861   29.9331 F   0  0  0  0  0  0  0  0  0  0  0  0
  -21.7486    0.3216   29.9981 F   0  0  0  0  0  0  0  0  0  0  0  0
  -21.6166   -1.2991   28.6181 F   0  0  0  0  0  0  0  0  0  0  0  0
  3  4  1  0
  4  5  2  3
  5  6  1  0
  5 16  1  0
  4 17  1  0
  8 18  1  0
 18 19  1  0
 18 20  1  0
 18 21  1  0
  3  1  1  0
  1  2  2  0
  2  9  1  0
  9 10  2  0
 10 11  1  0
 11 12  2  0
 12  1  1  0
  6  7  2  0
  7  8  1  0
  8 13  2  0
 13 14  1  0
 14 15  2  0
 15  6  1  0
M  END

$$$$
