No_1780-gen_results/8p0m/2024-11-26-14-13-15/
     RDKit          3D

 35 39  0  0  0  0  0  0  0  0999 V2000
  -28.0162   -0.8135   28.8779 C   0  0  0  0  0  0  0  0  0  0  0  0
  -27.0636   -0.1190   28.6079 C   0  0  0  0  0  0  0  0  0  0  0  0
  -26.9287    1.1713   29.0083 C   0  0  0  0  0  0  0  0  0  0  0  0
  -27.9560    1.7411   29.7840 C   0  0  0  0  0  0  0  0  0  0  0  0
  -29.0569   -0.3271   29.7466 C   0  0  0  0  0  0  0  0  0  0  0  0
  -28.9828    0.9722   30.1516 C   0  0  0  0  0  0  0  0  0  0  0  0
  -25.8907   -0.6263   27.7857 C   0  0  0  0  0  0  0  0  0  0  0  0
  -24.7182   -1.0610   28.6129 C   0  0  0  0  0  0  0  0  0  0  0  0
  -24.1449   -0.4239   29.6351 C   0  0  0  0  0  0  0  0  0  0  0  0
  -23.0783   -0.9693   30.2884 C   0  0  0  0  0  0  0  0  0  0  0  0
  -22.4898   -2.0547   29.6943 C   0  0  0  0  0  0  0  0  0  0  0  0
  -23.1788   -2.7885   28.7399 C   0  0  0  0  0  0  0  0  0  0  0  0
  -24.2833   -2.3342   28.2331 C   0  0  0  0  0  0  0  0  0  0  0  0
  -25.5011    0.4600   26.8532 C   0  0  0  0  0  0  0  0  0  0  0  0
  -25.8608    0.4005   25.5541 C   0  0  0  0  0  0  0  0  0  0  0  0
  -26.8284   -0.5408   25.1102 C   0  0  0  0  0  0  0  0  0  0  0  0
  -27.9362   -0.0084   24.3094 C   0  0  0  0  0  0  0  0  0  0  0  0
  -29.0354   -0.8545   24.1338 C   0  0  0  0  0  0  0  0  0  0  0  0
  -30.2529   -0.8447   24.6972 C   0  0  0  0  0  0  0  0  0  0  0  0
  -30.5534    0.4127   25.3715 C   0  0  0  0  0  0  0  0  0  0  0  0
  -29.6788    1.5113   25.2809 C   0  0  0  0  0  0  0  0  0  0  0  0
  -29.9686    2.7688   25.8406 C   0  0  0  0  0  0  0  0  0  0  0  0
  -28.3044    1.2469   24.8423 C   0  0  0  0  0  0  0  0  0  0  0  0
  -29.1536    3.7539   25.7738 N   0  0  0  0  0  0  0  0  0  0  0  0
  -31.2179    3.1127   26.1886 N   0  0  0  0  0  0  0  0  0  0  0  0
  -31.3611    4.4062   26.6256 C   0  0  0  0  0  0  0  0  0  0  0  0
  -29.7773    4.8707   26.2789 C   0  0  0  0  0  0  0  0  0  0  0  0
  -30.0089   -1.2123   30.0880 O   0  0  0  0  0  0  0  0  0  0  0  0
  -29.3177    6.1086   26.4883 N   0  0  0  0  0  0  0  0  0  0  0  0
  -29.1563    6.6743   27.6613 C   0  0  0  0  0  0  0  0  0  0  0  0
  -28.5757    7.8970   27.6973 C   0  0  0  0  0  0  0  0  0  0  0  0
  -28.1982    8.5924   28.8639 C   0  0  0  0  0  0  0  0  0  0  0  0
  -28.4536    7.8743   30.0659 C   0  0  0  0  0  0  0  0  0  0  0  0
  -29.2598    5.9895   28.8395 C   0  0  0  0  0  0  0  0  0  0  0  0
  -28.9418    6.5715   30.0468 C   0  0  0  0  0  0  0  0  0  0  0  0
  2  7  1  0
  7 14  1  0
 14 15  2  3
 15 16  1  0
 21 22  1  0
 22 24  2  0
 22 25  1  0
 25 26  2  0
 24 27  1  0
 26 27  1  0
  5 28  1  0
 27 29  1  0
 29 30  1  0
 16 17  1  0
  7  8  1  0
 17 18  2  0
 18 19  1  0
 19 20  2  0
 20 21  1  0
 21 23  2  0
 23 17  1  0
  1  2  2  0
  2  3  1  0
  3  4  2  0
  4  6  1  0
  6  5  2  0
  5  1  1  0
 30 31  2  0
 31 32  1  0
 32 33  2  0
 33 35  1  0
 35 34  2  0
 34 30  1  0
  8  9  2  0
  9 10  1  0
 10 11  2  0
 11 12  1  0
 12 13  2  0
 13  8  1  0
M  END

$$$$
