No_167-gen_results/8p0m/2024-11-26-14-13-15/
     RDKit          3D

 21 23  0  0  0  0  0  0  0  0999 V2000
  -28.0162   -0.8135   28.8779 C   0  0  0  0  0  0  0  0  0  0  0  0
  -28.4690   -0.7850   29.8287 C   0  0  0  0  0  0  0  0  0  0  0  0
  -26.5042   -0.7777   28.8766 C   0  0  0  0  0  0  0  0  0  0  0  0
  -25.8103   -0.8531   30.1028 C   0  0  0  0  0  0  0  0  0  0  0  0
  -27.9906   -0.8916   31.2257 C   0  0  0  0  0  0  0  0  0  0  0  0
  -26.6042   -0.8676   31.2652 C   0  0  0  0  0  0  0  0  0  0  0  0
  -29.9203   -0.8331   29.8239 F   0  0  0  0  0  0  0  0  0  0  0  0
  -24.3796   -0.8022   30.1424 C   0  0  0  0  0  0  0  0  0  0  0  0
  -23.6617   -1.3645   30.7155 C   0  0  0  0  0  0  0  0  0  0  0  0
  -23.8148   -0.2789   28.8363 C   0  0  0  0  0  0  0  0  0  0  0  0
  -24.1319    0.7575   28.0585 C   0  0  0  0  0  0  0  0  0  0  0  0
  -23.7266    1.8062   27.8575 C   0  0  0  0  0  0  0  0  0  0  0  0
  -24.2085    2.8236   26.8915 C   0  0  0  0  0  0  0  0  0  0  0  0
  -25.3841    2.4916   26.2200 C   0  0  0  0  0  0  0  0  0  0  0  0
  -25.8992    1.2756   26.4209 C   0  0  0  0  0  0  0  0  0  0  0  0
  -25.3681    0.4008   27.2774 C   0  0  0  0  0  0  0  0  0  0  0  0
  -25.7051    0.0124   28.0413 N   0  0  0  0  0  0  0  0  0  0  0  0
  -26.5187    0.0326   27.3522 O   0  0  0  0  0  0  0  0  0  0  0  0
  -26.0759    0.8706   28.8989 N   0  0  0  0  0  0  0  0  0  0  0  0
  -27.4974   -0.3578   26.5657 C   0  0  0  0  0  0  0  0  0  0  0  0
  -26.9755    1.8490   28.9714 C   0  0  0  0  0  0  0  0  0  0  0  0
  2  7  1  0
  4  8  1  0
  8  9  1  0
  8 10  1  0
 10 11  1  0
  3 17  1  0
 16 17  1  0
 15 18  1  0
 17 19  1  0
 18 20  1  0
 19 21  2  0
 11 12  2  0
 12 13  1  0
 13 14  2  0
 14 15  1  0
 15 16  2  0
 16 11  1  0
  1  2  2  0
  2  5  1  0
  5  6  2  0
  6  4  1  0
  4  3  2  0
  3  1  1  0
M  END

$$$$
