No_1358-gen_results/8p0m/2024-11-26-14-13-15/
     RDKit          3D

 12 12  0  0  0  0  0  0  0  0999 V2000
  -28.1229   -1.3353   28.4874 O   0  0  0  0  0  0  0  0  0  0  0  0
  -27.4806   -0.4044   28.7094 C   0  0  0  0  0  0  0  0  0  0  0  0
  -27.1904    0.2460   29.5268 C   0  0  0  0  0  0  0  0  0  0  0  0
  -26.6021   -0.1576   27.5515 N   0  0  0  0  0  0  0  0  0  0  0  0
  -25.6421    0.9031   27.5822 C   0  0  0  0  0  0  0  0  0  0  0  0
  -24.6412    1.0988   26.6164 C   0  0  0  0  0  0  0  0  0  0  0  0
  -25.4744    1.6186   28.8246 C   0  0  0  0  0  0  0  0  0  0  0  0
  -27.9937   -0.0221   30.8360 N   0  0  0  0  0  0  0  0  0  0  0  0
  -26.2775    1.3309   29.8879 C   0  0  0  0  0  0  0  0  0  0  0  0
  -23.7376    1.5580   26.6121 C   0  0  0  0  0  0  0  0  0  0  0  0
  -23.3291    2.3812   27.8859 C   0  0  0  0  0  0  0  0  0  0  0  0
  -24.2381    2.3870   28.8966 C   0  0  0  0  0  0  0  0  0  0  0  0
  1  2  2  0
  2  3  1  0
  2  4  1  0
  4  5  1  0
  5  6  1  0
  5  7  1  0
  3  8  1  0
  3  9  1  0
  6 10  2  3
 10 11  1  0
 11 12  1  0
  9  7  1  0
M  END

$$$$
