No_1387-gen_results/8p0m/2024-11-26-14-13-15/
     RDKit          3D

 24 24  0  0  0  0  0  0  0  0999 V2000
  -28.0162   -0.8135   28.8779 C   0  0  0  0  0  0  0  0  0  0  0  0
  -27.0636   -0.1189   28.6079 C   0  0  0  0  0  0  0  0  0  0  0  0
  -26.9287    1.1713   29.0083 C   0  0  0  0  0  0  0  0  0  0  0  0
  -25.7702    2.0341   28.6884 C   0  0  0  0  0  0  0  0  0  0  0  0
  -24.7141    1.4431   27.9188 C   0  0  0  0  0  0  0  0  0  0  0  0
  -24.8590    0.0783   27.5836 C   0  0  0  0  0  0  0  0  0  0  0  0
  -25.9647   -0.6606   27.9164 C   0  0  0  0  0  0  0  0  0  0  0  0
  -27.9821   -1.6367   30.0748 N   0  0  0  0  0  0  0  0  0  0  0  0
  -29.2163   -0.4132   28.6627 O   0  0  0  0  0  0  0  0  0  0  0  0
  -26.7315   -2.0678   30.6432 C   0  0  0  0  0  0  0  0  0  0  0  0
  -29.1005   -2.4113   30.5218 C   0  0  0  0  0  0  0  0  0  0  0  0
  -23.5128    2.1515   27.5474 C   0  0  0  0  0  0  0  0  0  0  0  0
  -22.4892    1.8528   27.3586 O   0  0  0  0  0  0  0  0  0  0  0  0
  -23.8405    3.4733   27.2618 O   0  0  0  0  0  0  0  0  0  0  0  0
  -28.9924   -3.7699   30.4821 C   0  0  0  0  0  0  0  0  0  0  0  0
  -28.9295   -4.3887   29.5352 O   0  0  0  0  0  0  0  0  0  0  0  0
  -28.4657   -4.3378   31.6796 O   0  0  0  0  0  0  0  0  0  0  0  0
  -30.2235   -1.8288   31.0584 C   0  0  0  0  0  0  0  0  0  0  0  0
  -30.2022   -0.4671   31.8392 Cl  0  0  0  0  0  0  0  0  0  0  0  0
  -31.4623   -2.4366   30.8091 C   0  0  0  0  0  0  0  0  0  0  0  0
  -32.4187   -1.6796   30.3692 C   0  0  0  0  0  0  0  0  0  0  0  0
  -32.6954   -0.5271   30.8197 C   0  0  0  0  0  0  0  0  0  0  0  0
  -31.9384    0.3680   31.2000 C   0  0  0  0  0  0  0  0  0  0  0  0
  -32.1038    1.4819   31.2820 C   0  0  0  0  0  0  0  0  0  0  0  0
  1  2  1  0
  1  8  1  0
  1  9  2  0
  8 10  1  0
  8 11  1  0
  5 12  1  0
 12 13  1  0
 12 14  2  0
 11 15  1  0
 15 16  2  0
 15 17  1  0
 11 18  1  0
 18 19  1  0
 18 20  1  0
 20 21  1  0
 21 22  1  0
 22 23  2  3
 23 24  1  0
  2  3  2  0
  3  4  1  0
  4  5  2  0
  5  6  1  0
  6  7  2  0
  7  2  1  0
M  END

$$$$
