No_1103-gen_results/8p0m/2024-11-26-14-13-15/
     RDKit          3D

 23 25  0  0  0  0  0  0  0  0999 V2000
  -28.0162   -0.8135   28.8779 C   0  0  0  0  0  0  0  0  0  0  0  0
  -27.0636   -0.1190   28.6079 C   0  0  0  0  0  0  0  0  0  0  0  0
  -25.7923   -0.4302   29.0761 C   0  0  0  0  0  0  0  0  0  0  0  0
  -25.5756   -1.5654   29.9363 C   0  0  0  0  0  0  0  0  0  0  0  0
  -24.3722   -1.9422   30.4466 C   0  0  0  0  0  0  0  0  0  0  0  0
  -27.9640   -1.9247   29.7899 C   0  0  0  0  0  0  0  0  0  0  0  0
  -26.7624   -2.3055   30.3031 C   0  0  0  0  0  0  0  0  0  0  0  0
  -23.3146   -1.9932   29.5545 C   0  0  0  0  0  0  0  0  0  0  0  0
  -27.1353    1.2691   27.5675 Cl  0  0  0  0  0  0  0  0  0  0  0  0
  -29.1703   -2.6753   30.2468 C   0  0  0  0  0  0  0  0  0  0  0  0
  -30.2074   -2.0705   30.0559 O   0  0  0  0  0  0  0  0  0  0  0  0
  -29.0561   -3.8110   30.7577 O   0  0  0  0  0  0  0  0  0  0  0  0
  -22.4146   -0.8026   29.3965 C   0  0  0  0  0  0  0  0  0  0  0  0
  -22.3663    0.1637   28.7277 C   0  0  0  0  0  0  0  0  0  0  0  0
  -21.2656    0.8709   28.1671 C   0  0  0  0  0  0  0  0  0  0  0  0
  -21.4531    2.0790   27.4316 C   0  0  0  0  0  0  0  0  0  0  0  0
  -22.8007    2.3739   27.0877 C   0  0  0  0  0  0  0  0  0  0  0  0
  -23.8402    1.6871   27.6323 C   0  0  0  0  0  0  0  0  0  0  0  0
  -23.6059    0.6947   28.3567 C   0  0  0  0  0  0  0  0  0  0  0  0
  -24.7763   -0.0759   28.8602 C   0  0  0  0  0  0  0  0  0  0  0  0
  -25.0749    0.6807   29.4441 P   0  0  0  0  0  0  0  0  0  0  0  0
  -25.6919    2.0787   29.1036 O   0  0  0  0  0  0  0  0  0  0  0  0
  -24.8234    0.9701   30.9530 O   0  0  0  0  0  0  0  0  0  0  0  0
  5  8  1  0
  2  9  1  0
  6 10  1  0
 10 11  2  0
 10 12  1  0
  8 13  2  3
 13 14  1  0
  3 20  1  0
 19 20  1  0
 20 21  1  0
 21 22  2  0
 21 23  1  0
  5  4  1  0
 14 15  2  0
 15 16  1  0
 16 17  2  0
 17 18  1  0
 18 19  2  0
 19 14  1  0
  1  2  2  0
  2  3  1  0
  3  4  2  0
  4  7  1  0
  7  6  2  0
  6  1  1  0
M  END

$$$$
