No_1823-gen_results/8p0m/2024-11-26-14-13-15/
     RDKit          3D

 13 14  0  0  0  0  0  0  0  0999 V2000
  -28.0162   -0.8135   28.8779 C   0  0  0  0  0  0  0  0  0  0  0  0
  -27.0636   -0.1189   28.6079 C   0  0  0  0  0  0  0  0  0  0  0  0
  -26.9849    0.5972   27.5218 N   0  0  0  0  0  0  0  0  0  0  0  0
  -27.9606   -1.5421   30.1660 C   0  0  0  0  0  0  0  0  0  0  0  0
  -26.7813   -1.6198   30.8836 C   0  0  0  0  0  0  0  0  0  0  0  0
  -25.6460   -0.9698   30.4630 C   0  0  0  0  0  0  0  0  0  0  0  0
  -25.7563   -0.1767   29.2863 C   0  0  0  0  0  0  0  0  0  0  0  0
  -25.9019    0.8964   26.8088 C   0  0  0  0  0  0  0  0  0  0  0  0
  -24.6132    0.8896   27.4818 C   0  0  0  0  0  0  0  0  0  0  0  0
  -24.5422    0.3373   28.7078 C   0  0  0  0  0  0  0  0  0  0  0  0
  -23.2213    0.2838   29.3790 C   0  0  0  0  0  0  0  0  0  0  0  0
  -22.1625   -0.4228   28.9007 C   0  0  0  0  0  0  0  0  0  0  0  0
  -23.1715    0.9101   30.7034 C   0  0  0  0  0  0  0  0  0  0  0  0
 10 11  1  0
 11 12  2  0
 11 13  1  0
  1  2  2  0
  7  6  2  0
  6  5  1  0
  5  4  2  0
  4  1  1  0
  2  3  1  0
  3  8  2  0
  8  9  1  0
  9 10  2  0
 10  7  1  0
  7  2  1  0
M  END

$$$$
