No_1042-gen_results/8p0m/2024-11-26-14-13-15/
     RDKit          3D

 12 13  0  0  0  0  0  0  0  0999 V2000
  -28.1229   -1.3353   28.4874 O   0  0  0  0  0  0  0  0  0  0  0  0
  -27.4806   -0.4044   28.7094 C   0  0  0  0  0  0  0  0  0  0  0  0
  -27.1904    0.2460   29.5268 C   0  0  0  0  0  0  0  0  0  0  0  0
  -26.8157    0.1370   27.4262 N   0  0  0  0  0  0  0  0  0  0  0  0
  -26.3550    1.4196   29.7643 C   0  0  0  0  0  0  0  0  0  0  0  0
  -27.0032   -0.3835   26.2012 C   0  0  0  0  0  0  0  0  0  0  0  0
  -25.8006    1.8629   28.4858 C   0  0  0  0  0  0  0  0  0  0  0  0
  -25.9935    1.2451   27.3785 C   0  0  0  0  0  0  0  0  0  0  0  0
  -27.7172   -0.2246   31.0011 C   0  0  0  0  0  0  0  0  0  0  0  0
  -27.7107    0.3531   25.2971 C   0  0  0  0  0  0  0  0  0  0  0  0
  -27.9070    1.6099   25.5046 C   0  0  0  0  0  0  0  0  0  0  0  0
  -26.7331    2.2364   26.2907 C   0  0  0  0  0  0  0  0  0  0  0  0
  1  2  2  0
  2  3  1  0
  2  4  1  0
  3  5  1  0
  4  6  1  0
  5  7  1  0
  4  8  1  0
  3  9  1  0
  6 10  1  0
  8 12  1  0
 11 12  1  0
 10 11  1  0
  7  8  1  0
M  END

$$$$
