No_1937-gen_results/8p0m/2024-11-26-14-13-15/
     RDKit          3D

 30 33  0  0  0  0  0  0  0  0999 V2000
  -28.0162   -0.8135   28.8779 C   0  0  0  0  0  0  0  0  0  0  0  0
  -28.4690   -0.7850   29.8287 C   0  0  0  0  0  0  0  0  0  0  0  0
  -27.0871    0.2903   28.6377 C   0  0  0  0  0  0  0  0  0  0  0  0
  -26.0239    0.3644   29.2526 C   0  0  0  0  0  0  0  0  0  0  0  0
  -27.5370   -0.6187   31.0883 C   0  0  0  0  0  0  0  0  0  0  0  0
  -26.3844    0.1834   30.8013 C   0  0  0  0  0  0  0  0  0  0  0  0
  -29.6227   -1.6698   30.2973 C   0  0  0  0  0  0  0  0  0  0  0  0
  -29.5721   -2.7556   30.5828 O   0  0  0  0  0  0  0  0  0  0  0  0
  -30.8059   -1.0509   30.2630 O   0  0  0  0  0  0  0  0  0  0  0  0
  -24.8652    1.3047   29.1015 C   0  0  0  0  0  0  0  0  0  0  0  0
  -24.0315    0.9773   28.0699 C   0  0  0  0  0  0  0  0  0  0  0  0
  -22.7806    1.6515   27.8773 C   0  0  0  0  0  0  0  0  0  0  0  0
  -24.0820    1.5932   30.3556 C   0  0  0  0  0  0  0  0  0  0  0  0
  -22.8161    2.2712   30.2037 C   0  0  0  0  0  0  0  0  0  0  0  0
  -22.1641    2.2585   28.9904 C   0  0  0  0  0  0  0  0  0  0  0  0
  -25.3980    2.6343   28.6909 C   0  0  0  0  0  0  0  0  0  0  0  0
  -25.9609    3.5220   29.6036 C   0  0  0  0  0  0  0  0  0  0  0  0
  -26.5326    4.7571   29.1811 C   0  0  0  0  0  0  0  0  0  0  0  0
  -25.4145    3.0964   27.3839 C   0  0  0  0  0  0  0  0  0  0  0  0
  -25.9894    4.3311   26.9714 C   0  0  0  0  0  0  0  0  0  0  0  0
  -27.1765    5.6594   30.1810 C   0  0  0  0  0  0  0  0  0  0  0  0
  -26.4776    5.1550   27.8860 C   0  0  0  0  0  0  0  0  0  0  0  0
  -27.3125    5.3415   31.2950 O   0  0  0  0  0  0  0  0  0  0  0  0
  -27.5630    6.8734   29.7653 N   0  0  0  0  0  0  0  0  0  0  0  0
  -28.2272    7.7840   30.7005 C   0  0  0  0  0  0  0  0  0  0  0  0
  -28.1917    8.8205   30.6802 C   0  0  0  0  0  0  0  0  0  0  0  0
  -28.7743    9.7466   31.7028 C   0  0  0  0  0  0  0  0  0  0  0  0
  -29.5352    9.0971   32.6999 C   0  0  0  0  0  0  0  0  0  0  0  0
  -29.5392    7.7151   32.6749 C   0  0  0  0  0  0  0  0  0  0  0  0
  -28.8561    6.9935   31.7378 C   0  0  0  0  0  0  0  0  0  0  0  0
  2  7  1  0
  7  8  2  0
  7  9  1  0
  4 10  1  0
 10 11  1  0
 10 13  1  0
 12 15  1  0
 14 15  1  0
 10 16  1  0
 18 21  1  0
 21 23  2  0
 21 24  1  0
 24 25  1  0
 11 12  1  0
 14 13  1  0
 16 17  2  0
 17 18  1  0
 18 22  2  0
 22 20  1  0
 20 19  2  0
 19 16  1  0
  1  2  2  0
  2  5  1  0
  5  6  2  0
  6  4  1  0
  4  3  2  0
  3  1  1  0
 25 26  2  0
 26 27  1  0
 27 28  2  0
 28 29  1  0
 29 30  2  0
 30 25  1  0
M  END

$$$$
