No_1451-gen_results/8p0m/2024-11-26-14-13-15/
     RDKit          3D

 34 37  0  0  0  0  0  0  0  0999 V2000
  -28.0162   -0.8135   28.8779 C   0  0  0  0  0  0  0  0  0  0  0  0
  -28.4690   -0.7850   29.8287 C   0  0  0  0  0  0  0  0  0  0  0  0
  -26.5455   -0.8762   28.8500 C   0  0  0  0  0  0  0  0  0  0  0  0
  -25.8041   -1.0324   30.0571 C   0  0  0  0  0  0  0  0  0  0  0  0
  -30.0055   -0.7457   29.8978 C   0  0  0  0  0  0  0  0  0  0  0  0
  -26.5747   -1.0565   31.2005 C   0  0  0  0  0  0  0  0  0  0  0  0
  -27.9251   -0.9738   31.1683 C   0  0  0  0  0  0  0  0  0  0  0  0
  -30.7095   -1.5277   30.1699 O   0  0  0  0  0  0  0  0  0  0  0  0
  -30.4999    0.5121   29.4153 N   0  0  0  0  0  0  0  0  0  0  0  0
  -31.8999    0.6986   29.2739 C   0  0  0  0  0  0  0  0  0  0  0  0
  -29.6449    1.6340   29.0642 C   0  0  0  0  0  0  0  0  0  0  0  0
  -29.7363    2.6868   30.0306 C   0  0  0  0  0  0  0  0  0  0  0  0
  -29.1961    3.5789   30.0621 C   0  0  0  0  0  0  0  0  0  0  0  0
  -29.2353    4.6646   31.1581 C   0  0  0  0  0  0  0  0  0  0  0  0
  -30.1991    4.4274   32.1282 C   0  0  0  0  0  0  0  0  0  0  0  0
  -30.9269    3.2728   32.0769 C   0  0  0  0  0  0  0  0  0  0  0  0
  -30.6977    2.3571   31.1335 C   0  0  0  0  0  0  0  0  0  0  0  0
  -25.7122   -0.7750   27.5978 C   0  0  0  0  0  0  0  0  0  0  0  0
  -25.2924    0.6047   27.2709 C   0  0  0  0  0  0  0  0  0  0  0  0
  -24.0494    0.9356   27.7139 C   0  0  0  0  0  0  0  0  0  0  0  0
  -23.4391    2.1141   27.1904 C   0  0  0  0  0  0  0  0  0  0  0  0
  -26.0922    1.5371   26.6457 C   0  0  0  0  0  0  0  0  0  0  0  0
  -25.6299    2.7514   26.2516 C   0  0  0  0  0  0  0  0  0  0  0  0
  -24.2379    3.0964   26.5538 C   0  0  0  0  0  0  0  0  0  0  0  0
  -32.2490    0.9624   27.9763 C   0  0  0  0  0  0  0  0  0  0  0  0
  -33.4608    1.3343   27.7741 C   0  0  0  0  0  0  0  0  0  0  0  0
  -33.8741    1.6751   26.4417 C   0  0  0  0  0  0  0  0  0  0  0  0
  -32.9496    1.5132   25.3796 C   0  0  0  0  0  0  0  0  0  0  0  0
  -31.6742    1.0884   25.6361 C   0  0  0  0  0  0  0  0  0  0  0  0
  -31.3080    0.8280   26.9012 C   0  0  0  0  0  0  0  0  0  0  0  0
  -28.0807    4.0504   29.0789 C   0  0  0  0  0  0  0  0  0  0  0  0
  -28.2896    4.2888   27.9875 C   0  0  0  0  0  0  0  0  0  0  0  0
  -26.6748    3.9160   29.5787 C   0  0  0  0  0  0  0  0  0  0  0  0
  -26.0756    4.7798   30.2109 C   0  0  0  0  0  0  0  0  0  0  0  0
  2  5  1  0
  5  8  2  0
  5  9  1  0
  9 10  1  0
  9 11  1  0
 11 12  1  0
  3 18  1  0
 18 19  1  0
 10 25  1  0
 13 31  1  0
 31 32  1  0
 31 33  1  0
 33 34  2  0
 12 13  2  0
 13 14  1  0
 14 15  2  0
 15 16  1  0
 16 17  2  0
 17 12  1  0
 19 20  2  0
 20 21  1  0
 21 24  2  0
 24 23  1  0
 23 22  2  0
 22 19  1  0
 25 26  2  0
 26 27  1  0
 27 28  2  0
 28 29  1  0
 29 30  2  0
 30 25  1  0
  1  2  2  0
  2  7  1  0
  7  6  2  0
  6  4  1  0
  4  3  2  0
  3  1  1  0
M  END

$$$$
