No_1405-gen_results/8p0m/2024-11-26-14-13-15/
     RDKit          3D

 25 27  0  0  0  0  0  0  0  0999 V2000
  -28.1229   -1.3353   28.4874 O   0  0  0  0  0  0  0  0  0  0  0  0
  -27.4806   -0.4044   28.7094 C   0  0  0  0  0  0  0  0  0  0  0  0
  -26.3804   -0.0867   27.9394 C   0  0  0  0  0  0  0  0  0  0  0  0
  -27.8993    0.6459   29.6320 N   0  0  0  0  0  0  0  0  0  0  0  0
  -26.3190    0.9178   27.1016 C   0  0  0  0  0  0  0  0  0  0  0  0
  -25.1519   -0.8370   28.1792 C   0  0  0  0  0  0  0  0  0  0  0  0
  -25.1266    1.1744   26.2946 C   0  0  0  0  0  0  0  0  0  0  0  0
  -23.8823   -0.4760   27.5957 C   0  0  0  0  0  0  0  0  0  0  0  0
  -23.9475    0.5684   26.6281 C   0  0  0  0  0  0  0  0  0  0  0  0
  -29.0765    0.3913   30.4223 C   0  0  0  0  0  0  0  0  0  0  0  0
  -27.1034    1.7507   29.9171 C   0  0  0  0  0  0  0  0  0  0  0  0
  -27.5727    2.8739   29.4590 C   0  0  0  0  0  0  0  0  0  0  0  0
  -26.5992    3.8486   29.2979 C   0  0  0  0  0  0  0  0  0  0  0  0
  -25.2049    3.6441   29.6451 C   0  0  0  0  0  0  0  0  0  0  0  0
  -24.8036    2.3589   30.0245 C   0  0  0  0  0  0  0  0  0  0  0  0
  -25.7750    1.3823   30.1960 C   0  0  0  0  0  0  0  0  0  0  0  0
  -26.8610    5.2778   28.8191 C   0  0  0  0  0  0  0  0  0  0  0  0
  -28.9699    0.1009   31.6686 C   0  0  0  0  0  0  0  0  0  0  0  0
  -27.9905    0.4900   32.4258 C   0  0  0  0  0  0  0  0  0  0  0  0
  -27.5421    0.3565   33.4945 C   0  0  0  0  0  0  0  0  0  0  0  0
  -26.3775    0.9037   34.2247 C   0  0  0  0  0  0  0  0  0  0  0  0
  -25.5882    1.8083   33.4557 C   0  0  0  0  0  0  0  0  0  0  0  0
  -26.0851    2.3473   32.2759 C   0  0  0  0  0  0  0  0  0  0  0  0
  -27.3312    1.7843   31.8452 C   0  0  0  0  0  0  0  0  0  0  0  0
  -28.4764    2.9754   31.9495 C   0  0  0  0  0  0  0  0  0  0  0  0
  1  2  2  0
  2  3  1  0
  2  4  1  0
  4 10  1  0
  4 11  1  0
 13 17  1  0
 10 18  1  0
 18 19  1  0
 24 25  1  0
 11 12  2  0
 12 13  1  0
 13 14  2  0
 14 15  1  0
 15 16  2  0
 16 11  1  0
 19 20  2  0
 20 21  1  0
 21 22  2  0
 22 23  1  0
 23 24  2  0
 24 19  1  0
  3  5  2  0
  5  7  1  0
  7  9  2  0
  9  8  1  0
  8  6  2  0
  6  3  1  0
M  END

$$$$
