No_1013-gen_results/8p0m/2024-11-26-14-13-15/
     RDKit          3D

 14 14  0  0  0  0  0  0  0  0999 V2000
  -28.1229   -1.3353   28.4874 O   0  0  0  0  0  0  0  0  0  0  0  0
  -28.5208   -0.4363   29.0779 C   0  0  0  0  0  0  0  0  0  0  0  0
  -29.6218   -0.0586   29.1075 O   0  0  0  0  0  0  0  0  0  0  0  0
  -27.6251    0.0389   30.1149 N   0  0  0  0  0  0  0  0  0  0  0  0
  -26.6575    0.4270   30.1077 C   0  0  0  0  0  0  0  0  0  0  0  0
  -26.1417    1.2558   29.1703 C   0  0  0  0  0  0  0  0  0  0  0  0
  -24.7313    1.6252   29.0733 C   0  0  0  0  0  0  0  0  0  0  0  0
  -23.8499    1.0847   30.0613 C   0  0  0  0  0  0  0  0  0  0  0  0
  -24.3111    0.2267   31.0413 C   0  0  0  0  0  0  0  0  0  0  0  0
  -25.6283   -0.1259   31.0647 C   0  0  0  0  0  0  0  0  0  0  0  0
  -24.1902    2.5669   28.1037 C   0  0  0  0  0  0  0  0  0  0  0  0
  -24.5901    3.7231   28.2115 F   0  0  0  0  0  0  0  0  0  0  0  0
  -22.8130    2.6210   28.1620 F   0  0  0  0  0  0  0  0  0  0  0  0
  -24.4835    2.1135   26.8777 F   0  0  0  0  0  0  0  0  0  0  0  0
  1  2  2  0
  2  3  1  0
  2  4  1  0
  7 11  1  0
 11 12  1  0
 11 13  1  0
 11 14  1  0
  4  5  1  0
  5  6  2  0
  6  7  1  0
  7  8  2  0
  8  9  1  0
  9 10  2  0
 10  5  1  0
M  END

$$$$
