No_1581-gen_results/8p0m/2024-11-26-14-13-15/
     RDKit          3D

 26 29  0  0  0  0  0  0  0  0999 V2000
  -28.0162   -0.8135   28.8779 C   0  0  0  0  0  0  0  0  0  0  0  0
  -27.0636   -0.1189   28.6079 C   0  0  0  0  0  0  0  0  0  0  0  0
  -25.7923   -0.4302   29.0761 C   0  0  0  0  0  0  0  0  0  0  0  0
  -25.5756   -1.5654   29.9363 C   0  0  0  0  0  0  0  0  0  0  0  0
  -26.7354   -2.3004   30.2173 C   0  0  0  0  0  0  0  0  0  0  0  0
  -27.9184   -1.9537   29.7629 C   0  0  0  0  0  0  0  0  0  0  0  0
  -29.0001   -2.7012   30.1151 O   0  0  0  0  0  0  0  0  0  0  0  0
  -24.5290    0.3490   28.7998 C   0  0  0  0  0  0  0  0  0  0  0  0
  -23.3442    0.0060   29.1658 C   0  0  0  0  0  0  0  0  0  0  0  0
  -22.1783    0.7811   28.7783 C   0  0  0  0  0  0  0  0  0  0  0  0
  -22.3218    1.7499   27.7727 C   0  0  0  0  0  0  0  0  0  0  0  0
  -24.6102    1.3558   27.7479 C   0  0  0  0  0  0  0  0  0  0  0  0
  -23.5148    2.0341   27.3068 C   0  0  0  0  0  0  0  0  0  0  0  0
  -29.3590   -2.8169   31.4427 C   0  0  0  0  0  0  0  0  0  0  0  0
  -29.9217   -1.7844   31.9970 C   0  0  0  0  0  0  0  0  0  0  0  0
  -29.9213   -1.7262   33.2780 C   0  0  0  0  0  0  0  0  0  0  0  0
  -30.2143   -0.4796   34.0401 C   0  0  0  0  0  0  0  0  0  0  0  0
  -30.7326    0.5966   33.2785 C   0  0  0  0  0  0  0  0  0  0  0  0
  -30.7147    0.4998   31.9040 C   0  0  0  0  0  0  0  0  0  0  0  0
  -30.2199   -0.6462   31.2592 C   0  0  0  0  0  0  0  0  0  0  0  0
  -30.2569   -4.1055   31.5741 C   0  0  0  0  0  0  0  0  0  0  0  0
  -31.1602   -4.3036   30.7899 C   0  0  0  0  0  0  0  0  0  0  0  0
  -31.9148   -5.4273   30.9268 C   0  0  0  0  0  0  0  0  0  0  0  0
  -31.5395   -6.4198   31.8593 C   0  0  0  0  0  0  0  0  0  0  0  0
  -29.9058   -5.1745   32.5679 C   0  0  0  0  0  0  0  0  0  0  0  0
  -30.5255   -6.2476   32.7130 C   0  0  0  0  0  0  0  0  0  0  0  0
  6  7  1  0
  3  8  1  0
  7 14  1  0
 14 15  1  0
 14 21  1  0
 15 16  2  0
 16 17  1  0
 17 18  2  0
 18 19  1  0
 19 20  2  0
 20 15  1  0
  1  2  2  0
  2  3  1  0
  3  4  2  0
  4  5  1  0
  5  6  2  0
  6  1  1  0
 21 22  2  0
 22 23  1  0
 23 24  2  0
 24 26  1  0
 26 25  2  0
 25 21  1  0
  8  9  2  0
  9 10  1  0
 10 11  2  0
 11 13  1  0
 13 12  2  0
 12  8  1  0
M  END

$$$$
