No_1504-gen_results/8p0m/2024-11-26-14-13-15/
     RDKit          3D

 16 16  0  0  0  0  0  0  0  0999 V2000
  -27.9505   -0.5786   29.0402 P   0  0  0  0  0  0  0  0  0  0  0  0
  -27.2401    0.0613   28.4283 O   0  0  0  0  0  0  0  0  0  0  0  0
  -27.2444   -1.9817   29.3768 O   0  0  0  0  0  0  0  0  0  0  0  0
  -28.1843   -0.0275   30.5202 O   0  0  0  0  0  0  0  0  0  0  0  0
  -29.3836   -0.9386   28.6565 O   0  0  0  0  0  0  0  0  0  0  0  0
  -25.9466    0.3168   28.6079 C   0  0  0  0  0  0  0  0  0  0  0  0
  -25.1417    0.7461   27.5755 C   0  0  0  0  0  0  0  0  0  0  0  0
  -23.7727    0.8311   27.8629 C   0  0  0  0  0  0  0  0  0  0  0  0
  -23.1181   -0.0116   28.7971 C   0  0  0  0  0  0  0  0  0  0  0  0
  -23.9323   -0.7070   29.7392 C   0  0  0  0  0  0  0  0  0  0  0  0
  -25.2922   -0.5901   29.5880 C   0  0  0  0  0  0  0  0  0  0  0  0
  -21.6569    0.0838   28.9586 C   0  0  0  0  0  0  0  0  0  0  0  0
  -21.1317   -0.8433   29.6170 F   0  0  0  0  0  0  0  0  0  0  0  0
  -21.0507    0.0869   27.7048 F   0  0  0  0  0  0  0  0  0  0  0  0
  -21.3623    1.2929   29.4667 F   0  0  0  0  0  0  0  0  0  0  0  0
  -25.6295   -0.4234   30.9506 O   0  0  0  0  0  0  0  0  0  0  0  0
  1  2  1  0
  1  3  1  0
  1  4  1  0
  1  5  2  0
  2  6  1  0
  9 12  1  0
 12 13  1  0
 12 14  1  0
 12 15  1  0
 11 16  1  0
  6  7  2  0
  7  8  1  0
  8  9  2  0
  9 10  1  0
 10 11  2  0
 11  6  1  0
M  END

$$$$
