No_1654-gen_results/8p0m/2024-11-26-14-13-15/
     RDKit          3D

 13 14  0  0  0  0  0  0  0  0999 V2000
  -28.0162   -0.8135   28.8779 C   0  0  0  0  0  0  0  0  0  0  0  0
  -28.4690   -0.7850   29.8287 C   0  0  0  0  0  0  0  0  0  0  0  0
  -27.0871    0.2903   28.6377 C   0  0  0  0  0  0  0  0  0  0  0  0
  -26.7676    1.0274   29.4716 C   0  0  0  0  0  0  0  0  0  0  0  0
  -28.2764    0.0268   31.0145 C   0  0  0  0  0  0  0  0  0  0  0  0
  -27.3287    1.0538   30.7535 C   0  0  0  0  0  0  0  0  0  0  0  0
  -25.7516    2.1742   29.2500 C   0  0  0  0  0  0  0  0  0  0  0  0
  -25.3424    2.8864   29.9134 C   0  0  0  0  0  0  0  0  0  0  0  0
  -25.2436    2.1589   27.8082 C   0  0  0  0  0  0  0  0  0  0  0  0
  -24.1809    2.9542   27.4277 C   0  0  0  0  0  0  0  0  0  0  0  0
  -24.2743    3.9785   29.6727 C   0  0  0  0  0  0  0  0  0  0  0  0
  -23.7285    3.9094   28.4134 C   0  0  0  0  0  0  0  0  0  0  0  0
  -26.4850    0.2041   27.3491 F   0  0  0  0  0  0  0  0  0  0  0  0
  4  7  1  0
  3 13  1  0
  7  8  2  0
  8 11  1  0
 11 12  2  0
 12 10  1  0
 10  9  2  0
  9  7  1  0
  1  2  2  0
  2  5  1  0
  5  6  2  0
  6  4  1  0
  4  3  2  0
  3  1  1  0
M  END

$$$$
