No_1924-gen_results/8p0m/2024-11-26-14-13-15/
     RDKit          3D

 19 20  0  0  0  0  0  0  0  0999 V2000
  -28.0162   -0.8135   28.8779 C   0  0  0  0  0  0  0  0  0  0  0  0
  -28.4690   -0.7850   29.8287 C   0  0  0  0  0  0  0  0  0  0  0  0
  -28.1960    0.3478   28.0550 C   0  0  0  0  0  0  0  0  0  0  0  0
  -27.4421    0.5100   26.7946 C   0  0  0  0  0  0  0  0  0  0  0  0
  -26.1689   -0.0794   26.6787 C   0  0  0  0  0  0  0  0  0  0  0  0
  -25.7312   -0.9607   27.6875 C   0  0  0  0  0  0  0  0  0  0  0  0
  -26.5043   -1.2222   28.7582 C   0  0  0  0  0  0  0  0  0  0  0  0
  -29.6530   -0.2892   30.1660 C   0  0  0  0  0  0  0  0  0  0  0  0
  -30.0958    0.7019   29.2325 C   0  0  0  0  0  0  0  0  0  0  0  0
  -29.3946    1.0067   28.0841 C   0  0  0  0  0  0  0  0  0  0  0  0
  -25.9323   -2.2672   29.7020 C   0  0  0  0  0  0  0  0  0  0  0  0
  -26.8364   -2.8783   30.1975 F   0  0  0  0  0  0  0  0  0  0  0  0
  -25.2596   -1.6206   30.6811 F   0  0  0  0  0  0  0  0  0  0  0  0
  -24.9674   -2.9783   29.1237 F   0  0  0  0  0  0  0  0  0  0  0  0
  -29.8181    1.8597   27.2485 O   0  0  0  0  0  0  0  0  0  0  0  0
  -25.3019    0.1793   25.5512 C   0  0  0  0  0  0  0  0  0  0  0  0
  -25.3484    1.3105   25.2362 F   0  0  0  0  0  0  0  0  0  0  0  0
  -23.9995    0.0043   25.9631 F   0  0  0  0  0  0  0  0  0  0  0  0
  -25.5764   -0.6655   24.5696 F   0  0  0  0  0  0  0  0  0  0  0  0
  2  8  1  0
  3 10  1  0
  9 10  1  0
  7 11  1  0
 11 12  1  0
 11 13  1  0
 11 14  1  0
 10 15  2  0
  5 16  1  0
 16 17  1  0
 16 18  1  0
 16 19  1  0
  1  2  1  0
  8  9  1  0
  1  3  2  0
  3  4  1  0
  4  5  2  0
  5  6  1  0
  6  7  2  0
  7  1  1  0
M  END

$$$$
