No_1858-gen_results/8p0m/2024-11-26-14-13-15/
     RDKit          3D

 19 19  0  0  0  0  0  0  0  0999 V2000
  -28.0162   -0.8135   28.8779 C   0  0  0  0  0  0  0  0  0  0  0  0
  -27.0636   -0.1189   28.6079 C   0  0  0  0  0  0  0  0  0  0  0  0
  -25.7923   -0.4302   29.0761 C   0  0  0  0  0  0  0  0  0  0  0  0
  -24.5456    0.3494   28.8225 C   0  0  0  0  0  0  0  0  0  0  0  0
  -24.6586    1.4196   27.8878 C   0  0  0  0  0  0  0  0  0  0  0  0
  -25.9471    1.6811   27.3792 C   0  0  0  0  0  0  0  0  0  0  0  0
  -27.0439    0.9739   27.6871 C   0  0  0  0  0  0  0  0  0  0  0  0
  -29.1797   -0.1202   29.1288 N   0  0  0  0  0  0  0  0  0  0  0  0
  -29.5842    0.1318   30.4036 C   0  0  0  0  0  0  0  0  0  0  0  0
  -30.0536    0.0965   28.0536 C   0  0  0  0  0  0  0  0  0  0  0  0
  -23.4618    2.1735   27.6266 C   0  0  0  0  0  0  0  0  0  0  0  0
  -23.4788    3.1475   26.9110 O   0  0  0  0  0  0  0  0  0  0  0  0
  -22.2656    1.7112   27.9893 O   0  0  0  0  0  0  0  0  0  0  0  0
  -31.3887   -0.1987   28.2872 C   0  0  0  0  0  0  0  0  0  0  0  0
  -32.2319    0.3362   27.4959 C   0  0  0  0  0  0  0  0  0  0  0  0
  -33.5968    0.2287   27.7129 C   0  0  0  0  0  0  0  0  0  0  0  0
  -34.5491    0.7491   26.8275 C   0  0  0  0  0  0  0  0  0  0  0  0
  -34.0985    1.4155   25.6771 C   0  0  0  0  0  0  0  0  0  0  0  0
  -32.7760    1.5300   25.3854 C   0  0  0  0  0  0  0  0  0  0  0  0
  1  2  1  0
  1  8  1  0
  8  9  1  0
  8 10  1  0
  5 11  1  0
 11 12  2  0
 11 13  1  0
 10 14  1  0
 14 15  2  3
 15 16  1  0
 16 17  2  3
 17 18  1  0
 18 19  2  0
  2  3  2  0
  3  4  1  0
  4  5  2  0
  5  6  1  0
  6  7  2  0
  7  2  1  0
M  END

$$$$
