No_1848-gen_results/8p0m/2024-11-26-14-13-15/
     RDKit          3D

 24 26  0  0  0  0  0  0  0  0999 V2000
  -28.0727   -1.2542   28.5316 F   0  0  0  0  0  0  0  0  0  0  0  0
  -27.0607   -0.6291   28.8721 C   0  0  0  0  0  0  0  0  0  0  0  0
  -26.1528   -1.1557   29.4537 C   0  0  0  0  0  0  0  0  0  0  0  0
  -24.8777   -0.5788   29.8639 C   0  0  0  0  0  0  0  0  0  0  0  0
  -24.7426    0.8273   29.4808 C   0  0  0  0  0  0  0  0  0  0  0  0
  -25.7883    1.3927   28.7628 C   0  0  0  0  0  0  0  0  0  0  0  0
  -26.9145    0.7309   28.4427 C   0  0  0  0  0  0  0  0  0  0  0  0
  -25.5328    2.8344   28.3724 C   0  0  0  0  0  0  0  0  0  0  0  0
  -24.6470    3.1765   27.4146 N   0  0  0  0  0  0  0  0  0  0  0  0
  -26.2507    3.9270   28.9558 C   0  0  0  0  0  0  0  0  0  0  0  0
  -27.1329    3.7884   30.0534 C   0  0  0  0  0  0  0  0  0  0  0  0
  -26.8363    3.2793   31.0531 C   0  0  0  0  0  0  0  0  0  0  0  0
  -25.6318    3.6158   31.7636 C   0  0  0  0  0  0  0  0  0  0  0  0
  -25.2601    3.0313   33.0550 C   0  0  0  0  0  0  0  0  0  0  0  0
  -26.0550    1.8953   33.4190 C   0  0  0  0  0  0  0  0  0  0  0  0
  -27.5421    2.2033   31.8157 C   0  0  0  0  0  0  0  0  0  0  0  0
  -27.1686    1.5827   32.9289 C   0  0  0  0  0  0  0  0  0  0  0  0
  -25.8566    5.2081   28.4107 C   0  0  0  0  0  0  0  0  0  0  0  0
  -24.4469    3.1874   26.2818 C   0  0  0  0  0  0  0  0  0  0  0  0
  -27.7298    5.2262   30.1768 C   0  0  0  0  0  0  0  0  0  0  0  0
  -26.3288    6.1135   28.4777 C   0  0  0  0  0  0  0  0  0  0  0  0
  -27.4291    6.3369   29.4492 C   0  0  0  0  0  0  0  0  0  0  0  0
  -28.3890    3.1093   29.3050 C   0  0  0  0  0  0  0  0  0  0  0  0
  -29.6410    3.3070   30.0081 C   0  0  0  0  0  0  0  0  0  0  0  0
  1  2  1  0
  6  8  1  0
  8  9  1  0
  8 10  1  0
 10 11  1  0
 11 12  1  0
 10 18  1  0
  9 19  1  0
 11 20  1  0
 21 22  1  0
 11 23  1  0
 23 24  1  0
 18 21  1  0
 22 20  1  0
 12 13  2  0
 13 14  1  0
 14 15  2  0
 15 17  1  0
 17 16  2  0
 16 12  1  0
  2  3  2  0
  3  4  1  0
  4  5  2  0
  5  6  1  0
  6  7  2  0
  7  2  1  0
M  END

$$$$
