No_1552-gen_results/8p0m/2024-11-26-14-13-15/
     RDKit          3D

 15 16  0  0  0  0  0  0  0  0999 V2000
  -28.0162   -0.8135   28.8779 C   0  0  0  0  0  0  0  0  0  0  0  0
  -28.4690   -0.7850   29.8287 C   0  0  0  0  0  0  0  0  0  0  0  0
  -28.1960    0.3478   28.0550 C   0  0  0  0  0  0  0  0  0  0  0  0
  -29.0191    1.3501   28.3782 C   0  0  0  0  0  0  0  0  0  0  0  0
  -29.4107    0.1803   30.3782 C   0  0  0  0  0  0  0  0  0  0  0  0
  -29.6059    1.2495   29.6193 C   0  0  0  0  0  0  0  0  0  0  0  0
  -27.5426    0.5225   26.6829 C   0  0  0  0  0  0  0  0  0  0  0  0
  -28.1445    0.4578   25.5334 C   0  0  0  0  0  0  0  0  0  0  0  0
  -27.3996    0.4571   24.3391 C   0  0  0  0  0  0  0  0  0  0  0  0
  -26.0998    0.4967   26.6952 C   0  0  0  0  0  0  0  0  0  0  0  0
  -25.2864    0.5111   27.9633 C   0  0  0  0  0  0  0  0  0  0  0  0
  -23.9176    0.6212   27.9027 C   0  0  0  0  0  0  0  0  0  0  0  0
  -23.3657    1.2299   26.7206 C   0  0  0  0  0  0  0  0  0  0  0  0
  -24.1563    1.4420   25.6106 C   0  0  0  0  0  0  0  0  0  0  0  0
  -25.4976    1.1534   25.5976 C   0  0  0  0  0  0  0  0  0  0  0  0
  3  7  1  0
  7  8  2  3
  8  9  1  0
  7 10  1  0
  1  2  2  0
  2  5  1  0
  5  6  2  0
  6  4  1  0
  4  3  2  0
  3  1  1  0
 10 11  2  0
 11 12  1  0
 12 13  2  0
 13 14  1  0
 14 15  2  0
 15 10  1  0
M  END

$$$$
