No_1719-gen_results/8p0m/2024-11-26-14-13-15/
     RDKit          3D

 14 14  0  0  0  0  0  0  0  0999 V2000
  -28.0162   -0.8135   28.8779 C   0  0  0  0  0  0  0  0  0  0  0  0
  -27.0636   -0.1189   28.6079 C   0  0  0  0  0  0  0  0  0  0  0  0
  -25.7647   -0.3897   29.0360 C   0  0  0  0  0  0  0  0  0  0  0  0
  -24.5516    0.4058   28.7646 C   0  0  0  0  0  0  0  0  0  0  0  0
  -24.6957    1.4480   27.7988 C   0  0  0  0  0  0  0  0  0  0  0  0
  -25.9755    1.7250   27.3077 C   0  0  0  0  0  0  0  0  0  0  0  0
  -27.0718    1.0134   27.6535 C   0  0  0  0  0  0  0  0  0  0  0  0
  -27.9852   -1.5947   30.1522 C   0  0  0  0  0  0  0  0  0  0  0  0
  -29.1232   -2.2582   30.6032 C   0  0  0  0  0  0  0  0  0  0  0  0
  -23.4854    2.2046   27.4988 C   0  0  0  0  0  0  0  0  0  0  0  0
  -23.5698    3.1998   26.8094 O   0  0  0  0  0  0  0  0  0  0  0  0
  -22.2818    1.7502   27.8248 O   0  0  0  0  0  0  0  0  0  0  0  0
  -30.2960   -1.7208   30.2177 C   0  0  0  0  0  0  0  0  0  0  0  0
  -30.4088   -0.8437   29.1836 C   0  0  0  0  0  0  0  0  0  0  0  0
  1  2  2  3
  2  3  1  0
  3  4  1  0
  4  5  1  0
  5  6  1  0
  2  7  1  0
  6  7  1  0
  1  8  1  0
  8  9  2  3
  5 10  1  0
 10 11  2  0
 10 12  1  0
  9 13  1  0
 13 14  2  0
M  END

$$$$
