No_187-gen_results/8p0m/2024-11-26-14-13-15/
     RDKit          3D

 20 21  0  0  0  0  0  0  0  0999 V2000
  -28.0162   -0.8135   28.8779 C   0  0  0  0  0  0  0  0  0  0  0  0
  -28.4690   -0.7850   29.8287 C   0  0  0  0  0  0  0  0  0  0  0  0
  -26.5455   -0.8762   28.8500 C   0  0  0  0  0  0  0  0  0  0  0  0
  -25.8041   -1.0324   30.0571 C   0  0  0  0  0  0  0  0  0  0  0  0
  -27.9437   -0.9869   31.2075 C   0  0  0  0  0  0  0  0  0  0  0  0
  -26.5825   -1.0386   31.2231 C   0  0  0  0  0  0  0  0  0  0  0  0
  -29.9086   -0.7397   29.8642 F   0  0  0  0  0  0  0  0  0  0  0  0
  -24.3767   -1.0979   30.0689 C   0  0  0  0  0  0  0  0  0  0  0  0
  -23.5963   -0.5404   29.1043 C   0  0  0  0  0  0  0  0  0  0  0  0
  -22.1621   -0.5679   29.2463 C   0  0  0  0  0  0  0  0  0  0  0  0
  -21.3799    0.0763   28.2686 C   0  0  0  0  0  0  0  0  0  0  0  0
  -21.9461    1.0928   27.4633 C   0  0  0  0  0  0  0  0  0  0  0  0
  -23.3164    1.3275   27.4918 C   0  0  0  0  0  0  0  0  0  0  0  0
  -24.1273    0.5991   28.3740 C   0  0  0  0  0  0  0  0  0  0  0  0
  -23.8411    2.3959   26.6342 C   0  0  0  0  0  0  0  0  0  0  0  0
  -23.4021    2.5133   25.6187 F   0  0  0  0  0  0  0  0  0  0  0  0
  -23.7592    3.6435   27.3770 F   0  0  0  0  0  0  0  0  0  0  0  0
  -25.2481    2.2097   26.5170 F   0  0  0  0  0  0  0  0  0  0  0  0
  -24.0410   -2.6182   30.1355 C   0  0  0  0  0  0  0  0  0  0  0  0
  -23.9879   -0.5681   31.5725 C   0  0  0  0  0  0  0  0  0  0  0  0
  2  7  1  0
  4  8  1  0
  8  9  1  0
 13 15  1  0
 15 16  1  0
 15 17  1  0
 15 18  1  0
  8 19  1  0
  8 20  1  0
  9 10  2  0
 10 11  1  0
 11 12  2  0
 12 13  1  0
 13 14  2  0
 14  9  1  0
  1  2  2  0
  2  5  1  0
  5  6  2  0
  6  4  1  0
  4  3  2  0
  3  1  1  0
M  END

$$$$
