No_1070-gen_results/8p0m/2024-11-26-14-13-15/
     RDKit          3D

 21 24  0  0  0  0  0  0  0  0999 V2000
  -28.0162   -0.8135   28.8779 C   0  0  0  0  0  0  0  0  0  0  0  0
  -27.0636   -0.1189   28.6079 C   0  0  0  0  0  0  0  0  0  0  0  0
  -26.9716    0.7139   27.5060 C   0  0  0  0  0  0  0  0  0  0  0  0
  -28.1053    0.7744   26.6421 C   0  0  0  0  0  0  0  0  0  0  0  0
  -29.2041    0.1179   27.0477 C   0  0  0  0  0  0  0  0  0  0  0  0
  -29.2127   -0.6088   28.1281 C   0  0  0  0  0  0  0  0  0  0  0  0
  -25.7106    1.4519   27.1380 C   0  0  0  0  0  0  0  0  0  0  0  0
  -24.6052    0.9253   27.6902 C   0  0  0  0  0  0  0  0  0  0  0  0
  -23.3087    1.6018   27.4923 C   0  0  0  0  0  0  0  0  0  0  0  0
  -23.2169    2.4959   26.4391 C   0  0  0  0  0  0  0  0  0  0  0  0
  -25.5553    2.4208   26.1832 C   0  0  0  0  0  0  0  0  0  0  0  0
  -24.3322    3.0724   25.9239 C   0  0  0  0  0  0  0  0  0  0  0  0
  -22.0936    1.0267   28.1293 C   0  0  0  0  0  0  0  0  0  0  0  0
  -22.2192   -0.1003   28.9895 C   0  0  0  0  0  0  0  0  0  0  0  0
  -23.4538   -0.7700   29.1290 C   0  0  0  0  0  0  0  0  0  0  0  0
  -24.5983   -0.2172   28.5324 C   0  0  0  0  0  0  0  0  0  0  0  0
  -25.7143   -0.5588   29.1665 C   0  0  0  0  0  0  0  0  0  0  0  0
  -25.8147   -1.3828   30.1454 O   0  0  0  0  0  0  0  0  0  0  0  0
  -30.4262    0.3366   26.2442 C   0  0  0  0  0  0  0  0  0  0  0  0
  -31.4275    0.5903   26.6456 O   0  0  0  0  0  0  0  0  0  0  0  0
  -30.2825    0.1487   24.9182 O   0  0  0  0  0  0  0  0  0  0  0  0
  3  7  1  0
  2 17  1  0
 16 17  1  0
 17 18  2  0
  5 19  1  0
 19 20  2  0
 19 21  1  0
  1  2  2  0
  2  3  1  0
  3  4  2  0
  4  5  1  0
  5  6  2  0
  6  1  1  0
  7 11  2  0
 11 12  1  0
 12 10  2  0
 10  9  1  0
  8  7  1  0
  8  9  2  0
  9 13  1  0
 13 14  2  0
 14 15  1  0
 15 16  2  0
 16  8  1  0
M  END

$$$$
