No_1578-gen_results/8p0m/2024-11-26-14-13-15/
     RDKit          3D

 13 14  0  0  0  0  0  0  0  0999 V2000
  -28.0162   -0.8135   28.8779 C   0  0  0  0  0  0  0  0  0  0  0  0
  -27.0636   -0.1189   28.6079 C   0  0  0  0  0  0  0  0  0  0  0  0
  -26.9716    0.7139   27.5060 C   0  0  0  0  0  0  0  0  0  0  0  0
  -25.8205    1.4910   27.1160 C   0  0  0  0  0  0  0  0  0  0  0  0
  -24.6562    1.4242   27.9180 C   0  0  0  0  0  0  0  0  0  0  0  0
  -24.6847    0.5901   29.0659 C   0  0  0  0  0  0  0  0  0  0  0  0
  -25.8099   -0.1265   29.3338 C   0  0  0  0  0  0  0  0  0  0  0  0
  -27.9680   -1.6901   30.0059 N   0  0  0  0  0  0  0  0  0  0  0  0
  -23.6340    2.3413   27.5272 C   0  0  0  0  0  0  0  0  0  0  0  0
  -23.6115    2.8352   26.3071 N   0  0  0  0  0  0  0  0  0  0  0  0
  -22.4697    2.3450   28.1574 O   0  0  0  0  0  0  0  0  0  0  0  0
  -26.7343   -2.0255   30.5613 C   0  0  0  0  0  0  0  0  0  0  0  0
  -25.6558   -1.2046   30.3420 C   0  0  0  0  0  0  0  0  0  0  0  0
  5  9  1  0
  9 10  1  0
  9 11  2  0
  2  3  1  0
  3  4  2  0
  4  5  1  0
  5  6  2  0
  6  7  1  0
  1  2  2  0
  2  7  1  0
  7 13  2  0
 13 12  1  0
 12  8  2  0
  8  1  1  0
M  END

$$$$
