No_1726-gen_results/8p0m/2024-11-26-14-13-15/
     RDKit          3D

  5  4  0  0  0  0  0  0  0  0999 V2000
  -28.1493   -0.8198   28.9079 Cl  0  0  0  0  0  0  0  0  0  0  0  0
  -26.9116   -0.0797   28.9452 C   0  0  0  0  0  0  0  0  0  0  0  0
  -25.9665   -0.2123   29.6235 C   0  0  0  0  0  0  0  0  0  0  0  0
  -25.7584   -1.3810   30.4150 C   0  0  0  0  0  0  0  0  0  0  0  0
  -26.9320   -2.2793   30.3894 C   0  0  0  0  0  0  0  0  0  0  0  0
  1  2  1  0
  2  3  1  0
  3  4  2  3
  4  5  1  0
M  END

$$$$
