No_151-gen_results/8p0m/2024-11-26-14-13-15/
     RDKit          3D

 13 14  0  0  0  0  0  0  0  0999 V2000
  -28.0162   -0.8135   28.8779 C   0  0  0  0  0  0  0  0  0  0  0  0
  -28.4690   -0.7850   29.8287 C   0  0  0  0  0  0  0  0  0  0  0  0
  -26.5042   -0.7777   28.8766 C   0  0  0  0  0  0  0  0  0  0  0  0
  -25.8103   -0.8531   30.1028 C   0  0  0  0  0  0  0  0  0  0  0  0
  -27.9906   -0.8916   31.2257 C   0  0  0  0  0  0  0  0  0  0  0  0
  -26.6042   -0.8676   31.2652 C   0  0  0  0  0  0  0  0  0  0  0  0
  -24.3894   -0.8049   30.1638 C   0  0  0  0  0  0  0  0  0  0  0  0
  -23.7660   -0.9500   31.0679 C   0  0  0  0  0  0  0  0  0  0  0  0
  -23.6669   -0.5949   28.8837 C   0  0  0  0  0  0  0  0  0  0  0  0
  -22.2646   -0.4068   28.9326 C   0  0  0  0  0  0  0  0  0  0  0  0
  -22.2701   -0.8431   31.2960 C   0  0  0  0  0  0  0  0  0  0  0  0
  -21.5958   -0.5414   30.1031 C   0  0  0  0  0  0  0  0  0  0  0  0
  -30.4354   -0.6405   29.6461 Br  0  0  0  0  0  0  0  0  0  0  0  0
  4  7  1  0
  2 13  1  0
  7  8  2  0
  8 11  1  0
 11 12  2  0
 12 10  1  0
 10  9  2  0
  9  7  1  0
  1  2  2  0
  2  5  1  0
  5  6  2  0
  6  4  1  0
  4  3  2  0
  3  1  1  0
M  END

$$$$
