No_121-gen_results/8p0m/2024-11-26-14-13-15/
     RDKit          3D

 33 37  0  0  0  0  0  0  0  0999 V2000
  -28.0162   -0.8135   28.8779 C   0  0  0  0  0  0  0  0  0  0  0  0
  -28.4690   -0.7850   29.8287 C   0  0  0  0  0  0  0  0  0  0  0  0
  -27.0871    0.2903   28.6377 C   0  0  0  0  0  0  0  0  0  0  0  0
  -26.8317    1.2487   29.5869 C   0  0  0  0  0  0  0  0  0  0  0  0
  -28.3914    0.0801   31.0065 C   0  0  0  0  0  0  0  0  0  0  0  0
  -27.4940    1.1521   30.7841 C   0  0  0  0  0  0  0  0  0  0  0  0
  -26.3172    0.3994   27.3653 C   0  0  0  0  0  0  0  0  0  0  0  0
  -24.9405    0.2550   27.5028 C   0  0  0  0  0  0  0  0  0  0  0  0
  -26.9129    0.5860   26.1397 C   0  0  0  0  0  0  0  0  0  0  0  0
  -28.2688    0.7168   25.9850 C   0  0  0  0  0  0  0  0  0  0  0  0
  -28.7657    0.7315   24.6860 C   0  0  0  0  0  0  0  0  0  0  0  0
  -30.1595    0.8701   24.4627 C   0  0  0  0  0  0  0  0  0  0  0  0
  -30.8294    1.0191   25.1944 C   0  0  0  0  0  0  0  0  0  0  0  0
  -30.5276    1.0618   26.6717 C   0  0  0  0  0  0  0  0  0  0  0  0
  -29.2536    0.9583   27.0098 C   0  0  0  0  0  0  0  0  0  0  0  0
  -26.0292    0.6796   25.0268 C   0  0  0  0  0  0  0  0  0  0  0  0
  -24.3540   -0.3517   28.6337 C   0  0  0  0  0  0  0  0  0  0  0  0
  -24.4537   -1.4623   28.9887 C   0  0  0  0  0  0  0  0  0  0  0  0
  -23.7462   -1.9776   30.1605 C   0  0  0  0  0  0  0  0  0  0  0  0
  -22.9374   -1.1413   30.9244 C   0  0  0  0  0  0  0  0  0  0  0  0
  -23.4711    0.6220   29.2791 C   0  0  0  0  0  0  0  0  0  0  0  0
  -22.7918    0.2055   30.4440 C   0  0  0  0  0  0  0  0  0  0  0  0
  -24.0920    0.5836   26.3908 C   0  0  0  0  0  0  0  0  0  0  0  0
  -24.6564    0.7376   25.1820 C   0  0  0  0  0  0  0  0  0  0  0  0
  -29.5520   -1.9522   30.2299 C   0  0  0  0  0  0  0  0  0  0  0  0
  -29.0917   -3.4375   30.2183 Cl  0  0  0  0  0  0  0  0  0  0  0  0
  -30.8788   -1.6692   30.3337 N   0  0  0  0  0  0  0  0  0  0  0  0
  -31.3662   -0.4935   30.3567 C   0  0  0  0  0  0  0  0  0  0  0  0
  -31.6207    0.2503   30.9864 C   0  0  0  0  0  0  0  0  0  0  0  0
  -32.3143    1.5573   30.8014 C   0  0  0  0  0  0  0  0  0  0  0  0
  -32.7655    1.7242   29.5008 C   0  0  0  0  0  0  0  0  0  0  0  0
  -32.8052    0.9420   28.7899 C   0  0  0  0  0  0  0  0  0  0  0  0
  -32.0186   -0.3165   28.8919 C   0  0  0  0  0  0  0  0  0  0  0  0
  3  7  1  0
  9 10  1  0
  8 17  1  0
  2 25  1  0
 25 26  1  0
 25 27  2  3
 27 28  1  0
 17 18  2  0
 18 19  1  0
 19 20  2  0
 20 22  1  0
 22 21  2  0
 21 17  1  0
  7  8  1  0
  8 23  2  0
 23 24  1  0
 24 16  2  0
 16  9  1  0
  9  7  2  0
 10 11  2  0
 11 12  1  0
 12 13  2  0
 13 14  1  0
 14 15  2  0
 15 10  1  0
 28 29  2  0
 29 30  1  0
 30 31  2  0
 31 32  1  0
 32 33  2  0
 33 28  1  0
  1  2  2  0
  2  5  1  0
  5  6  2  0
  6  4  1  0
  4  3  2  0
  3  1  1  0
M  END

$$$$
