No_1065-gen_results/8p0m/2024-11-26-14-13-15/
     RDKit          3D

 32 34  0  0  0  0  0  0  0  0999 V2000
  -28.0162   -0.8135   28.8779 C   0  0  0  0  0  0  0  0  0  0  0  0
  -27.0636   -0.1189   28.6079 C   0  0  0  0  0  0  0  0  0  0  0  0
  -26.9716    0.7139   27.5060 C   0  0  0  0  0  0  0  0  0  0  0  0
  -28.1053    0.7744   26.6421 C   0  0  0  0  0  0  0  0  0  0  0  0
  -29.2041    0.1179   27.0477 C   0  0  0  0  0  0  0  0  0  0  0  0
  -29.2127   -0.6088   28.1281 C   0  0  0  0  0  0  0  0  0  0  0  0
  -25.7106    1.4519   27.1380 C   0  0  0  0  0  0  0  0  0  0  0  0
  -24.6052    0.9253   27.6902 C   0  0  0  0  0  0  0  0  0  0  0  0
  -24.6227    0.0600   28.8225 C   0  0  0  0  0  0  0  0  0  0  0  0
  -25.7269   -0.4734   29.2409 C   0  0  0  0  0  0  0  0  0  0  0  0
  -23.4285    1.8727   27.4612 C   0  0  0  0  0  0  0  0  0  0  0  0
  -23.2475    2.2172   26.3228 F   0  0  0  0  0  0  0  0  0  0  0  0
  -23.4450    2.9983   28.2664 F   0  0  0  0  0  0  0  0  0  0  0  0
  -22.2146    1.2346   27.8759 F   0  0  0  0  0  0  0  0  0  0  0  0
  -30.7332    0.2989   26.2606 Cl  0  0  0  0  0  0  0  0  0  0  0  0
  -25.6728   -1.4599   30.3157 C   0  0  0  0  0  0  0  0  0  0  0  0
  -25.4707   -1.1349   31.3798 O   0  0  0  0  0  0  0  0  0  0  0  0
  -26.0935   -2.6493   29.9488 O   0  0  0  0  0  0  0  0  0  0  0  0
  -28.0985    1.6326   25.5965 O   0  0  0  0  0  0  0  0  0  0  0  0
  -27.6367    1.0893   24.4433 C   0  0  0  0  0  0  0  0  0  0  0  0
  -30.3337   -1.2521   28.5376 O   0  0  0  0  0  0  0  0  0  0  0  0
  -30.4938   -1.5230   29.8907 C   0  0  0  0  0  0  0  0  0  0  0  0
  -31.8776   -1.7218   30.2049 C   0  0  0  0  0  0  0  0  0  0  0  0
  -32.1997   -1.9950   31.2422 O   0  0  0  0  0  0  0  0  0  0  0  0
  -32.7404   -1.6334   29.1762 N   0  0  0  0  0  0  0  0  0  0  0  0
  -34.1508   -1.8716   29.3644 C   0  0  0  0  0  0  0  0  0  0  0  0
  -34.7055   -1.4530   28.5123 C   0  0  0  0  0  0  0  0  0  0  0  0
  -34.2486   -1.3011   27.2735 C   0  0  0  0  0  0  0  0  0  0  0  0
  -32.8906   -1.2590   26.9662 C   0  0  0  0  0  0  0  0  0  0  0  0
  -32.2152   -1.3647   27.9285 C   0  0  0  0  0  0  0  0  0  0  0  0
  -31.5533   -1.8594   27.3545 O   0  0  0  0  0  0  0  0  0  0  0  0
  -31.5295   -3.2122   27.2006 C   0  0  0  0  0  0  0  0  0  0  0  0
  8 11  1  0
 11 12  1  0
 11 13  1  0
 11 14  1  0
  5 15  1  0
 10 16  1  0
 16 17  2  0
 16 18  1  0
  4 19  1  0
 19 20  1  0
  6 21  1  0
 21 22  1  0
 22 23  1  0
 23 24  2  0
 23 25  1  0
 25 26  1  0
 27 28  1  0
 25 30  1  0
 29 30  1  0
 30 31  1  0
 31 32  1  0
 26 27  1  0
 28 29  1  0
  1  2  2  0
  3  4  2  0
  4  5  1  0
  5  6  2  0
  6  1  1  0
  2  3  1  0
  3  7  1  0
  7  8  2  0
  8  9  1  0
  9 10  2  0
 10  2  1  0
M  END

$$$$
