No_1368-gen_results/8p0m/2024-11-26-14-13-15/
     RDKit          3D

 35 39  0  0  0  0  0  0  0  0999 V2000
  -28.0162   -0.8135   28.8779 C   0  0  0  0  0  0  0  0  0  0  0  0
  -28.4690   -0.7850   29.8287 C   0  0  0  0  0  0  0  0  0  0  0  0
  -26.5042   -0.7777   28.8766 C   0  0  0  0  0  0  0  0  0  0  0  0
  -25.8103   -0.8531   30.1028 C   0  0  0  0  0  0  0  0  0  0  0  0
  -27.9906   -0.8916   31.2257 C   0  0  0  0  0  0  0  0  0  0  0  0
  -26.6042   -0.8676   31.2652 C   0  0  0  0  0  0  0  0  0  0  0  0
  -29.9808   -0.8491   30.0372 N   0  0  0  0  0  0  0  0  0  0  0  0
  -30.7032   -0.0242   29.3095 C   0  0  0  0  0  0  0  0  0  0  0  0
  -30.3328    0.9349   28.7702 C   0  0  0  0  0  0  0  0  0  0  0  0
  -31.2226    1.7766   27.8574 C   0  0  0  0  0  0  0  0  0  0  0  0
  -32.5162    1.3193   27.7464 C   0  0  0  0  0  0  0  0  0  0  0  0
  -32.0792   -0.4710   29.1143 C   0  0  0  0  0  0  0  0  0  0  0  0
  -32.9216    0.2060   28.3751 C   0  0  0  0  0  0  0  0  0  0  0  0
  -30.5203   -1.9113   30.8734 C   0  0  0  0  0  0  0  0  0  0  0  0
  -30.8796   -1.4105   32.0775 C   0  0  0  0  0  0  0  0  0  0  0  0
  -30.5799   -3.1580   30.3846 C   0  0  0  0  0  0  0  0  0  0  0  0
  -31.5161   -2.3567   32.9516 C   0  0  0  0  0  0  0  0  0  0  0  0
  -31.0759   -4.1135   31.2616 C   0  0  0  0  0  0  0  0  0  0  0  0
  -31.5309   -3.7170   32.5509 C   0  0  0  0  0  0  0  0  0  0  0  0
  -31.1640   -0.0867   32.5599 C   0  0  0  0  0  0  0  0  0  0  0  0
  -31.1471    0.3477   33.5987 C   0  0  0  0  0  0  0  0  0  0  0  0
  -31.6353   -0.7275   34.5918 C   0  0  0  0  0  0  0  0  0  0  0  0
  -31.7600   -2.0447   34.2958 C   0  0  0  0  0  0  0  0  0  0  0  0
  -25.7868   -0.5121   27.6584 C   0  0  0  0  0  0  0  0  0  0  0  0
  -26.0395    0.4693   26.7221 C   0  0  0  0  0  0  0  0  0  0  0  0
  -25.1999    0.6061   25.6209 C   0  0  0  0  0  0  0  0  0  0  0  0
  -24.1538    1.2514   25.2872 C   0  0  0  0  0  0  0  0  0  0  0  0
  -23.8313    2.3930   26.1935 C   0  0  0  0  0  0  0  0  0  0  0  0
  -24.8301    2.7798   27.1643 C   0  0  0  0  0  0  0  0  0  0  0  0
  -26.2625    1.8061   27.1476 C   0  0  0  0  0  0  0  0  0  0  0  0
  -33.4488    2.1589   26.9052 C   0  0  0  0  0  0  0  0  0  0  0  0
  -34.1942    2.9274   27.4674 N   0  0  0  0  0  0  0  0  0  0  0  0
  -34.1586    3.3112   28.6170 C   0  0  0  0  0  0  0  0  0  0  0  0
  -33.2802    3.2703   29.4660 C   0  0  0  0  0  0  0  0  0  0  0  0
  -33.3822    3.8210   30.8928 C   0  0  0  0  0  0  0  0  0  0  0  0
  2  7  1  0
  7  8  1  0
  7 14  1  0
  3 24  1  0
 24 25  1  0
 11 31  1  0
 31 32  1  0
 32 33  1  0
 33 34  2  3
 34 35  1  0
 25 26  2  0
 26 27  1  0
 27 28  2  0
 28 29  1  0
 29 30  2  0
 30 25  1  0
 17 23  1  0
 23 22  2  0
 22 21  1  0
 21 20  2  0
 20 15  1  0
 14 15  2  0
 15 17  1  0
 17 19  2  0
 19 18  1  0
 18 16  2  0
 16 14  1  0
  1  2  2  0
  2  5  1  0
  5  6  2  0
  6  4  1  0
  4  3  2  0
  3  1  1  0
  8  9  2  0
  9 10  1  0
 10 11  2  0
 11 13  1  0
 13 12  2  0
 12  8  1  0
M  END

$$$$
