No_103-gen_results/8p0m/2024-11-26-14-13-15/
     RDKit          3D

 15 15  0  0  0  0  0  0  0  0999 V2000
  -28.0727   -1.2542   28.5316 F   0  0  0  0  0  0  0  0  0  0  0  0
  -27.0607   -0.6291   28.8721 C   0  0  0  0  0  0  0  0  0  0  0  0
  -26.1528   -1.1557   29.4537 C   0  0  0  0  0  0  0  0  0  0  0  0
  -24.8778   -0.5788   29.8639 C   0  0  0  0  0  0  0  0  0  0  0  0
  -24.7426    0.8273   29.4808 C   0  0  0  0  0  0  0  0  0  0  0  0
  -25.7883    1.3927   28.7628 C   0  0  0  0  0  0  0  0  0  0  0  0
  -26.9145    0.7309   28.4427 C   0  0  0  0  0  0  0  0  0  0  0  0
  -25.2594    2.7741   28.3902 C   0  0  0  0  0  0  0  0  0  0  0  0
  -24.1632    2.8858   27.8833 F   0  0  0  0  0  0  0  0  0  0  0  0
  -25.2797    3.6520   29.4594 F   0  0  0  0  0  0  0  0  0  0  0  0
  -26.2459    3.3764   27.5875 F   0  0  0  0  0  0  0  0  0  0  0  0
  -26.2143   -2.4549   29.9208 F   0  0  0  0  0  0  0  0  0  0  0  0
  -23.4313    1.3502   29.9367 C   0  0  0  0  0  0  0  0  0  0  0  0
  -22.5447    1.7501   29.2231 O   0  0  0  0  0  0  0  0  0  0  0  0
  -23.4049    1.6359   31.2578 O   0  0  0  0  0  0  0  0  0  0  0  0
  1  2  1  0
  6  8  1  0
  8  9  1  0
  8 10  1  0
  8 11  1  0
  3 12  1  0
  5 13  1  0
 13 14  2  0
 13 15  1  0
  2  3  2  0
  3  4  1  0
  4  5  2  0
  5  6  1  0
  6  7  2  0
  7  2  1  0
M  END

$$$$
