No_1085-gen_results/8p0m/2024-11-26-14-13-15/
     RDKit          3D

 22 26  0  0  0  0  0  0  0  0999 V2000
  -28.0162   -0.8135   28.8779 C   0  0  0  0  0  0  0  0  0  0  0  0
  -27.0636   -0.1190   28.6079 C   0  0  0  0  0  0  0  0  0  0  0  0
  -26.9716    0.7139   27.5060 C   0  0  0  0  0  0  0  0  0  0  0  0
  -28.1053    0.7744   26.6421 C   0  0  0  0  0  0  0  0  0  0  0  0
  -28.0677    1.4872   25.5121 C   0  0  0  0  0  0  0  0  0  0  0  0
  -29.2691   -0.5335   28.2245 C   0  0  0  0  0  0  0  0  0  0  0  0
  -29.2230    0.1355   27.0328 C   0  0  0  0  0  0  0  0  0  0  0  0
  -30.3504    0.2122   26.2618 N   0  0  0  0  0  0  0  0  0  0  0  0
  -26.9191    2.1780   25.1253 C   0  0  0  0  0  0  0  0  0  0  0  0
  -29.1981    1.5812   24.6178 C   0  0  0  0  0  0  0  0  0  0  0  0
  -30.3551    0.8430   25.0382 C   0  0  0  0  0  0  0  0  0  0  0  0
  -25.6867    1.2926   27.1017 C   0  0  0  0  0  0  0  0  0  0  0  0
  -25.6850    2.1665   25.9462 C   0  0  0  0  0  0  0  0  0  0  0  0
  -31.5663   -0.5178   26.6030 C   0  0  0  0  0  0  0  0  0  0  0  0
  -32.0819   -0.0597   27.7891 C   0  0  0  0  0  0  0  0  0  0  0  0
  -33.2286    0.4227   27.7601 C   0  0  0  0  0  0  0  0  0  0  0  0
  -31.3658   -0.1441   29.0739 C   0  0  0  0  0  0  0  0  0  0  0  0
  -30.3336   -0.6438   29.1537 C   0  0  0  0  0  0  0  0  0  0  0  0
  -31.2293    0.6299   24.1949 O   0  0  0  0  0  0  0  0  0  0  0  0
  -33.8903    1.0647   28.8552 C   0  0  0  0  0  0  0  0  0  0  0  0
  -33.2548    0.9377   30.1094 C   0  0  0  0  0  0  0  0  0  0  0  0
  -32.0562    0.3581   30.2426 C   0  0  0  0  0  0  0  0  0  0  0  0
  7  8  1  0
  5 10  1  0
  8 11  1  0
 10 11  1  0
  8 14  1  0
 14 15  1  0
  6 18  1  0
 11 19  2  0
 18 17  1  0
 15 16  2  0
 16 20  1  0
 20 21  2  0
 21 22  1  0
 22 17  2  0
 17 15  1  0
  4  5  2  0
  5  9  1  0
  9 13  2  0
 13 12  1  0
 12  3  2  0
  1  2  2  0
  2  3  1  0
  3  4  1  0
  4  7  1  0
  7  6  2  0
  6  1  1  0
M  END

$$$$
