No_1424-gen_results/8p0m/2024-11-26-14-13-15/
     RDKit          3D

 22 23  0  0  0  0  0  0  0  0999 V2000
  -28.0162   -0.8135   28.8779 C   0  0  0  0  0  0  0  0  0  0  0  0
  -27.0636   -0.1190   28.6079 C   0  0  0  0  0  0  0  0  0  0  0  0
  -25.7923   -0.4302   29.0761 C   0  0  0  0  0  0  0  0  0  0  0  0
  -24.5456    0.3494   28.8225 C   0  0  0  0  0  0  0  0  0  0  0  0
  -23.2409    0.0217   29.3323 C   0  0  0  0  0  0  0  0  0  0  0  0
  -27.8820   -1.8995   29.8633 C   0  0  0  0  0  0  0  0  0  0  0  0
  -26.6706   -2.3272   30.3212 C   0  0  0  0  0  0  0  0  0  0  0  0
  -25.5433   -1.5852   29.9316 C   0  0  0  0  0  0  0  0  0  0  0  0
  -22.1918    0.8302   29.0004 C   0  0  0  0  0  0  0  0  0  0  0  0
  -22.1472    1.7783   28.0287 C   0  0  0  0  0  0  0  0  0  0  0  0
  -24.5322    1.3987   27.8163 C   0  0  0  0  0  0  0  0  0  0  0  0
  -23.3620    2.0694   27.4607 C   0  0  0  0  0  0  0  0  0  0  0  0
  -29.0617   -2.7252   30.3001 C   0  0  0  0  0  0  0  0  0  0  0  0
  -30.1204   -2.3569   30.1508 O   0  0  0  0  0  0  0  0  0  0  0  0
  -28.7765   -3.8428   30.9290 O   0  0  0  0  0  0  0  0  0  0  0  0
  -23.5394    3.3870   26.0991 Br  0  0  0  0  0  0  0  0  0  0  0  0
  -27.1540    0.8677   27.7233 O   0  0  0  0  0  0  0  0  0  0  0  0
  -27.8000    1.9850   28.2005 C   0  0  0  0  0  0  0  0  0  0  0  0
  -28.0645    2.8907   27.1613 C   0  0  0  0  0  0  0  0  0  0  0  0
  -27.8980    2.5868   25.9202 C   0  0  0  0  0  0  0  0  0  0  0  0
  -28.4441    3.3630   24.8403 C   0  0  0  0  0  0  0  0  0  0  0  0
  -29.1195    4.5697   25.1999 C   0  0  0  0  0  0  0  0  0  0  0  0
  3  4  1  0
  6 13  1  0
 13 14  2  0
 13 15  1  0
 12 16  1  0
  2 17  1  0
 17 18  1  0
 18 19  2  3
 19 20  1  0
 20 21  2  3
 21 22  1  0
  1  2  2  0
  2  3  1  0
  3  8  2  0
  8  7  1  0
  7  6  2  0
  6  1  1  0
  4  5  2  0
  5  9  1  0
  9 10  2  0
 10 12  1  0
 12 11  2  0
 11  4  1  0
M  END

$$$$
