No_1326-gen_results/8p0m/2024-11-26-14-13-15/
     RDKit          3D

 30 32  0  0  0  0  0  0  0  0999 V2000
  -28.0162   -0.8135   28.8779 C   0  0  0  0  0  0  0  0  0  0  0  0
  -27.0636   -0.1190   28.6079 C   0  0  0  0  0  0  0  0  0  0  0  0
  -26.9515    1.1286   28.9566 N   0  0  0  0  0  0  0  0  0  0  0  0
  -29.1088   -0.2102   29.6318 C   0  0  0  0  0  0  0  0  0  0  0  0
  -29.0881    1.0629   29.9416 C   0  0  0  0  0  0  0  0  0  0  0  0
  -27.9547    1.7679   29.5913 C   0  0  0  0  0  0  0  0  0  0  0  0
  -25.9103   -0.6251   27.9767 N   0  0  0  0  0  0  0  0  0  0  0  0
  -24.8720   -1.2704   28.7104 C   0  0  0  0  0  0  0  0  0  0  0  0
  -24.2557   -0.5545   29.7847 C   0  0  0  0  0  0  0  0  0  0  0  0
  -23.6086    0.3893   29.6322 C   0  0  0  0  0  0  0  0  0  0  0  0
  -23.0314    1.1494   30.7914 C   0  0  0  0  0  0  0  0  0  0  0  0
  -24.6273   -0.9919   31.1531 C   0  0  0  0  0  0  0  0  0  0  0  0
  -24.3023   -0.2776   32.2382 C   0  0  0  0  0  0  0  0  0  0  0  0
  -23.4540    0.8523   32.0386 C   0  0  0  0  0  0  0  0  0  0  0  0
  -25.6961   -0.2906   26.6332 C   0  0  0  0  0  0  0  0  0  0  0  0
  -24.9236    0.7717   26.1820 C   0  0  0  0  0  0  0  0  0  0  0  0
  -30.3078   -1.0887   29.9663 C   0  0  0  0  0  0  0  0  0  0  0  0
  -30.1684   -2.0873   30.6095 O   0  0  0  0  0  0  0  0  0  0  0  0
  -31.4486   -0.7482   29.5833 O   0  0  0  0  0  0  0  0  0  0  0  0
  -24.9916    1.3309   25.0083 C   0  0  0  0  0  0  0  0  0  0  0  0
  -25.7595    0.4967   24.1243 C   0  0  0  0  0  0  0  0  0  0  0  0
  -26.4697   -0.5768   25.4737 C   0  0  0  0  0  0  0  0  0  0  0  0
  -24.6273   -2.4527   28.4659 O   0  0  0  0  0  0  0  0  0  0  0  0
  -27.8513    3.1259   29.9450 N   0  0  0  0  0  0  0  0  0  0  0  0
  -28.1296    4.1543   29.8841 C   0  0  0  0  0  0  0  0  0  0  0  0
  -29.1537    4.5575   29.1432 C   0  0  0  0  0  0  0  0  0  0  0  0
  -29.8754    3.7167   28.5365 C   0  0  0  0  0  0  0  0  0  0  0  0
  -30.6649    3.9835   27.5991 C   0  0  0  0  0  0  0  0  0  0  0  0
  -30.9500    5.3876   27.3224 C   0  0  0  0  0  0  0  0  0  0  0  0
  -30.2062    6.3829   27.9025 C   0  0  0  0  0  0  0  0  0  0  0  0
  2  7  1  0
  7  8  1  0
  8  9  1  0
  7 15  1  0
 15 16  1  0
  4 17  1  0
 17 18  1  0
 17 19  2  0
 16 20  2  0
 20 21  1  0
 15 22  1  0
 21 22  2  0
  8 23  2  0
  6 24  1  0
 24 25  1  0
 25 26  2  3
 26 27  1  0
 27 28  2  3
 28 29  1  0
 29 30  2  0
  9 10  2  0
 10 11  1  0
 11 14  2  0
 14 13  1  0
 13 12  2  0
 12  9  1  0
  1  2  2  0
  2  3  1  0
  3  6  2  0
  6  5  1  0
  5  4  2  0
  4  1  1  0
M  END

$$$$
