No_1268-gen_results/8p0m/2024-11-26-14-13-15/
     RDKit          3D

 24 25  0  0  0  0  0  0  0  0999 V2000
  -28.0162   -0.8135   28.8779 C   0  0  0  0  0  0  0  0  0  0  0  0
  -28.4690   -0.7850   29.8287 C   0  0  0  0  0  0  0  0  0  0  0  0
  -26.5455   -0.8762   28.8500 C   0  0  0  0  0  0  0  0  0  0  0  0
  -25.8041   -1.0324   30.0571 C   0  0  0  0  0  0  0  0  0  0  0  0
  -27.9437   -0.9869   31.2075 C   0  0  0  0  0  0  0  0  0  0  0  0
  -26.5825   -1.0386   31.2231 C   0  0  0  0  0  0  0  0  0  0  0  0
  -29.9267   -0.7257   29.8772 O   0  0  0  0  0  0  0  0  0  0  0  0
  -30.5050   -0.0237   28.9624 C   0  0  0  0  0  0  0  0  0  0  0  0
  -31.3773   -0.3992   28.1172 C   0  0  0  0  0  0  0  0  0  0  0  0
  -31.9394    0.3228   27.0412 C   0  0  0  0  0  0  0  0  0  0  0  0
  -31.4912    1.6577   26.9464 C   0  0  0  0  0  0  0  0  0  0  0  0
  -30.0152    1.3636   28.7408 C   0  0  0  0  0  0  0  0  0  0  0  0
  -30.5425    2.1519   27.8151 C   0  0  0  0  0  0  0  0  0  0  0  0
  -24.3782   -1.1203   30.0680 C   0  0  0  0  0  0  0  0  0  0  0  0
  -23.9643   -1.9359   30.7393 F   0  0  0  0  0  0  0  0  0  0  0  0
  -23.8585   -1.2760   28.7695 F   0  0  0  0  0  0  0  0  0  0  0  0
  -23.8509    0.0834   30.4827 F   0  0  0  0  0  0  0  0  0  0  0  0
  -31.8155   -1.7017   28.1675 O   0  0  0  0  0  0  0  0  0  0  0  0
  -32.1530   -2.2947   29.3224 C   0  0  0  0  0  0  0  0  0  0  0  0
  -33.3318   -2.0414   29.7689 C   0  0  0  0  0  0  0  0  0  0  0  0
  -34.2395   -1.6215   29.1347 N   0  0  0  0  0  0  0  0  0  0  0  0
  -34.5480   -1.9212   27.9706 C   0  0  0  0  0  0  0  0  0  0  0  0
  -35.1422   -0.4962   29.6103 C   0  0  0  0  0  0  0  0  0  0  0  0
  -34.9560   -0.0313   30.8762 C   0  0  0  0  0  0  0  0  0  0  0  0
  2  7  1  0
  7  8  1  0
  4 14  1  0
 14 15  1  0
 14 16  1  0
 14 17  1  0
  9 18  1  0
 18 19  1  0
 19 20  1  0
 20 21  1  0
 21 22  1  0
 21 23  1  0
 23 24  2  0
  1  2  2  0
  2  5  1  0
  5  6  2  0
  6  4  1  0
  4  3  2  0
  3  1  1  0
  8  9  2  0
  9 10  1  0
 10 11  2  0
 11 13  1  0
 13 12  2  0
 12  8  1  0
M  END

$$$$
