No_1852-gen_results/8p0m/2024-11-26-14-13-15/
     RDKit          3D

 12 12  0  0  0  0  0  0  0  0999 V2000
  -28.0162   -0.8135   28.8779 C   0  0  0  0  0  0  0  0  0  0  0  0
  -28.4690   -0.7850   29.8287 C   0  0  0  0  0  0  0  0  0  0  0  0
  -28.1960    0.3478   28.0550 C   0  0  0  0  0  0  0  0  0  0  0  0
  -29.0191    1.3501   28.3782 C   0  0  0  0  0  0  0  0  0  0  0  0
  -29.4107    0.1803   30.3782 C   0  0  0  0  0  0  0  0  0  0  0  0
  -29.6059    1.2495   29.6193 C   0  0  0  0  0  0  0  0  0  0  0  0
  -27.4597    0.3802   26.7091 C   0  0  0  0  0  0  0  0  0  0  0  0
  -27.8834    0.5390   25.7073 N   0  0  0  0  0  0  0  0  0  0  0  0
  -25.9412    0.2046   26.7840 C   0  0  0  0  0  0  0  0  0  0  0  0
  -25.3563    0.4285   25.5507 C   0  0  0  0  0  0  0  0  0  0  0  0
  -27.3548    0.6113   24.4554 C   0  0  0  0  0  0  0  0  0  0  0  0
  -23.8443    0.3503   25.5807 C   0  0  0  0  0  0  0  0  0  0  0  0
  3  7  1  0
  7  8  2  3
  7  9  1  0
  9 10  2  3
  8 11  1  0
 10 12  1  0
  1  2  2  0
  2  5  1  0
  5  6  2  0
  6  4  1  0
  4  3  2  0
  3  1  1  0
M  END

$$$$
