No_1826-gen_results/8p0m/2024-11-26-14-13-15/
     RDKit          3D

 34 38  0  0  0  0  0  0  0  0999 V2000
  -28.0162   -0.8135   28.8779 C   0  0  0  0  0  0  0  0  0  0  0  0
  -28.4690   -0.7850   29.8287 C   0  0  0  0  0  0  0  0  0  0  0  0
  -27.1356    0.2359   28.5352 C   0  0  0  0  0  0  0  0  0  0  0  0
  -26.3686    0.2641   27.3086 N   0  0  0  0  0  0  0  0  0  0  0  0
  -28.3598    0.2048   30.9043 C   0  0  0  0  0  0  0  0  0  0  0  0
  -27.5089    1.2636   30.6291 C   0  0  0  0  0  0  0  0  0  0  0  0
  -26.8155    1.2848   29.4167 C   0  0  0  0  0  0  0  0  0  0  0  0
  -26.7930    0.6612   26.1676 C   0  0  0  0  0  0  0  0  0  0  0  0
  -25.9383    0.4819   25.0425 C   0  0  0  0  0  0  0  0  0  0  0  0
  -25.0421   -0.2544   27.3097 C   0  0  0  0  0  0  0  0  0  0  0  0
  -24.5821   -0.6463   28.6441 N   0  0  0  0  0  0  0  0  0  0  0  0
  -24.5524    0.2162   25.1615 C   0  0  0  0  0  0  0  0  0  0  0  0
  -24.1052   -0.0459   26.4270 C   0  0  0  0  0  0  0  0  0  0  0  0
  -24.5999   -1.9127   29.0346 C   0  0  0  0  0  0  0  0  0  0  0  0
  -23.8342    0.2608   29.4593 C   0  0  0  0  0  0  0  0  0  0  0  0
  -23.1674    0.1757   30.2054 C   0  0  0  0  0  0  0  0  0  0  0  0
  -23.1447   -1.1515   30.8953 C   0  0  0  0  0  0  0  0  0  0  0  0
  -23.7898   -2.1709   30.2130 C   0  0  0  0  0  0  0  0  0  0  0  0
  -28.0891    0.9153   25.9559 N   0  0  0  0  0  0  0  0  0  0  0  0
  -28.7085    1.9240   26.6690 C   0  0  0  0  0  0  0  0  0  0  0  0
  -30.1467    2.0542   26.4891 C   0  0  0  0  0  0  0  0  0  0  0  0
  -28.8093    0.3175   25.0089 C   0  0  0  0  0  0  0  0  0  0  0  0
  -30.1826    0.3663   24.8711 C   0  0  0  0  0  0  0  0  0  0  0  0
  -30.5818    1.3565   25.8074 C   0  0  0  0  0  0  0  0  0  0  0  0
  -32.1448    1.2584   25.6204 C   0  0  0  0  0  0  0  0  0  0  0  0
  -27.2925    2.3458   31.6511 C   0  0  0  0  0  0  0  0  0  0  0  0
  -26.9362    3.5192   31.4895 C   0  0  0  0  0  0  0  0  0  0  0  0
  -26.6685    4.4786   32.5418 C   0  0  0  0  0  0  0  0  0  0  0  0
  -26.8250    4.0566   33.8775 C   0  0  0  0  0  0  0  0  0  0  0  0
  -27.1798    2.7459   34.0972 C   0  0  0  0  0  0  0  0  0  0  0  0
  -27.3721    1.8625   33.0711 C   0  0  0  0  0  0  0  0  0  0  0  0
  -32.8682    0.8329   24.9121 O   0  0  0  0  0  0  0  0  0  0  0  0
  -32.9335    1.8210   26.8584 N   0  0  0  0  0  0  0  0  0  0  0  0
  -34.3376    1.8139   26.8927 C   0  0  0  0  0  0  0  0  0  0  0  0
  3  4  1  0
  4  8  1  0
  4 10  1  0
 10 11  1  0
  9 12  1  0
 10 13  1  0
 12 13  1  0
 11 14  1  0
 11 15  1  0
 16 17  1  0
 17 18  1  0
  8 19  1  0
 19 20  1  0
 19 22  1  0
 21 24  1  0
 23 24  1  0
 24 25  1  0
  6 26  1  0
 25 32  2  0
 25 33  1  0
 33 34  1  0
 14 18  1  0
 16 15  1  0
 20 21  1  0
 23 22  1  0
  8  9  1  0
  1  2  2  0
  2  5  1  0
  5  6  2  0
  6  7  1  0
  7  3  2  0
  3  1  1  0
 26 27  2  0
 27 28  1  0
 28 29  2  0
 29 30  1  0
 30 31  2  0
 31 26  1  0
M  END

$$$$
