No_1052-gen_results/8p0m/2024-11-26-14-13-15/
     RDKit          3D

 22 24  0  0  0  0  0  0  0  0999 V2000
  -28.0162   -0.8135   28.8779 C   0  0  0  0  0  0  0  0  0  0  0  0
  -27.0636   -0.1189   28.6079 C   0  0  0  0  0  0  0  0  0  0  0  0
  -25.7923   -0.4302   29.0761 C   0  0  0  0  0  0  0  0  0  0  0  0
  -24.5456    0.3494   28.8225 C   0  0  0  0  0  0  0  0  0  0  0  0
  -24.6586    1.4196   27.8878 C   0  0  0  0  0  0  0  0  0  0  0  0
  -23.5403    2.1791   27.5500 C   0  0  0  0  0  0  0  0  0  0  0  0
  -22.2925    1.7429   28.0473 C   0  0  0  0  0  0  0  0  0  0  0  0
  -22.1712    0.7080   28.9284 C   0  0  0  0  0  0  0  0  0  0  0  0
  -23.3345   -0.0624   29.3081 C   0  0  0  0  0  0  0  0  0  0  0  0
  -27.9546   -1.8765   29.8726 C   0  0  0  0  0  0  0  0  0  0  0  0
  -26.7258   -2.3300   30.3106 C   0  0  0  0  0  0  0  0  0  0  0  0
  -25.6021   -1.5640   29.9668 C   0  0  0  0  0  0  0  0  0  0  0  0
  -29.5603   -2.6807   30.3365 Br  0  0  0  0  0  0  0  0  0  0  0  0
  -23.6406    3.1679   26.6970 O   0  0  0  0  0  0  0  0  0  0  0  0
  -25.0059    3.6853   26.5047 C   0  0  0  0  0  0  0  0  0  0  0  0
  -25.4379    4.8178   27.1410 C   0  0  0  0  0  0  0  0  0  0  0  0
  -25.9154    4.7812   28.3466 C   0  0  0  0  0  0  0  0  0  0  0  0
  -25.9684    5.8989   29.1828 C   0  0  0  0  0  0  0  0  0  0  0  0
  -26.3797    5.8672   30.5731 C   0  0  0  0  0  0  0  0  0  0  0  0
  -26.7440    4.5869   31.0657 C   0  0  0  0  0  0  0  0  0  0  0  0
  -26.7221    3.4786   30.2497 C   0  0  0  0  0  0  0  0  0  0  0  0
  -26.2706    3.5828   28.9494 C   0  0  0  0  0  0  0  0  0  0  0  0
  3  4  1  0
 10 13  1  0
  6 14  1  0
 14 15  1  0
 15 16  1  0
 16 17  1  0
 17 18  2  0
 18 19  1  0
 19 20  2  0
 20 21  1  0
 21 22  2  0
 22 17  1  0
  1  2  2  0
  2  3  1  0
  3 12  2  0
 12 11  1  0
 11 10  2  0
 10  1  1  0
  4  5  2  0
  5  6  1  0
  6  7  2  0
  7  8  1  0
  8  9  2  0
  9  4  1  0
M  END

$$$$
