No_1094-gen_results/8p0m/2024-11-26-14-13-15/
     RDKit          3D

 15 16  0  0  0  0  0  0  0  0999 V2000
  -28.1146   -0.6256   29.0813 Br  0  0  0  0  0  0  0  0  0  0  0  0
  -26.9268    0.4545   28.6846 C   0  0  0  0  0  0  0  0  0  0  0  0
  -25.8457    0.7043   29.3312 C   0  0  0  0  0  0  0  0  0  0  0  0
  -24.8514    1.6413   28.9474 C   0  0  0  0  0  0  0  0  0  0  0  0
  -25.0097    2.3205   27.7273 C   0  0  0  0  0  0  0  0  0  0  0  0
  -26.1307    2.0369   26.9913 C   0  0  0  0  0  0  0  0  0  0  0  0
  -27.0265    1.1434   27.3985 C   0  0  0  0  0  0  0  0  0  0  0  0
  -23.9671    3.2752   27.3123 C   0  0  0  0  0  0  0  0  0  0  0  0
  -24.1099    3.7461   26.0792 N   0  0  0  0  0  0  0  0  0  0  0  0
  -28.2111    0.8455   26.5365 C   0  0  0  0  0  0  0  0  0  0  0  0
  -29.2986    1.0661   26.6164 C   0  0  0  0  0  0  0  0  0  0  0  0
  -30.3223    0.6927   25.7086 C   0  0  0  0  0  0  0  0  0  0  0  0
  -27.8009    0.2440   25.2333 C   0  0  0  0  0  0  0  0  0  0  0  0
  -28.6211   -0.1024   24.2773 C   0  0  0  0  0  0  0  0  0  0  0  0
  -29.9409    0.1272   24.4900 C   0  0  0  0  0  0  0  0  0  0  0  0
  1  2  1  0
  5  8  1  0
  8  9  1  0
  7 10  1  0
  2  3  2  0
  3  4  1  0
  4  5  2  0
  5  6  1  0
  6  7  2  0
  7  2  1  0
 10 11  2  0
 11 12  1  0
 12 15  2  0
 15 14  1  0
 14 13  2  0
 13 10  1  0
M  END

$$$$
