No_1277-gen_results/8p0m/2024-11-26-14-13-15/
     RDKit          3D

 21 23  0  0  0  0  0  0  0  0999 V2000
  -28.0162   -0.8135   28.8779 C   0  0  0  0  0  0  0  0  0  0  0  0
  -28.4690   -0.7850   29.8287 C   0  0  0  0  0  0  0  0  0  0  0  0
  -27.0871    0.2903   28.6377 C   0  0  0  0  0  0  0  0  0  0  0  0
  -26.8317    1.2487   29.5869 C   0  0  0  0  0  0  0  0  0  0  0  0
  -28.3914    0.0801   31.0065 C   0  0  0  0  0  0  0  0  0  0  0  0
  -27.4940    1.1521   30.7841 C   0  0  0  0  0  0  0  0  0  0  0  0
  -26.3172    0.3994   27.3653 C   0  0  0  0  0  0  0  0  0  0  0  0
  -24.9405    0.2550   27.5028 C   0  0  0  0  0  0  0  0  0  0  0  0
  -26.9129    0.5860   26.1397 C   0  0  0  0  0  0  0  0  0  0  0  0
  -28.2688    0.7168   25.9850 C   0  0  0  0  0  0  0  0  0  0  0  0
  -28.7657    0.7315   24.6860 C   0  0  0  0  0  0  0  0  0  0  0  0
  -30.1595    0.8701   24.4627 C   0  0  0  0  0  0  0  0  0  0  0  0
  -30.8294    1.0191   25.1944 C   0  0  0  0  0  0  0  0  0  0  0  0
  -30.5277    1.0618   26.6717 C   0  0  0  0  0  0  0  0  0  0  0  0
  -29.3046    0.9050   27.0254 C   0  0  0  0  0  0  0  0  0  0  0  0
  -26.0342    1.3245   25.3254 C   0  0  0  0  0  0  0  0  0  0  0  0
  -24.3464   -0.4610   28.5604 C   0  0  0  0  0  0  0  0  0  0  0  0
  -23.0571   -0.1913   28.9912 C   0  0  0  0  0  0  0  0  0  0  0  0
  -22.2608    0.6892   28.1762 C   0  0  0  0  0  0  0  0  0  0  0  0
  -22.8664    1.4576   27.1725 C   0  0  0  0  0  0  0  0  0  0  0  0
  -24.1979    1.3435   26.9425 C   0  0  0  0  0  0  0  0  0  0  0  0
  3  7  1  0
  7  8  1  0
  7  9  1  0
  9 10  1  0
  9 16  1  0
 10 11  2  0
 11 12  1  0
 12 13  2  0
 13 14  1  0
 14 15  2  0
 15 10  1  0
  1  2  2  0
  2  5  1  0
  5  6  2  0
  6  4  1  0
  4  3  2  0
  3  1  1  0
  8 17  2  0
 17 18  1  0
 18 19  2  0
 19 20  1  0
 20 21  2  0
 21  8  1  0
M  END

$$$$
