No_1861-gen_results/8p0m/2024-11-26-14-13-15/
     RDKit          3D

 28 31  0  0  0  0  0  0  0  0999 V2000
  -28.0162   -0.8135   28.8779 C   0  0  0  0  0  0  0  0  0  0  0  0
  -28.4690   -0.7850   29.8287 C   0  0  0  0  0  0  0  0  0  0  0  0
  -26.5455   -0.8762   28.8500 C   0  0  0  0  0  0  0  0  0  0  0  0
  -25.8041   -1.0324   30.0571 C   0  0  0  0  0  0  0  0  0  0  0  0
  -27.9437   -0.9869   31.2075 C   0  0  0  0  0  0  0  0  0  0  0  0
  -26.5825   -1.0386   31.2231 C   0  0  0  0  0  0  0  0  0  0  0  0
  -24.3810   -1.1082   30.0855 C   0  0  0  0  0  0  0  0  0  0  0  0
  -23.6421   -1.1177   29.0487 C   0  0  0  0  0  0  0  0  0  0  0  0
  -22.1825   -0.9779   29.1035 C   0  0  0  0  0  0  0  0  0  0  0  0
  -23.7272   -1.1460   31.3757 C   0  0  0  0  0  0  0  0  0  0  0  0
  -22.6986   -0.5245   31.5537 C   0  0  0  0  0  0  0  0  0  0  0  0
  -21.6873   -0.6269   30.3645 C   0  0  0  0  0  0  0  0  0  0  0  0
  -30.0855   -0.6729   29.8734 C   0  0  0  0  0  0  0  0  0  0  0  0
  -30.5963    0.4761   30.2398 N   0  0  0  0  0  0  0  0  0  0  0  0
  -30.0294    1.4182   30.5470 C   0  0  0  0  0  0  0  0  0  0  0  0
  -30.0228    2.6238   30.6615 C   0  0  0  0  0  0  0  0  0  0  0  0
  -29.1066    3.6281   31.1307 C   0  0  0  0  0  0  0  0  0  0  0  0
  -27.8379    3.1119   31.4702 C   0  0  0  0  0  0  0  0  0  0  0  0
  -27.6084    1.7618   31.3574 C   0  0  0  0  0  0  0  0  0  0  0  0
  -28.5552    0.9769   30.9393 C   0  0  0  0  0  0  0  0  0  0  0  0
  -28.8605    0.3639   31.7438 N   0  0  0  0  0  0  0  0  0  0  0  0
  -29.1008    0.2393   33.0984 C   0  0  0  0  0  0  0  0  0  0  0  0
  -28.6102   -2.1778   31.9484 C   0  0  0  0  0  0  0  0  0  0  0  0
  -29.9713   -0.0967   32.1046 C   0  0  0  0  0  0  0  0  0  0  0  0
  -30.0814   -1.4654   32.4237 C   0  0  0  0  0  0  0  0  0  0  0  0
  -31.2680    0.4667   32.4778 C   0  0  0  0  0  0  0  0  0  0  0  0
  -29.0323   -0.4847   34.3046 C   0  0  0  0  0  0  0  0  0  0  0  0
  -29.0475    1.7666   33.6527 C   0  0  0  0  0  0  0  0  0  0  0  0
  4  7  1  0
  2 13  1  0
 13 14  1  0
 14 15  1  0
 20 21  1  0
 21 22  1  0
  5 23  1  0
 21 24  1  0
 23 25  1  0
 24 25  1  0
 24 26  1  0
 22 27  1  0
 22 28  1  0
 15 16  2  0
 16 17  1  0
 17 18  2  0
 18 19  1  0
 19 20  2  0
 20 15  1  0
  1  2  2  0
  2  5  1  0
  5  6  2  0
  6  4  1  0
  4  3  2  0
  3  1  1  0
  7  8  2  0
  8  9  1  0
  9 12  2  0
 12 11  1  0
 11 10  2  0
 10  7  1  0
M  END

$$$$
