No_1454-gen_results/8p0m/2024-11-26-14-13-15/
     RDKit          3D

 11 11  0  0  0  0  0  0  0  0999 V2000
  -28.0162   -0.8135   28.8779 C   0  0  0  0  0  0  0  0  0  0  0  0
  -27.0636   -0.1189   28.6079 C   0  0  0  0  0  0  0  0  0  0  0  0
  -25.7923   -0.4302   29.0761 C   0  0  0  0  0  0  0  0  0  0  0  0
  -25.5756   -1.5654   29.9363 C   0  0  0  0  0  0  0  0  0  0  0  0
  -26.7354   -2.3004   30.2173 C   0  0  0  0  0  0  0  0  0  0  0  0
  -27.9184   -1.9537   29.7629 C   0  0  0  0  0  0  0  0  0  0  0  0
  -29.2678   -2.8890   30.2152 Cl  0  0  0  0  0  0  0  0  0  0  0  0
  -27.1316    1.0004   27.8714 F   0  0  0  0  0  0  0  0  0  0  0  0
  -24.5169    0.3503   28.7511 C   0  0  0  0  0  0  0  0  0  0  0  0
  -24.1479    1.3952   29.4540 C   0  0  0  0  0  0  0  0  0  0  0  0
  -23.0250    2.0697   29.1201 N   0  0  0  0  0  0  0  0  0  0  0  0
  6  7  1  0
  2  8  1  0
  3  9  1  0
  9 10  1  0
 10 11  2  0
  1  2  2  0
  2  3  1  0
  3  4  2  0
  4  5  1  0
  5  6  2  0
  6  1  1  0
M  END

$$$$
