No_1302-gen_results/8p0m/2024-11-26-14-13-15/
     RDKit          3D

 30 33  0  0  0  0  0  0  0  0999 V2000
  -28.0162   -0.8135   28.8779 C   0  0  0  0  0  0  0  0  0  0  0  0
  -27.0636   -0.1189   28.6079 C   0  0  0  0  0  0  0  0  0  0  0  0
  -25.7923   -0.4302   29.0761 C   0  0  0  0  0  0  0  0  0  0  0  0
  -24.5456    0.3494   28.8225 C   0  0  0  0  0  0  0  0  0  0  0  0
  -24.6586    1.4196   27.8878 C   0  0  0  0  0  0  0  0  0  0  0  0
  -25.9471    1.6811   27.3792 C   0  0  0  0  0  0  0  0  0  0  0  0
  -27.0439    0.9739   27.6871 C   0  0  0  0  0  0  0  0  0  0  0  0
  -28.6597   -0.4600   30.2006 C   0  0  0  0  0  0  0  0  0  0  0  0
  -28.5257    0.5013   30.6968 C   0  0  0  0  0  0  0  0  0  0  0  0
  -29.2050    0.7974   32.0557 C   0  0  0  0  0  0  0  0  0  0  0  0
  -29.5423   -1.6086   30.7862 C   0  0  0  0  0  0  0  0  0  0  0  0
  -30.1893   -1.3531   31.9959 C   0  0  0  0  0  0  0  0  0  0  0  0
  -29.9892   -0.1071   32.6184 C   0  0  0  0  0  0  0  0  0  0  0  0
  -23.4447    2.1344   27.5523 C   0  0  0  0  0  0  0  0  0  0  0  0
  -23.4796    3.1101   26.8183 O   0  0  0  0  0  0  0  0  0  0  0  0
  -22.1921    1.6555   27.9271 N   0  0  0  0  0  0  0  0  0  0  0  0
  -28.3446    1.3543   27.0651 C   0  0  0  0  0  0  0  0  0  0  0  0
  -28.5236    1.7283   26.0819 O   0  0  0  0  0  0  0  0  0  0  0  0
  -29.3302    1.6128   27.9685 O   0  0  0  0  0  0  0  0  0  0  0  0
  -21.9356    0.6040   28.7863 C   0  0  0  0  0  0  0  0  0  0  0  0
  -23.1411   -0.1756   29.2060 C   0  0  0  0  0  0  0  0  0  0  0  0
  -22.9744   -1.2880   30.0496 C   0  0  0  0  0  0  0  0  0  0  0  0
  -30.8343    0.1918   34.2837 Br  0  0  0  0  0  0  0  0  0  0  0  0
  -23.2799   -1.4927   31.2589 N   0  0  0  0  0  0  0  0  0  0  0  0
  -23.8130   -0.4946   31.9897 C   0  0  0  0  0  0  0  0  0  0  0  0
  -24.7153    0.4246   31.6883 C   0  0  0  0  0  0  0  0  0  0  0  0
  -25.2252    1.3377   32.6417 C   0  0  0  0  0  0  0  0  0  0  0  0
  -25.6826    0.8274   33.8211 C   0  0  0  0  0  0  0  0  0  0  0  0
  -24.9710   -0.3550   34.3042 C   0  0  0  0  0  0  0  0  0  0  0  0
  -24.1684   -1.1295   33.4598 C   0  0  0  0  0  0  0  0  0  0  0  0
  1  2  1  0
  1  8  1  0
  5 14  1  0
 14 15  2  0
 14 16  1  0
  7 17  1  0
 17 18  2  0
 17 19  1  0
 16 20  1  0
  4 21  1  0
 20 21  1  0
 21 22  1  0
 13 23  1  0
 22 24  1  0
 24 25  1  0
  2  3  2  0
  3  4  1  0
  4  5  2  0
  5  6  1  0
  6  7  2  0
  7  2  1  0
  8  9  2  0
  9 10  1  0
 10 13  2  0
 13 12  1  0
 12 11  2  0
 11  8  1  0
 25 26  2  0
 26 27  1  0
 27 28  2  0
 28 29  1  0
 29 30  2  0
 30 25  1  0
M  END

$$$$
