No_1053-gen_results/8p0m/2024-11-26-14-13-15/
     RDKit          3D

 21 22  0  0  0  0  0  0  0  0999 V2000
  -28.1229   -1.3353   28.4874 O   0  0  0  0  0  0  0  0  0  0  0  0
  -27.4806   -0.4044   28.7094 C   0  0  0  0  0  0  0  0  0  0  0  0
  -26.3804   -0.0867   27.9394 C   0  0  0  0  0  0  0  0  0  0  0  0
  -27.7306    0.3455   29.8481 F   0  0  0  0  0  0  0  0  0  0  0  0
  -26.5062    0.7764   26.8083 C   0  0  0  0  0  0  0  0  0  0  0  0
  -25.0418   -0.5004   28.2767 C   0  0  0  0  0  0  0  0  0  0  0  0
  -25.3567    1.0257   25.9729 C   0  0  0  0  0  0  0  0  0  0  0  0
  -23.8905   -0.1150   27.5106 C   0  0  0  0  0  0  0  0  0  0  0  0
  -24.0947    0.6620   26.3747 C   0  0  0  0  0  0  0  0  0  0  0  0
  -24.8197   -1.3208   29.4593 C   0  0  0  0  0  0  0  0  0  0  0  0
  -27.7967    1.1054   26.2862 C   0  0  0  0  0  0  0  0  0  0  0  0
  -28.2662    0.6205   25.0907 C   0  0  0  0  0  0  0  0  0  0  0  0
  -29.6178    0.7056   24.7606 C   0  0  0  0  0  0  0  0  0  0  0  0
  -30.3556    1.0565   25.5065 C   0  0  0  0  0  0  0  0  0  0  0  0
  -28.7384    1.7711   27.1152 C   0  0  0  0  0  0  0  0  0  0  0  0
  -30.0683    1.7532   26.7528 C   0  0  0  0  0  0  0  0  0  0  0  0
  -24.8041   -1.0336   30.5441 C   0  0  0  0  0  0  0  0  0  0  0  0
  -24.3413   -2.6545   29.0913 C   0  0  0  0  0  0  0  0  0  0  0  0
  -25.0049    0.2890   31.2075 C   0  0  0  0  0  0  0  0  0  0  0  0
  -23.9783    1.2852   30.8817 C   0  0  0  0  0  0  0  0  0  0  0  0
  -24.3037    2.5106   30.9252 N   0  0  0  0  0  0  0  0  0  0  0  0
  1  2  2  0
  2  3  1  0
  2  4  1  0
  6 10  1  0
  5 11  1  0
 10 17  2  3
 10 18  1  0
 17 19  1  0
 19 20  2  3
 20 21  1  0
 11 12  2  0
 12 13  1  0
 13 14  2  0
 14 16  1  0
 16 15  2  0
 15 11  1  0
  3  5  2  0
  5  7  1  0
  7  9  2  0
  9  8  1  0
  8  6  2  0
  6  3  1  0
M  END

$$$$
