No_1711-gen_results/8p0m/2024-11-26-14-13-15/
     RDKit          3D

 24 27  0  0  0  0  0  0  0  0999 V2000
  -28.0162   -0.8135   28.8779 C   0  0  0  0  0  0  0  0  0  0  0  0
  -28.4690   -0.7850   29.8287 C   0  0  0  0  0  0  0  0  0  0  0  0
  -27.1356    0.2359   28.5352 C   0  0  0  0  0  0  0  0  0  0  0  0
  -26.3351    0.2900   27.2835 C   0  0  0  0  0  0  0  0  0  0  0  0
  -28.3692    0.1957   30.9236 C   0  0  0  0  0  0  0  0  0  0  0  0
  -27.5158    1.2655   30.6540 C   0  0  0  0  0  0  0  0  0  0  0  0
  -26.8411    1.2942   29.4761 C   0  0  0  0  0  0  0  0  0  0  0  0
  -25.9754   -0.2930   26.4391 Cl  0  0  0  0  0  0  0  0  0  0  0  0
  -25.8816    1.8385   27.0746 C   0  0  0  0  0  0  0  0  0  0  0  0
  -24.8194    2.0768   26.9074 C   0  0  0  0  0  0  0  0  0  0  0  0
  -24.2785    3.4458   26.6787 C   0  0  0  0  0  0  0  0  0  0  0  0
  -25.2363    4.4779   26.7678 C   0  0  0  0  0  0  0  0  0  0  0  0
  -26.5159    4.1423   27.1075 C   0  0  0  0  0  0  0  0  0  0  0  0
  -26.9043    2.8299   27.2504 C   0  0  0  0  0  0  0  0  0  0  0  0
  -27.2934    2.3305   31.6588 C   0  0  0  0  0  0  0  0  0  0  0  0
  -26.6749    3.2132   31.8394 C   0  0  0  0  0  0  0  0  0  0  0  0
  -25.6420    3.5982   30.7685 C   0  0  0  0  0  0  0  0  0  0  0  0
  -25.1962    2.9573   29.6881 C   0  0  0  0  0  0  0  0  0  0  0  0
  -25.7460    2.1412   29.2111 C   0  0  0  0  0  0  0  0  0  0  0  0
  -24.5925    1.1119   29.0625 C   0  0  0  0  0  0  0  0  0  0  0  0
  -23.7250    1.4789   28.0237 C   0  0  0  0  0  0  0  0  0  0  0  0
  -22.4189    1.1975   27.7217 C   0  0  0  0  0  0  0  0  0  0  0  0
  -28.3138    2.5205   26.9930 C   0  0  0  0  0  0  0  0  0  0  0  0
  -29.2094    2.9759   27.7309 O   0  0  0  0  0  0  0  0  0  0  0  0
  3  4  1  0
  4  8  1  0
  4  9  1  0
  6 15  1  0
 15 16  2  0
 16 17  1  0
 17 18  2  0
  7 19  1  0
 18 19  1  0
 19 20  1  0
 10 21  1  0
 20 21  1  0
 21 22  1  0
 14 23  1  0
 23 24  2  0
  9 10  2  0
 10 11  1  0
 11 12  2  0
 12 13  1  0
 13 14  2  0
 14  9  1  0
  1  2  2  0
  2  5  1  0
  5  6  2  0
  6  7  1  0
  7  3  2  0
  3  1  1  0
M  END

$$$$
