No_1386-gen_results/8p0m/2024-11-26-14-13-15/
     RDKit          3D

 17 18  0  0  0  0  0  0  0  0999 V2000
  -28.0162   -0.8135   28.8779 C   0  0  0  0  0  0  0  0  0  0  0  0
  -27.0636   -0.1190   28.6079 C   0  0  0  0  0  0  0  0  0  0  0  0
  -25.6156   -0.5162   28.8771 Cl  0  0  0  0  0  0  0  0  0  0  0  0
  -28.4667   -0.6427   30.1520 C   0  0  0  0  0  0  0  0  0  0  0  0
  -28.7384   -1.7415   30.9497 C   0  0  0  0  0  0  0  0  0  0  0  0
  -29.0634   -2.8854   30.2665 C   0  0  0  0  0  0  0  0  0  0  0  0
  -27.8530   -3.7924   30.2177 C   0  0  0  0  0  0  0  0  0  0  0  0
  -30.1764   -3.4125   29.9956 N   0  0  0  0  0  0  0  0  0  0  0  0
  -27.0559    0.2210   27.1012 F   0  0  0  0  0  0  0  0  0  0  0  0
  -27.1704    1.3333   28.9399 F   0  0  0  0  0  0  0  0  0  0  0  0
  -31.2549   -2.6788   30.0673 C   0  0  0  0  0  0  0  0  0  0  0  0
  -32.5075   -3.3160   29.5865 C   0  0  0  0  0  0  0  0  0  0  0  0
  -30.3451   -4.7573   29.5903 C   0  0  0  0  0  0  0  0  0  0  0  0
  -31.4487   -5.3890   29.0978 C   0  0  0  0  0  0  0  0  0  0  0  0
  -32.6044   -4.6455   29.2726 C   0  0  0  0  0  0  0  0  0  0  0  0
  -27.8186   -5.1070   29.8464 C   0  0  0  0  0  0  0  0  0  0  0  0
  -29.1298   -5.5628   29.4921 C   0  0  0  0  0  0  0  0  0  0  0  0
  1  2  1  0
  2  3  1  0
  1  4  1  0
  4  5  1  0
  5  6  1  0
  6  7  1  0
  6  8  1  0
  2  9  1  0
  2 10  1  0
  8 11  1  0
  8 13  1  0
 12 15  1  0
 14 15  1  0
 13 17  1  0
 16 17  1  0
 11 12  1  0
 14 13  1  0
  7 16  1  0
M  END

$$$$
