No_1075-gen_results/8p0m/2024-11-26-14-13-15/
     RDKit          3D

 35 39  0  0  0  0  0  0  0  0999 V2000
  -28.1229   -1.3353   28.4874 O   0  0  0  0  0  0  0  0  0  0  0  0
  -27.4806   -0.4044   28.7094 C   0  0  0  0  0  0  0  0  0  0  0  0
  -26.3804   -0.0867   27.9394 C   0  0  0  0  0  0  0  0  0  0  0  0
  -27.4232    0.1749   30.0549 N   0  0  0  0  0  0  0  0  0  0  0  0
  -25.4065    0.7421   28.2860 C   0  0  0  0  0  0  0  0  0  0  0  0
  -24.2797    1.1770   27.5072 C   0  0  0  0  0  0  0  0  0  0  0  0
  -24.4975    1.0973   26.1181 C   0  0  0  0  0  0  0  0  0  0  0  0
  -25.5539    0.2862   25.6704 C   0  0  0  0  0  0  0  0  0  0  0  0
  -26.4527   -0.1693   26.5147 C   0  0  0  0  0  0  0  0  0  0  0  0
  -26.7330    1.2056   30.5420 C   0  0  0  0  0  0  0  0  0  0  0  0
  -25.4733    1.4521   29.7489 C   0  0  0  0  0  0  0  0  0  0  0  0
  -28.5866   -0.3183   30.9327 C   0  0  0  0  0  0  0  0  0  0  0  0
  -26.8767    1.8606   31.5485 O   0  0  0  0  0  0  0  0  0  0  0  0
  -22.9837    2.1533   28.0087 Cl  0  0  0  0  0  0  0  0  0  0  0  0
  -29.7665   -0.2843   30.8854 C   0  0  0  0  0  0  0  0  0  0  0  0
  -30.3179    0.8322   30.3189 C   0  0  0  0  0  0  0  0  0  0  0  0
  -30.7941    1.0642   29.4064 C   0  0  0  0  0  0  0  0  0  0  0  0
  -31.3009    2.3593   28.8662 C   0  0  0  0  0  0  0  0  0  0  0  0
  -31.1810    3.4456   29.7123 C   0  0  0  0  0  0  0  0  0  0  0  0
  -30.5975    3.2585   30.9399 C   0  0  0  0  0  0  0  0  0  0  0  0
  -30.1470    2.0592   31.2980 C   0  0  0  0  0  0  0  0  0  0  0  0
  -27.8481   -1.0339   32.1134 C   0  0  0  0  0  0  0  0  0  0  0  0
  -28.1025   -0.6950   33.1695 N   0  0  0  0  0  0  0  0  0  0  0  0
  -28.0563    0.1306   33.9428 C   0  0  0  0  0  0  0  0  0  0  0  0
  -26.9249    0.7926   34.2534 C   0  0  0  0  0  0  0  0  0  0  0  0
  -26.8682    2.0412   35.0032 C   0  0  0  0  0  0  0  0  0  0  0  0
  -27.7113    2.7717   34.8440 C   0  0  0  0  0  0  0  0  0  0  0  0
  -27.7267    4.0506   35.6026 C   0  0  0  0  0  0  0  0  0  0  0  0
  -28.7807    4.9676   35.6826 C   0  0  0  0  0  0  0  0  0  0  0  0
  -29.9140    4.5557   34.8986 C   0  0  0  0  0  0  0  0  0  0  0  0
  -30.0104    3.3990   34.2253 C   0  0  0  0  0  0  0  0  0  0  0  0
  -28.9299    2.5290   34.2333 C   0  0  0  0  0  0  0  0  0  0  0  0
  -29.1153    1.1693   33.7384 C   0  0  0  0  0  0  0  0  0  0  0  0
  -29.2470   -1.7533   33.6239 C   0  0  0  0  0  0  0  0  0  0  0  0
  -29.3792   -1.8055   34.9673 C   0  0  0  0  0  0  0  0  0  0  0  0
  1  2  2  0
  2  3  1  0
  2  4  1  0
  4 10  1  0
  5 11  1  0
 10 11  1  0
  4 12  1  0
 10 13  2  0
  6 14  1  0
 12 15  1  0
 15 16  1  0
 12 22  1  0
 22 23  1  0
 23 24  1  0
 23 34  1  0
 34 35  1  0
  3  9  2  0
  9  8  1  0
  8  7  2  0
  7  6  1  0
  6  5  2  0
  5  3  1  0
 27 28  1  0
 28 29  2  0
 29 30  1  0
 30 31  2  0
 31 32  1  0
 24 25  2  0
 25 26  1  0
 26 27  2  0
 27 32  1  0
 32 33  2  0
 33 24  1  0
 16 17  2  0
 17 18  1  0
 18 19  2  0
 19 20  1  0
 20 21  2  0
 21 16  1  0
M  END

$$$$
