No_1994-gen_results/8p0m/2024-11-26-14-13-15/
     RDKit          3D

 33 36  0  0  0  0  0  0  0  0999 V2000
  -28.0162   -0.8135   28.8779 C   0  0  0  0  0  0  0  0  0  0  0  0
  -27.0636   -0.1190   28.6079 C   0  0  0  0  0  0  0  0  0  0  0  0
  -26.9716    0.7139   27.5060 C   0  0  0  0  0  0  0  0  0  0  0  0
  -28.1053    0.7744   26.6421 C   0  0  0  0  0  0  0  0  0  0  0  0
  -29.2008    0.1044   27.0527 C   0  0  0  0  0  0  0  0  0  0  0  0
  -29.2096   -0.6029   28.1853 C   0  0  0  0  0  0  0  0  0  0  0  0
  -30.2994    0.2279   26.2571 O   0  0  0  0  0  0  0  0  0  0  0  0
  -25.7189   -0.2206   29.4011 C   0  0  0  0  0  0  0  0  0  0  0  0
  -25.2503    0.9568   30.1133 C   0  0  0  0  0  0  0  0  0  0  0  0
  -25.5166    1.2281   31.0395 C   0  0  0  0  0  0  0  0  0  0  0  0
  -25.0115    2.5166   31.7501 C   0  0  0  0  0  0  0  0  0  0  0  0
  -24.1729    1.6902   29.2993 C   0  0  0  0  0  0  0  0  0  0  0  0
  -23.7509    2.8629   29.8377 N   0  0  0  0  0  0  0  0  0  0  0  0
  -24.0877    3.2428   31.0592 C   0  0  0  0  0  0  0  0  0  0  0  0
  -23.6637    1.3428   28.0051 C   0  0  0  0  0  0  0  0  0  0  0  0
  -23.4040    2.2793   27.0470 C   0  0  0  0  0  0  0  0  0  0  0  0
  -22.9673    1.9920   25.7851 C   0  0  0  0  0  0  0  0  0  0  0  0
  -25.1381   -1.4810   29.5299 C   0  0  0  0  0  0  0  0  0  0  0  0
  -23.8577   -1.5110   29.8296 C   0  0  0  0  0  0  0  0  0  0  0  0
  -25.5195   -2.4812   28.5603 C   0  0  0  0  0  0  0  0  0  0  0  0
  -23.1740    0.0891   27.6709 C   0  0  0  0  0  0  0  0  0  0  0  0
  -24.8776   -3.7319   28.8660 C   0  0  0  0  0  0  0  0  0  0  0  0
  -22.7541   -0.2026   26.4495 C   0  0  0  0  0  0  0  0  0  0  0  0
  -22.6296    0.7950   25.4991 C   0  0  0  0  0  0  0  0  0  0  0  0
  -25.5924   -4.8194   29.2548 C   0  0  0  0  0  0  0  0  0  0  0  0
  -26.8116   -4.6169   29.7068 O   0  0  0  0  0  0  0  0  0  0  0  0
  -27.3908   -4.1872   30.6320 C   0  0  0  0  0  0  0  0  0  0  0  0
  -28.8522   -4.4971   30.8047 C   0  0  0  0  0  0  0  0  0  0  0  0
  -29.5765   -4.9331   29.7463 C   0  0  0  0  0  0  0  0  0  0  0  0
  -30.9317   -5.1440   29.7660 C   0  0  0  0  0  0  0  0  0  0  0  0
  -31.6025   -4.9125   30.9980 C   0  0  0  0  0  0  0  0  0  0  0  0
  -30.9157   -4.4991   32.1368 C   0  0  0  0  0  0  0  0  0  0  0  0
  -29.5574   -4.2107   32.0725 C   0  0  0  0  0  0  0  0  0  0  0  0
  5  7  1  0
  2  8  1  0
  8  9  1  0
 12 15  1  0
  8 18  1  0
 18 19  1  0
 18 20  1  0
 20 22  3  0
 22 25  1  0
 25 26  1  0
 26 27  1  0
 27 28  1  0
 28 29  2  0
 29 30  1  0
 30 31  2  0
 31 32  1  0
 32 33  2  0
 33 28  1  0
  1  2  2  0
  2  3  1  0
  3  4  2  0
  4  5  1  0
  5  6  2  0
  6  1  1  0
  9 10  2  0
 10 11  1  0
 11 14  2  0
 14 13  1  0
 13 12  2  0
 12  9  1  0
 15 16  2  0
 16 17  1  0
 17 24  2  0
 24 23  1  0
 23 21  2  0
 21 15  1  0
M  END

$$$$
