No_1357-gen_results/8p0m/2024-11-26-14-13-15/
     RDKit          3D

 15 16  0  0  0  0  0  0  0  0999 V2000
  -28.0727   -1.2542   28.5316 F   0  0  0  0  0  0  0  0  0  0  0  0
  -27.3591   -0.3792   28.7224 C   0  0  0  0  0  0  0  0  0  0  0  0
  -26.3323   -0.6441   29.4520 C   0  0  0  0  0  0  0  0  0  0  0  0
  -25.2562    0.3203   29.7818 C   0  0  0  0  0  0  0  0  0  0  0  0
  -25.4242    1.6275   29.2026 C   0  0  0  0  0  0  0  0  0  0  0  0
  -26.5263    1.8254   28.4032 C   0  0  0  0  0  0  0  0  0  0  0  0
  -27.4513    0.8601   28.1355 C   0  0  0  0  0  0  0  0  0  0  0  0
  -28.5399    1.2022   27.2448 C   0  0  0  0  0  0  0  0  0  0  0  0
  -29.4852    0.8770   27.0868 C   0  0  0  0  0  0  0  0  0  0  0  0
  -30.4923    1.2139   26.0511 C   0  0  0  0  0  0  0  0  0  0  0  0
  -30.0041    2.1667   25.1365 C   0  0  0  0  0  0  0  0  0  0  0  0
  -28.7203    2.6729   25.1781 C   0  0  0  0  0  0  0  0  0  0  0  0
  -27.8962    2.2733   26.2088 C   0  0  0  0  0  0  0  0  0  0  0  0
  -24.4988    2.5705   29.5118 N   0  0  0  0  0  0  0  0  0  0  0  0
  -23.4682    2.8850   29.4445 O   0  0  0  0  0  0  0  0  0  0  0  0
  1  2  1  0
  7  8  1  0
  5 14  1  0
 14 15  2  0
  2  3  2  0
  3  4  1  0
  4  5  2  0
  5  6  1  0
  6  7  2  0
  7  2  1  0
  8  9  2  0
  9 10  1  0
 10 11  2  0
 11 12  1  0
 12 13  2  0
 13  8  1  0
M  END

$$$$
