No_1438-gen_results/8p0m/2024-11-26-14-13-15/
     RDKit          3D

 22 24  0  0  0  0  0  0  0  0999 V2000
  -28.0162   -0.8135   28.8779 C   0  0  0  0  0  0  0  0  0  0  0  0
  -28.4690   -0.7850   29.8287 C   0  0  0  0  0  0  0  0  0  0  0  0
  -28.1960    0.3478   28.0550 C   0  0  0  0  0  0  0  0  0  0  0  0
  -27.4421    0.5100   26.7946 C   0  0  0  0  0  0  0  0  0  0  0  0
  -26.4394    0.8329   26.6142 C   0  0  0  0  0  0  0  0  0  0  0  0
  -25.2141    0.6624   26.7020 C   0  0  0  0  0  0  0  0  0  0  0  0
  -24.3985    0.0428   27.6997 C   0  0  0  0  0  0  0  0  0  0  0  0
  -24.9102   -0.8424   28.5499 C   0  0  0  0  0  0  0  0  0  0  0  0
  -28.2120   -1.9271   30.9185 C   0  0  0  0  0  0  0  0  0  0  0  0
  -24.0847   -1.5168   29.4956 C   0  0  0  0  0  0  0  0  0  0  0  0
  -22.8741   -0.9576   29.7140 C   0  0  0  0  0  0  0  0  0  0  0  0
  -22.2862    0.0761   28.9342 C   0  0  0  0  0  0  0  0  0  0  0  0
  -23.1288    0.5623   27.9169 C   0  0  0  0  0  0  0  0  0  0  0  0
  -27.5312   -2.9973   30.3740 C   0  0  0  0  0  0  0  0  0  0  0  0
  -26.8121   -2.9198   29.2488 C   0  0  0  0  0  0  0  0  0  0  0  0
  -26.9321   -1.7582   28.5020 C   0  0  0  0  0  0  0  0  0  0  0  0
  -26.0604   -1.3044   28.2994 C   0  0  0  0  0  0  0  0  0  0  0  0
  -28.3556   -0.0373   25.8921 N   0  0  0  0  0  0  0  0  0  0  0  0
  -26.0829   -1.5290   26.9558 N   0  0  0  0  0  0  0  0  0  0  0  0
  -29.3380    0.6408   25.3057 C   0  0  0  0  0  0  0  0  0  0  0  0
  -29.4033    1.9524   25.5224 C   0  0  0  0  0  0  0  0  0  0  0  0
  -30.0345    0.0045   24.4757 O   0  0  0  0  0  0  0  0  0  0  0  0
  1  3  1  0
  3  4  1  0
  4  5  1  0
  5  6  1  0
  8 17  1  0
 16 17  1  0
  4 18  2  3
 17 19  1  0
 18 20  1  0
 20 21  1  0
 20 22  2  0
  6  7  1  0
  7  8  2  0
  8 10  1  0
 10 11  2  0
 11 12  1  0
 12 13  2  0
 13  7  1  0
  1  2  2  0
  2  9  1  0
  9 14  2  0
 14 15  1  0
 15 16  2  0
 16  1  1  0
M  END

$$$$
