No_179-gen_results/8p0m/2024-11-26-14-13-15/
     RDKit          3D

 28 31  0  0  0  0  0  0  0  0999 V2000
  -28.0162   -0.8135   28.8779 C   0  0  0  0  0  0  0  0  0  0  0  0
  -27.0636   -0.1190   28.6079 C   0  0  0  0  0  0  0  0  0  0  0  0
  -27.0010    0.6913   27.4910 C   0  0  0  0  0  0  0  0  0  0  0  0
  -25.8548    1.4825   27.0830 C   0  0  0  0  0  0  0  0  0  0  0  0
  -24.6901    1.4526   27.8807 C   0  0  0  0  0  0  0  0  0  0  0  0
  -23.4878    2.1451   27.6011 C   0  0  0  0  0  0  0  0  0  0  0  0
  -25.7206   -0.1766   29.3315 C   0  0  0  0  0  0  0  0  0  0  0  0
  -24.6020    0.5547   29.0326 C   0  0  0  0  0  0  0  0  0  0  0  0
  -28.3734   -1.3739   30.1059 C   0  0  0  0  0  0  0  0  0  0  0  0
  -27.4382   -1.0439   31.1052 C   0  0  0  0  0  0  0  0  0  0  0  0
  -26.0690   -0.6467   30.7621 C   0  0  0  0  0  0  0  0  0  0  0  0
  -22.3423    1.8693   28.2101 N   0  0  0  0  0  0  0  0  0  0  0  0
  -22.3148    0.9509   29.2116 C   0  0  0  0  0  0  0  0  0  0  0  0
  -23.3960    0.2778   29.6664 C   0  0  0  0  0  0  0  0  0  0  0  0
  -28.1389    0.7516   26.5499 C   0  0  0  0  0  0  0  0  0  0  0  0
  -29.1177    1.3927   26.7764 C   0  0  0  0  0  0  0  0  0  0  0  0
  -30.0513    1.7900   26.4696 C   0  0  0  0  0  0  0  0  0  0  0  0
  -31.0812    2.5789   27.1824 C   0  0  0  0  0  0  0  0  0  0  0  0
  -30.8015    2.8902   28.4911 C   0  0  0  0  0  0  0  0  0  0  0  0
  -29.6857    2.4658   29.0996 C   0  0  0  0  0  0  0  0  0  0  0  0
  -28.7431    1.7591   28.3784 C   0  0  0  0  0  0  0  0  0  0  0  0
  -27.9778    0.1476   25.2309 C   0  0  0  0  0  0  0  0  0  0  0  0
  -29.5576   -2.0145   30.5086 C   0  0  0  0  0  0  0  0  0  0  0  0
  -29.6916   -3.0234   30.9433 O   0  0  0  0  0  0  0  0  0  0  0  0
  -30.7540   -1.3091   30.1711 N   0  0  0  0  0  0  0  0  0  0  0  0
  -32.0146   -1.6507   30.2355 C   0  0  0  0  0  0  0  0  0  0  0  0
  -32.7834   -1.1518   30.6387 C   0  0  0  0  0  0  0  0  0  0  0  0
  -34.1742   -1.5824   30.7701 C   0  0  0  0  0  0  0  0  0  0  0  0
  3 15  1  0
 15 22  1  0
  9 23  1  0
 23 24  2  0
 23 25  1  0
 25 26  1  0
 26 27  2  3
 27 28  1  0
 15 16  1  0
  1  2  2  0
  7 11  2  0
 11 10  1  0
 10  9  2  0
  9  1  1  0
  2  3  1  0
  3  4  2  0
  4  5  1  0
  8  7  1  0
  7  2  1  0
  5  6  2  0
  6 12  1  0
 12 13  2  0
 13 14  1  0
 14  8  2  0
  8  5  1  0
 16 17  2  0
 17 18  1  0
 18 19  2  0
 19 20  1  0
 20 21  2  0
 21 16  1  0
M  END

$$$$
