No_158-gen_results/8p0m/2024-11-26-14-13-15/
     RDKit          3D

 19 20  0  0  0  0  0  0  0  0999 V2000
  -28.0162   -0.8135   28.8779 C   0  0  0  0  0  0  0  0  0  0  0  0
  -27.0636   -0.1190   28.6079 C   0  0  0  0  0  0  0  0  0  0  0  0
  -26.9716    0.7139   27.5060 C   0  0  0  0  0  0  0  0  0  0  0  0
  -28.1053    0.7744   26.6421 C   0  0  0  0  0  0  0  0  0  0  0  0
  -29.2041    0.1179   27.0477 C   0  0  0  0  0  0  0  0  0  0  0  0
  -29.2127   -0.6088   28.1281 C   0  0  0  0  0  0  0  0  0  0  0  0
  -25.9455    1.5372   27.0332 N   0  0  0  0  0  0  0  0  0  0  0  0
  -24.6436    1.3125   27.5446 C   0  0  0  0  0  0  0  0  0  0  0  0
  -23.5945    2.1658   27.0222 C   0  0  0  0  0  0  0  0  0  0  0  0
  -25.9880    2.5095   26.1447 C   0  0  0  0  0  0  0  0  0  0  0  0
  -24.9513    3.4191   25.8020 C   0  0  0  0  0  0  0  0  0  0  0  0
  -23.7001    3.1876   26.2775 C   0  0  0  0  0  0  0  0  0  0  0  0
  -22.1907    1.8548   27.7293 C   0  0  0  0  0  0  0  0  0  0  0  0
  -21.8827    0.6310   28.1470 N   0  0  0  0  0  0  0  0  0  0  0  0
  -20.7423    0.2456   28.4757 C   0  0  0  0  0  0  0  0  0  0  0  0
  -30.3520    0.1633   26.2321 N   0  0  0  0  0  0  0  0  0  0  0  0
  -30.2364   -0.1190   24.9234 C   0  0  0  0  0  0  0  0  0  0  0  0
  -31.6219    0.3963   26.7455 C   0  0  0  0  0  0  0  0  0  0  0  0
  -20.6412   -1.0524   29.0338 N   0  0  0  0  0  0  0  0  0  0  0  0
  3  7  1  0
  7  8  1  0
  7 10  1  0
  9 12  1  0
 11 12  1  0
  9 13  1  0
 13 14  1  0
 14 15  1  0
  5 16  1  0
 16 17  1  0
 16 18  1  0
 15 19  2  0
  8  9  1  0
 11 10  1  0
  1  2  2  0
  2  3  1  0
  3  4  2  0
  4  5  1  0
  5  6  2  0
  6  1  1  0
M  END

$$$$
