No_190-gen_results/8p0m/2024-11-26-14-13-15/
     RDKit          3D

 23 23  0  0  0  0  0  0  0  0999 V2000
  -28.1229   -1.3353   28.4874 O   0  0  0  0  0  0  0  0  0  0  0  0
  -27.0637   -0.8242   28.8687 C   0  0  0  0  0  0  0  0  0  0  0  0
  -26.9592    0.0926   29.7582 C   0  0  0  0  0  0  0  0  0  0  0  0
  -25.8802   -1.1117   28.1591 O   0  0  0  0  0  0  0  0  0  0  0  0
  -25.8830    0.2196   30.4790 C   0  0  0  0  0  0  0  0  0  0  0  0
  -25.5914    0.9707   31.5628 C   0  0  0  0  0  0  0  0  0  0  0  0
  -26.7021    1.7328   32.0757 C   0  0  0  0  0  0  0  0  0  0  0  0
  -27.9077    1.5844   31.3828 C   0  0  0  0  0  0  0  0  0  0  0  0
  -28.0727    0.7486   30.3435 C   0  0  0  0  0  0  0  0  0  0  0  0
  -26.4576    2.6633   33.1979 C   0  0  0  0  0  0  0  0  0  0  0  0
  -26.7811    2.3923   34.3532 N   0  0  0  0  0  0  0  0  0  0  0  0
  -25.8289    3.7947   32.9011 O   0  0  0  0  0  0  0  0  0  0  0  0
  -26.6515    3.4213   35.4964 C   0  0  0  0  0  0  0  0  0  0  0  0
  -27.3159    1.1080   34.7477 C   0  0  0  0  0  0  0  0  0  0  0  0
  -26.9960    4.6536   35.2245 C   0  0  0  0  0  0  0  0  0  0  0  0
  -27.3771    4.9503   34.1840 F   0  0  0  0  0  0  0  0  0  0  0  0
  -25.9369    5.5144   35.6049 F   0  0  0  0  0  0  0  0  0  0  0  0
  -27.8373    5.0670   36.2949 F   0  0  0  0  0  0  0  0  0  0  0  0
  -26.9731    0.6724   35.9096 C   0  0  0  0  0  0  0  0  0  0  0  0
  -27.0846   -0.3822   36.4441 C   0  0  0  0  0  0  0  0  0  0  0  0
  -26.5955   -0.8972   37.7344 C   0  0  0  0  0  0  0  0  0  0  0  0
  -25.8985   -0.0196   38.5960 C   0  0  0  0  0  0  0  0  0  0  0  0
  -25.8135    1.3148   38.1021 C   0  0  0  0  0  0  0  0  0  0  0  0
  1  2  2  0
  2  3  1  0
  2  4  1  0
  7 10  1  0
 10 11  1  0
 10 12  2  0
 11 13  1  0
 11 14  1  0
 13 15  1  0
 15 16  1  0
 15 17  1  0
 15 18  1  0
 14 19  2  3
 19 20  1  0
 20 21  1  0
 21 22  2  3
 22 23  1  0
  3  5  2  0
  5  6  1  0
  6  7  2  0
  7  8  1  0
  8  9  2  0
  9  3  1  0
M  END

$$$$
