No_169-gen_results/8p0m/2024-11-26-14-13-15/
     RDKit          3D

 13 13  0  0  0  0  0  0  0  0999 V2000
  -28.0162   -0.8135   28.8779 C   0  0  0  0  0  0  0  0  0  0  0  0
  -28.4690   -0.7850   29.8287 C   0  0  0  0  0  0  0  0  0  0  0  0
  -28.1960    0.3478   28.0550 C   0  0  0  0  0  0  0  0  0  0  0  0
  -29.0191    1.3501   28.3782 C   0  0  0  0  0  0  0  0  0  0  0  0
  -29.2330    0.0588   30.3450 C   0  0  0  0  0  0  0  0  0  0  0  0
  -29.5334    1.2062   29.6597 C   0  0  0  0  0  0  0  0  0  0  0  0
  -27.4957    0.3867   26.6807 C   0  0  0  0  0  0  0  0  0  0  0  0
  -28.0145    0.5973   25.6630 C   0  0  0  0  0  0  0  0  0  0  0  0
  -26.0285    0.1690   26.7229 C   0  0  0  0  0  0  0  0  0  0  0  0
  -25.1723    1.1775   27.1772 C   0  0  0  0  0  0  0  0  0  0  0  0
  -23.9058    0.9225   27.7515 C   0  0  0  0  0  0  0  0  0  0  0  0
  -22.9568    1.9498   27.7908 C   0  0  0  0  0  0  0  0  0  0  0  0
  -21.7359    1.6570   28.3722 N   0  0  0  0  0  0  0  0  0  0  0  0
  3  7  1  0
  7  8  1  0
  7  9  1  0
  9 10  1  0
 10 11  2  3
 11 12  1  0
 12 13  2  0
  1  2  2  0
  2  5  1  0
  5  6  2  0
  6  4  1  0
  4  3  2  0
  3  1  1  0
M  END

$$$$
