No_1290-gen_results/8p0m/2024-11-26-14-13-15/
     RDKit          3D

 15 16  0  0  0  0  0  0  0  0999 V2000
  -28.0162   -0.8135   28.8779 C   0  0  0  0  0  0  0  0  0  0  0  0
  -27.0636   -0.1190   28.6079 C   0  0  0  0  0  0  0  0  0  0  0  0
  -26.9716    0.7139   27.5060 C   0  0  0  0  0  0  0  0  0  0  0  0
  -25.8205    1.4909   27.1160 C   0  0  0  0  0  0  0  0  0  0  0  0
  -24.8579    1.3421   27.6008 C   0  0  0  0  0  0  0  0  0  0  0  0
  -23.5687    2.1107   27.3209 C   0  0  0  0  0  0  0  0  0  0  0  0
  -23.7157    2.8155   26.0971 C   0  0  0  0  0  0  0  0  0  0  0  0
  -27.9699   -1.6354   30.0987 C   0  0  0  0  0  0  0  0  0  0  0  0
  -26.7322   -1.8371   30.7195 C   0  0  0  0  0  0  0  0  0  0  0  0
  -25.5894   -1.2265   30.2909 C   0  0  0  0  0  0  0  0  0  0  0  0
  -25.6969   -0.3526   29.2089 C   0  0  0  0  0  0  0  0  0  0  0  0
  -24.6269    0.3738   28.8299 C   0  0  0  0  0  0  0  0  0  0  0  0
  -22.3317    2.0036   27.9900 C   0  0  0  0  0  0  0  0  0  0  0  0
  -28.2296    0.8565   26.6762 C   0  0  0  0  0  0  0  0  0  0  0  0
  -29.1542    1.7170   27.0271 C   0  0  0  0  0  0  0  0  0  0  0  0
  2  3  1  0
  3  4  1  0
  4  5  1  0
  5  6  2  3
  6  7  1  0
  5 12  1  0
 11 12  1  0
  6 13  1  0
  3 14  1  0
 14 15  2  0
  1  2  2  0
  2 11  1  0
 11 10  2  0
 10  9  1  0
  9  8  2  0
  8  1  1  0
M  END

$$$$
