No_1850-gen_results/8p0m/2024-11-26-14-13-15/
     RDKit          3D

 28 32  0  0  0  0  0  0  0  0999 V2000
  -28.0162   -0.8135   28.8779 C   0  0  0  0  0  0  0  0  0  0  0  0
  -28.4690   -0.7850   29.8287 C   0  0  0  0  0  0  0  0  0  0  0  0
  -27.1356    0.2359   28.5352 C   0  0  0  0  0  0  0  0  0  0  0  0
  -26.3351    0.2900   27.2835 C   0  0  0  0  0  0  0  0  0  0  0  0
  -28.3692    0.1957   30.9236 C   0  0  0  0  0  0  0  0  0  0  0  0
  -27.5158    1.2655   30.6540 C   0  0  0  0  0  0  0  0  0  0  0  0
  -26.8589    1.3211   29.4911 C   0  0  0  0  0  0  0  0  0  0  0  0
  -25.0012    0.3132   27.5009 C   0  0  0  0  0  0  0  0  0  0  0  0
  -24.0820   -0.1108   26.6989 C   0  0  0  0  0  0  0  0  0  0  0  0
  -22.7440    0.3479   27.0567 C   0  0  0  0  0  0  0  0  0  0  0  0
  -22.4842    0.9781   28.3413 C   0  0  0  0  0  0  0  0  0  0  0  0
  -24.3581    1.0622   28.6198 C   0  0  0  0  0  0  0  0  0  0  0  0
  -26.7420   -0.6512   26.3455 C   0  0  0  0  0  0  0  0  0  0  0  0
  -26.7649    1.7123   26.6875 C   0  0  0  0  0  0  0  0  0  0  0  0
  -27.3284    2.3495   31.6513 C   0  0  0  0  0  0  0  0  0  0  0  0
  -26.5465    3.2937   31.4096 C   0  0  0  0  0  0  0  0  0  0  0  0
  -25.9139    3.3230   30.1045 C   0  0  0  0  0  0  0  0  0  0  0  0
  -26.0594    2.3479   29.1930 C   0  0  0  0  0  0  0  0  0  0  0  0
  -25.7734    2.7029   27.8603 C   0  0  0  0  0  0  0  0  0  0  0  0
  -24.5069    3.0918   27.3028 C   0  0  0  0  0  0  0  0  0  0  0  0
  -26.7402    4.1780   27.5711 C   0  0  0  0  0  0  0  0  0  0  0  0
  -26.3562    1.8816   25.2707 C   0  0  0  0  0  0  0  0  0  0  0  0
  -28.2538    2.0407   26.7544 C   0  0  0  0  0  0  0  0  0  0  0  0
  -28.5447    3.2838   26.3883 C   0  0  0  0  0  0  0  0  0  0  0  0
  -30.0113    3.5311   26.2300 C   0  0  0  0  0  0  0  0  0  0  0  0
  -28.0566    4.4135   27.4236 C   0  0  0  0  0  0  0  0  0  0  0  0
  -24.4117    4.1101   26.1063 C   0  0  0  0  0  0  0  0  0  0  0  0
  -24.0329   -0.0056   29.8044 O   0  0  0  0  0  0  0  0  0  0  0  0
  3  4  1  0
  4  8  1  0
  8  9  2  0
  9 10  1  0
 10 11  2  0
  8 12  1  0
 11 12  1  0
  4 13  1  0
  4 14  1  0
 14 19  1  0
 18 19  1  0
 19 20  1  0
 19 21  1  0
 14 22  1  0
 14 23  1  0
 24 25  1  0
 21 26  1  0
 24 26  1  0
 20 27  1  0
 12 28  1  0
 24 23  1  0
  7 18  1  0
 18 17  2  0
 17 16  1  0
 16 15  2  0
 15  6  1  0
  1  2  2  0
  2  5  1  0
  5  6  2  0
  6  7  1  0
  7  3  2  0
  3  1  1  0
M  END

$$$$
