No_1518-gen_results/8p0m/2024-11-26-14-13-15/
     RDKit          3D

 20 21  0  0  0  0  0  0  0  0999 V2000
  -28.0162   -0.8135   28.8779 C   0  0  0  0  0  0  0  0  0  0  0  0
  -28.4690   -0.7850   29.8287 C   0  0  0  0  0  0  0  0  0  0  0  0
  -27.1356    0.2359   28.5352 C   0  0  0  0  0  0  0  0  0  0  0  0
  -26.8745    1.2825   29.3982 C   0  0  0  0  0  0  0  0  0  0  0  0
  -28.3613    0.1987   30.9244 C   0  0  0  0  0  0  0  0  0  0  0  0
  -27.5277    1.2234   30.6356 C   0  0  0  0  0  0  0  0  0  0  0  0
  -26.3987    0.2949   27.2279 C   0  0  0  0  0  0  0  0  0  0  0  0
  -26.9022    0.7280   26.2134 C   0  0  0  0  0  0  0  0  0  0  0  0
  -28.2290    1.2592   26.1972 C   0  0  0  0  0  0  0  0  0  0  0  0
  -28.8634    1.6436   27.2291 C   0  0  0  0  0  0  0  0  0  0  0  0
  -29.9147    2.2337   27.2525 C   0  0  0  0  0  0  0  0  0  0  0  0
  -30.5843    2.5094   25.9403 C   0  0  0  0  0  0  0  0  0  0  0  0
  -29.9256    2.1855   24.7780 C   0  0  0  0  0  0  0  0  0  0  0  0
  -28.7068    1.6682   24.8444 C   0  0  0  0  0  0  0  0  0  0  0  0
  -26.1457    0.5166   24.9213 C   0  0  0  0  0  0  0  0  0  0  0  0
  -25.0015    0.0371   27.2898 C   0  0  0  0  0  0  0  0  0  0  0  0
  -24.1776    0.7914   28.1780 C   0  0  0  0  0  0  0  0  0  0  0  0
  -23.5912    1.8839   27.7660 C   0  0  0  0  0  0  0  0  0  0  0  0
  -23.8471    0.1941   29.4575 C   0  0  0  0  0  0  0  0  0  0  0  0
  -23.1531   -0.8037   29.6430 C   0  0  0  0  0  0  0  0  0  0  0  0
  3  7  1  0
  7  8  2  3
  8  9  1  0
  8 15  1  0
  7 16  1  0
 16 17  1  0
 17 18  1  0
 17 19  1  0
 19 20  1  0
  9 10  2  0
 10 11  1  0
 11 12  2  0
 12 13  1  0
 13 14  2  0
 14  9  1  0
  1  2  2  0
  2  5  1  0
  5  6  2  0
  6  4  1  0
  4  3  2  0
  3  1  1  0
M  END

$$$$
