No_1168-gen_results/8p0m/2024-11-26-14-13-15/
     RDKit          3D

 19 20  0  0  0  0  0  0  0  0999 V2000
  -28.0162   -0.8135   28.8779 C   0  0  0  0  0  0  0  0  0  0  0  0
  -28.4690   -0.7850   29.8287 C   0  0  0  0  0  0  0  0  0  0  0  0
  -26.5455   -0.8762   28.8500 C   0  0  0  0  0  0  0  0  0  0  0  0
  -25.8041   -1.0324   30.0571 C   0  0  0  0  0  0  0  0  0  0  0  0
  -27.9437   -0.9869   31.2075 C   0  0  0  0  0  0  0  0  0  0  0  0
  -26.5825   -1.0386   31.2231 C   0  0  0  0  0  0  0  0  0  0  0  0
  -24.3810   -1.1082   30.0855 C   0  0  0  0  0  0  0  0  0  0  0  0
  -23.4668    0.0564   29.5564 Cl  0  0  0  0  0  0  0  0  0  0  0  0
  -23.8573   -2.4371   29.4254 C   0  0  0  0  0  0  0  0  0  0  0  0
  -23.9256   -1.4364   31.6397 C   0  0  0  0  0  0  0  0  0  0  0  0
  -30.0777   -0.6657   29.8529 C   0  0  0  0  0  0  0  0  0  0  0  0
  -30.5090   -0.2030   28.9256 O   0  0  0  0  0  0  0  0  0  0  0  0
  -30.7913   -1.0518   30.9345 N   0  0  0  0  0  0  0  0  0  0  0  0
  -32.2218   -0.9343   30.9289 C   0  0  0  0  0  0  0  0  0  0  0  0
  -32.8912   -0.2408   30.4766 C   0  0  0  0  0  0  0  0  0  0  0  0
  -34.3315   -0.1834   30.5269 C   0  0  0  0  0  0  0  0  0  0  0  0
  -32.7778   -2.3119   30.9691 C   0  0  0  0  0  0  0  0  0  0  0  0
  -34.1644   -2.4282   31.0083 C   0  0  0  0  0  0  0  0  0  0  0  0
  -34.9122   -1.3603   30.7457 C   0  0  0  0  0  0  0  0  0  0  0  0
  4  7  1  0
  7  8  1  0
  7  9  1  0
  7 10  1  0
  2 11  1  0
 11 12  2  0
 11 13  1  0
 13 14  1  0
  1  2  2  0
  2  5  1  0
  5  6  2  0
  6  4  1  0
  4  3  2  0
  3  1  1  0
 14 15  2  0
 15 16  1  0
 16 19  2  0
 19 18  1  0
 18 17  2  0
 17 14  1  0
M  END

$$$$
