No_144-gen_results/8p0m/2024-11-26-14-13-15/
     RDKit          3D

 15 16  0  0  0  0  0  0  0  0999 V2000
  -28.0162   -0.8135   28.8779 C   0  0  0  0  0  0  0  0  0  0  0  0
  -28.4690   -0.7850   29.8287 C   0  0  0  0  0  0  0  0  0  0  0  0
  -26.5455   -0.8762   28.8500 C   0  0  0  0  0  0  0  0  0  0  0  0
  -25.8041   -1.0324   30.0571 C   0  0  0  0  0  0  0  0  0  0  0  0
  -27.9437   -0.9869   31.2075 C   0  0  0  0  0  0  0  0  0  0  0  0
  -26.5825   -1.0386   31.2231 C   0  0  0  0  0  0  0  0  0  0  0  0
  -30.0606   -0.7371   29.9024 C   0  0  0  0  0  0  0  0  0  0  0  0
  -30.7252   -1.5544   30.2697 O   0  0  0  0  0  0  0  0  0  0  0  0
  -30.5534    0.2353   28.9470 N   0  0  0  0  0  0  0  0  0  0  0  0
  -29.8410    1.2714   28.3918 C   0  0  0  0  0  0  0  0  0  0  0  0
  -30.3353    2.0714   27.5632 C   0  0  0  0  0  0  0  0  0  0  0  0
  -29.5944    3.1618   26.9178 C   0  0  0  0  0  0  0  0  0  0  0  0
  -28.5909    3.2278   27.0425 C   0  0  0  0  0  0  0  0  0  0  0  0
  -27.7283    2.3936   27.8640 C   0  0  0  0  0  0  0  0  0  0  0  0
  -28.4372    1.3500   28.6278 C   0  0  0  0  0  0  0  0  0  0  0  0
  2  7  1  0
  7  8  2  0
  7  9  1  0
  9 10  1  0
  1  2  2  0
  2  5  1  0
  5  6  2  0
  6  4  1  0
  4  3  2  0
  3  1  1  0
 10 11  2  0
 11 12  1  0
 12 13  2  0
 13 14  1  0
 14 15  2  0
 15 10  1  0
M  END

$$$$
