No_1806-gen_results/8p0m/2024-11-26-14-13-15/
     RDKit          3D

 16 17  0  0  0  0  0  0  0  0999 V2000
  -28.0162   -0.8135   28.8779 C   0  0  0  0  0  0  0  0  0  0  0  0
  -28.4690   -0.7850   29.8287 C   0  0  0  0  0  0  0  0  0  0  0  0
  -27.0871    0.2903   28.6377 C   0  0  0  0  0  0  0  0  0  0  0  0
  -26.2516    0.4114   27.4223 C   0  0  0  0  0  0  0  0  0  0  0  0
  -29.4309   -1.9307   30.2714 C   0  0  0  0  0  0  0  0  0  0  0  0
  -28.1601    0.2856   30.9102 C   0  0  0  0  0  0  0  0  0  0  0  0
  -27.3860    1.2511   30.7511 C   0  0  0  0  0  0  0  0  0  0  0  0
  -26.7076    1.3035   29.5682 C   0  0  0  0  0  0  0  0  0  0  0  0
  -25.2151    1.0546   27.1816 C   0  0  0  0  0  0  0  0  0  0  0  0
  -24.9196    2.0889   28.2080 C   0  0  0  0  0  0  0  0  0  0  0  0
  -25.5962    2.1990   29.3009 C   0  0  0  0  0  0  0  0  0  0  0  0
  -30.4696   -2.0530   29.8054 O   0  0  0  0  0  0  0  0  0  0  0  0
  -29.1638   -2.5666   31.4650 O   0  0  0  0  0  0  0  0  0  0  0  0
  -23.3869    3.2343   27.7124 Br  0  0  0  0  0  0  0  0  0  0  0  0
  -25.2554    3.1295   30.2083 F   0  0  0  0  0  0  0  0  0  0  0  0
  -24.5528    1.0140   26.0569 F   0  0  0  0  0  0  0  0  0  0  0  0
  2  5  1  0
  5 12  2  0
  5 13  1  0
 10 14  1  0
 11 15  1  0
  9 16  1  0
  3  4  2  0
  4  9  1  0
  9 10  2  0
 10 11  1  0
 11  8  2  0
  1  2  2  0
  2  6  1  0
  6  7  2  0
  7  8  1  0
  8  3  1  0
  3  1  1  0
M  END

$$$$
