No_1686-gen_results/8p0m/2024-11-26-14-13-15/
     RDKit          3D

 31 35  0  0  0  0  0  0  0  0999 V2000
  -28.0162   -0.8135   28.8779 C   0  0  0  0  0  0  0  0  0  0  0  0
  -27.0636   -0.1189   28.6079 C   0  0  0  0  0  0  0  0  0  0  0  0
  -25.7923   -0.4302   29.0761 C   0  0  0  0  0  0  0  0  0  0  0  0
  -25.5756   -1.5654   29.9363 C   0  0  0  0  0  0  0  0  0  0  0  0
  -26.7354   -2.3004   30.2173 C   0  0  0  0  0  0  0  0  0  0  0  0
  -27.9184   -1.9537   29.7629 C   0  0  0  0  0  0  0  0  0  0  0  0
  -29.0001   -2.7012   30.1151 O   0  0  0  0  0  0  0  0  0  0  0  0
  -24.5290    0.3490   28.7998 C   0  0  0  0  0  0  0  0  0  0  0  0
  -24.4808    1.2113   27.7998 C   0  0  0  0  0  0  0  0  0  0  0  0
  -23.2478    1.8974   27.4951 C   0  0  0  0  0  0  0  0  0  0  0  0
  -22.0497    1.5890   28.1642 C   0  0  0  0  0  0  0  0  0  0  0  0
  -23.3072    0.0149   29.4618 C   0  0  0  0  0  0  0  0  0  0  0  0
  -22.0852    0.6899   29.1374 C   0  0  0  0  0  0  0  0  0  0  0  0
  -30.1248   -2.1320   30.5843 C   0  0  0  0  0  0  0  0  0  0  0  0
  -31.1953   -2.7086   30.1286 C   0  0  0  0  0  0  0  0  0  0  0  0
  -31.9897   -2.1591   29.4810 O   0  0  0  0  0  0  0  0  0  0  0  0
  -31.2472   -4.1736   29.9880 N   0  0  0  0  0  0  0  0  0  0  0  0
  -32.2038   -4.8618   29.2447 C   0  0  0  0  0  0  0  0  0  0  0  0
  -31.9141   -5.1014   27.9422 C   0  0  0  0  0  0  0  0  0  0  0  0
  -32.6673   -5.8645   27.2589 C   0  0  0  0  0  0  0  0  0  0  0  0
  -32.3226   -6.2541   25.8816 C   0  0  0  0  0  0  0  0  0  0  0  0
  -32.3977   -7.3348   25.6123 C   0  0  0  0  0  0  0  0  0  0  0  0
  -33.1709   -8.3688   26.2444 C   0  0  0  0  0  0  0  0  0  0  0  0
  -33.5604   -8.0459   27.5049 C   0  0  0  0  0  0  0  0  0  0  0  0
  -33.2049   -6.8545   28.0304 C   0  0  0  0  0  0  0  0  0  0  0  0
  -32.4380   -6.2392   29.8151 C   0  0  0  0  0  0  0  0  0  0  0  0
  -32.4758   -6.1993   31.3442 C   0  0  0  0  0  0  0  0  0  0  0  0
  -32.5742   -6.6298   29.2012 N   0  0  0  0  0  0  0  0  0  0  0  0
  -31.8437   -8.0063   29.6708 C   0  0  0  0  0  0  0  0  0  0  0  0
  -31.7515   -8.3433   31.0006 C   0  0  0  0  0  0  0  0  0  0  0  0
  -31.8887   -7.3346   31.8980 C   0  0  0  0  0  0  0  0  0  0  0  0
  6  7  1  0
  3  8  1  0
  7 14  1  0
 14 15  1  0
 15 16  2  0
 15 17  1  0
 17 18  1  0
 18 19  1  0
 18 26  1  0
 26 27  1  0
 25 28  1  0
 26 28  1  0
 28 29  1  0
 30 31  1  0
 20 19  1  0
 27 31  1  0
 30 29  1  0
  1  2  2  0
  2  3  1  0
  3  4  2  0
  4  5  1  0
  5  6  2  0
  6  1  1  0
 20 21  2  0
 21 22  1  0
 22 23  2  0
 23 24  1  0
 24 25  2  0
 25 20  1  0
  8  9  2  0
  9 10  1  0
 10 11  2  0
 11 13  1  0
 13 12  2  0
 12  8  1  0
M  END

$$$$
