No_191-gen_results/8p0m/2024-11-26-14-13-15/
     RDKit          3D

 22 24  0  0  0  0  0  0  0  0999 V2000
  -28.0162   -0.8135   28.8779 C   0  0  0  0  0  0  0  0  0  0  0  0
  -28.4690   -0.7850   29.8287 C   0  0  0  0  0  0  0  0  0  0  0  0
  -28.1960    0.3478   28.0550 C   0  0  0  0  0  0  0  0  0  0  0  0
  -29.0191    1.3501   28.3782 C   0  0  0  0  0  0  0  0  0  0  0  0
  -29.4595    1.3436   29.2945 C   0  0  0  0  0  0  0  0  0  0  0  0
  -29.3580    0.3029   30.2952 C   0  0  0  0  0  0  0  0  0  0  0  0
  -27.4523    0.2475   26.7992 O   0  0  0  0  0  0  0  0  0  0  0  0
  -26.0922    0.3530   26.7874 C   0  0  0  0  0  0  0  0  0  0  0  0
  -25.5071    1.2499   25.9071 C   0  0  0  0  0  0  0  0  0  0  0  0
  -24.0733    1.4268   25.9982 C   0  0  0  0  0  0  0  0  0  0  0  0
  -23.3253    0.9703   27.0873 C   0  0  0  0  0  0  0  0  0  0  0  0
  -24.0056    0.1834   28.0304 C   0  0  0  0  0  0  0  0  0  0  0  0
  -25.3495   -0.1153   27.9361 C   0  0  0  0  0  0  0  0  0  0  0  0
  -22.0507    1.3494   27.3085 N   0  0  0  0  0  0  0  0  0  0  0  0
  -21.3335    0.8012   28.3627 C   0  0  0  0  0  0  0  0  0  0  0  0
  -21.9061    0.0321   29.2795 N   0  0  0  0  0  0  0  0  0  0  0  0
  -23.2169   -0.2951   29.1901 C   0  0  0  0  0  0  0  0  0  0  0  0
  -29.0967    2.4350   27.3044 C   0  0  0  0  0  0  0  0  0  0  0  0
  -23.7304   -1.2257   30.2019 C   0  0  0  0  0  0  0  0  0  0  0  0
  -23.8388   -2.4031   30.0101 O   0  0  0  0  0  0  0  0  0  0  0  0
  -24.0120   -0.6707   31.4557 N   0  0  0  0  0  0  0  0  0  0  0  0
  -24.8030   -1.3925   32.4481 C   0  0  0  0  0  0  0  0  0  0  0  0
  3  7  1  0
  7  8  1  0
  4 18  1  0
 17 19  1  0
 19 20  2  0
 19 21  1  0
 21 22  1  0
  1  2  2  0
  2  6  1  0
  6  5  2  0
  5  4  1  0
  4  3  2  0
  3  1  1  0
  8  9  2  0
  9 10  1  0
 10 11  2  0
 12 13  2  0
 13  8  1  0
 11 12  1  0
 12 17  1  0
 17 16  2  0
 16 15  1  0
 15 14  2  0
 14 11  1  0
M  END

$$$$
