No_1817-gen_results/8p0m/2024-11-26-14-13-15/
     RDKit          3D

 19 20  0  0  0  0  0  0  0  0999 V2000
  -28.0162   -0.8135   28.8779 C   0  0  0  0  0  0  0  0  0  0  0  0
  -28.4690   -0.7850   29.8287 C   0  0  0  0  0  0  0  0  0  0  0  0
  -26.5455   -0.8762   28.8500 C   0  0  0  0  0  0  0  0  0  0  0  0
  -25.8041   -1.0324   30.0571 C   0  0  0  0  0  0  0  0  0  0  0  0
  -26.5373   -1.0386   31.2171 C   0  0  0  0  0  0  0  0  0  0  0  0
  -27.8843   -0.9532   31.1862 C   0  0  0  0  0  0  0  0  0  0  0  0
  -24.3555   -1.1121   30.0346 C   0  0  0  0  0  0  0  0  0  0  0  0
  -23.7015    0.0586   29.8442 N   0  0  0  0  0  0  0  0  0  0  0  0
  -23.7841    1.1403   30.5806 C   0  0  0  0  0  0  0  0  0  0  0  0
  -23.3725    0.4291   28.4763 C   0  0  0  0  0  0  0  0  0  0  0  0
  -22.8932    1.7110   28.2325 C   0  0  0  0  0  0  0  0  0  0  0  0
  -23.9413    2.1995   30.4362 N   0  0  0  0  0  0  0  0  0  0  0  0
  -23.3812    2.7245   29.2193 C   0  0  0  0  0  0  0  0  0  0  0  0
  -25.8185   -0.8344   27.6491 N   0  0  0  0  0  0  0  0  0  0  0  0
  -26.1610   -0.0526   26.5681 C   0  0  0  0  0  0  0  0  0  0  0  0
  -26.9002    1.1220   26.7412 C   0  0  0  0  0  0  0  0  0  0  0  0
  -26.9888    1.7454   27.8671 C   0  0  0  0  0  0  0  0  0  0  0  0
  -27.5754    3.0957   28.0083 C   0  0  0  0  0  0  0  0  0  0  0  0
  -28.0996    3.5688   26.8533 C   0  0  0  0  0  0  0  0  0  0  0  0
  4  7  1  0
  7  8  1  0
  8  9  1  0
  8 10  1  0
  9 12  1  0
 11 13  1  0
  3 14  1  0
 14 15  1  0
 15 16  2  3
 16 17  1  0
 17 18  2  3
 18 19  1  0
 12 13  1  0
 11 10  1  0
  1  2  2  0
  2  6  1  0
  6  5  2  0
  5  4  1  0
  4  3  2  0
  3  1  1  0
M  END

$$$$
