No_1838-gen_results/8p0m/2024-11-26-14-13-15/
     RDKit          3D

 13 14  0  0  0  0  0  0  0  0999 V2000
  -28.1229   -1.3353   28.4874 O   0  0  0  0  0  0  0  0  0  0  0  0
  -27.4806   -0.4044   28.7094 C   0  0  0  0  0  0  0  0  0  0  0  0
  -26.3804   -0.0867   27.9394 C   0  0  0  0  0  0  0  0  0  0  0  0
  -27.6664    0.4468   29.8988 N   0  0  0  0  0  0  0  0  0  0  0  0
  -25.8047    1.1658   28.0750 C   0  0  0  0  0  0  0  0  0  0  0  0
  -24.6514    1.6081   27.3233 C   0  0  0  0  0  0  0  0  0  0  0  0
  -23.7797    2.1866   27.5602 C   0  0  0  0  0  0  0  0  0  0  0  0
  -27.0369    1.5775   30.1242 C   0  0  0  0  0  0  0  0  0  0  0  0
  -26.0080    2.0355   29.2544 C   0  0  0  0  0  0  0  0  0  0  0  0
  -23.9938    3.0975   28.7858 C   0  0  0  0  0  0  0  0  0  0  0  0
  -25.0494    2.9638   29.5686 C   0  0  0  0  0  0  0  0  0  0  0  0
  -27.3387    2.2392   31.1620 O   0  0  0  0  0  0  0  0  0  0  0  0
  -28.8804    0.1701   30.7326 C   0  0  0  0  0  0  0  0  0  0  0  0
  1  2  2  0
  2  3  1  0
  2  4  1  0
  4  8  1  0
  8  9  1  0
  8 12  2  0
  4 13  1  0
  3  5  1  0
  5  6  2  0
  6  7  1  0
  7 10  2  0
 10 11  1  0
 11  9  2  0
  9  5  1  0
M  END

$$$$
