No_1222-gen_results/8p0m/2024-11-26-14-13-15/
     RDKit          3D

 22 23  0  0  0  0  0  0  0  0999 V2000
  -28.0162   -0.8135   28.8779 C   0  0  0  0  0  0  0  0  0  0  0  0
  -28.4690   -0.7850   29.8287 C   0  0  0  0  0  0  0  0  0  0  0  0
  -26.5455   -0.8762   28.8500 C   0  0  0  0  0  0  0  0  0  0  0  0
  -25.6825   -0.7773   27.6829 C   0  0  0  0  0  0  0  0  0  0  0  0
  -27.9181   -1.0034   31.1877 C   0  0  0  0  0  0  0  0  0  0  0  0
  -26.6533   -0.9210   31.2338 C   0  0  0  0  0  0  0  0  0  0  0  0
  -25.7947   -0.9499   30.1098 C   0  0  0  0  0  0  0  0  0  0  0  0
  -25.8688    0.2526   26.7514 C   0  0  0  0  0  0  0  0  0  0  0  0
  -24.8800    0.7801   26.0725 C   0  0  0  0  0  0  0  0  0  0  0  0
  -24.1894    1.8088   26.2567 C   0  0  0  0  0  0  0  0  0  0  0  0
  -24.3827    2.6470   27.4111 C   0  0  0  0  0  0  0  0  0  0  0  0
  -25.6596    2.6679   27.8953 C   0  0  0  0  0  0  0  0  0  0  0  0
  -26.4000    1.6062   27.8256 C   0  0  0  0  0  0  0  0  0  0  0  0
  -26.0376    3.6781   28.8856 C   0  0  0  0  0  0  0  0  0  0  0  0
  -26.9331    3.6288   29.5346 O   0  0  0  0  0  0  0  0  0  0  0  0
  -25.3992    4.9350   28.6629 O   0  0  0  0  0  0  0  0  0  0  0  0
  -24.4057   -0.9424   30.1966 C   0  0  0  0  0  0  0  0  0  0  0  0
  -23.5746   -0.1195   30.0330 C   0  0  0  0  0  0  0  0  0  0  0  0
  -23.7201    1.2787   30.3431 C   0  0  0  0  0  0  0  0  0  0  0  0
  -22.2400   -0.3921   29.3584 C   0  0  0  0  0  0  0  0  0  0  0  0
  -23.9366   -2.3588   30.5538 C   0  0  0  0  0  0  0  0  0  0  0  0
  -21.8085   -1.4794   29.1508 O   0  0  0  0  0  0  0  0  0  0  0  0
  3  4  1  0
  4  8  1  0
 12 14  1  0
 14 15  2  0
 14 16  1  0
  7 17  1  0
 17 18  1  0
 18 19  1  0
 18 20  1  0
 17 21  1  0
 20 22  2  0
  8  9  2  0
  9 10  1  0
 10 11  2  0
 11 12  1  0
 12 13  2  0
 13  8  1  0
  1  2  2  0
  2  5  1  0
  5  6  2  0
  6  7  1  0
  7  3  2  0
  3  1  1  0
M  END

$$$$
