No_1694-gen_results/8p0m/2024-11-26-14-13-15/
     RDKit          3D

 17 18  0  0  0  0  0  0  0  0999 V2000
  -28.0162   -0.8135   28.8779 C   0  0  0  0  0  0  0  0  0  0  0  0
  -28.4690   -0.7850   29.8287 C   0  0  0  0  0  0  0  0  0  0  0  0
  -26.5455   -0.8762   28.8500 C   0  0  0  0  0  0  0  0  0  0  0  0
  -25.8041   -1.0324   30.0571 C   0  0  0  0  0  0  0  0  0  0  0  0
  -27.9437   -0.9869   31.2075 C   0  0  0  0  0  0  0  0  0  0  0  0
  -26.5825   -1.0386   31.2231 C   0  0  0  0  0  0  0  0  0  0  0  0
  -30.0606   -0.7371   29.9024 C   0  0  0  0  0  0  0  0  0  0  0  0
  -30.5524   -0.2769   29.0111 O   0  0  0  0  0  0  0  0  0  0  0  0
  -30.7428   -1.2890   30.9939 N   0  0  0  0  0  0  0  0  0  0  0  0
  -32.1712   -1.2600   30.9749 C   0  0  0  0  0  0  0  0  0  0  0  0
  -24.3688   -1.0881   30.0880 C   0  0  0  0  0  0  0  0  0  0  0  0
  -23.5808   -0.7799   29.0756 C   0  0  0  0  0  0  0  0  0  0  0  0
  -22.1319   -0.6858   29.1927 C   0  0  0  0  0  0  0  0  0  0  0  0
  -21.3960   -0.1584   28.1410 C   0  0  0  0  0  0  0  0  0  0  0  0
  -22.0338    0.8623   27.3306 C   0  0  0  0  0  0  0  0  0  0  0  0
  -23.4607    1.0124   27.3680 C   0  0  0  0  0  0  0  0  0  0  0  0
  -24.1728    0.2953   28.2164 C   0  0  0  0  0  0  0  0  0  0  0  0
  2  7  1  0
  7  8  2  0
  7  9  1  0
  9 10  1  0
  4 11  1  0
 11 12  1  0
 12 13  2  0
 13 14  1  0
 14 15  2  0
 15 16  1  0
 16 17  2  0
 17 12  1  0
  1  2  2  0
  2  5  1  0
  5  6  2  0
  6  4  1  0
  4  3  2  0
  3  1  1  0
M  END

$$$$
