No_1966-gen_results/8p0m/2024-11-26-14-13-15/
     RDKit          3D

 27 30  0  0  0  0  0  0  0  0999 V2000
  -28.0162   -0.8135   28.8779 C   0  0  0  0  0  0  0  0  0  0  0  0
  -27.0636   -0.1190   28.6079 C   0  0  0  0  0  0  0  0  0  0  0  0
  -26.9515    1.1286   28.9566 N   0  0  0  0  0  0  0  0  0  0  0  0
  -28.7337   -0.4725   29.8920 C   0  0  0  0  0  0  0  0  0  0  0  0
  -28.7882    0.7921   30.4274 C   0  0  0  0  0  0  0  0  0  0  0  0
  -27.7538    1.5919   29.9804 C   0  0  0  0  0  0  0  0  0  0  0  0
  -30.1165   -1.7032   30.5016 Br  0  0  0  0  0  0  0  0  0  0  0  0
  -26.1021   -0.4326   27.5695 N   0  0  0  0  0  0  0  0  0  0  0  0
  -25.4804    0.4418   26.7506 C   0  0  0  0  0  0  0  0  0  0  0  0
  -24.2017    0.7425   27.1376 C   0  0  0  0  0  0  0  0  0  0  0  0
  -23.3771    0.2765   28.1159 C   0  0  0  0  0  0  0  0  0  0  0  0
  -23.8588   -0.7119   28.9819 C   0  0  0  0  0  0  0  0  0  0  0  0
  -25.1610   -1.5073   28.0280 C   0  0  0  0  0  0  0  0  0  0  0  0
  -22.1344    0.8264   28.5121 C   0  0  0  0  0  0  0  0  0  0  0  0
  -21.6381    1.7963   27.6260 N   0  0  0  0  0  0  0  0  0  0  0  0
  -23.5785    2.0205   26.4628 C   0  0  0  0  0  0  0  0  0  0  0  0
  -22.3231    2.4164   26.7494 C   0  0  0  0  0  0  0  0  0  0  0  0
  -26.1129    0.7820   25.7806 O   0  0  0  0  0  0  0  0  0  0  0  0
  -27.6252    2.9096   30.4339 N   0  0  0  0  0  0  0  0  0  0  0  0
  -27.0163    3.8596   30.2589 C   0  0  0  0  0  0  0  0  0  0  0  0
  -26.1279    4.1007   29.3950 C   0  0  0  0  0  0  0  0  0  0  0  0
  -26.1642    5.1513   28.4403 C   0  0  0  0  0  0  0  0  0  0  0  0
  -25.3950    5.1279   27.2606 C   0  0  0  0  0  0  0  0  0  0  0  0
  -25.4616    6.2103   26.3772 C   0  0  0  0  0  0  0  0  0  0  0  0
  -26.1007    7.4076   26.7997 C   0  0  0  0  0  0  0  0  0  0  0  0
  -26.5657    6.5633   28.6872 C   0  0  0  0  0  0  0  0  0  0  0  0
  -26.5983    7.5784   27.9717 C   0  0  0  0  0  0  0  0  0  0  0  0
  4  7  1  0
  2  8  1  0
  8  9  1  0
  9 10  1  0
 11 12  1  0
  8 13  1  0
 12 13  1  0
  9 18  2  0
  6 19  1  0
 19 20  1  0
 20 21  2  3
 21 22  1  0
  1  2  2  0
  2  3  1  0
  3  6  2  0
  6  5  1  0
  5  4  2  0
  4  1  1  0
 22 23  2  0
 23 24  1  0
 24 25  2  0
 25 27  1  0
 27 26  2  0
 26 22  1  0
 10 16  2  0
 16 17  1  0
 17 15  2  0
 15 14  1  0
 14 11  2  0
 11 10  1  0
M  END

$$$$
