No_1128-gen_results/8p0m/2024-11-26-14-13-15/
     RDKit          3D

 12 12  0  0  0  0  0  0  0  0999 V2000
  -28.0162   -0.8135   28.8779 C   0  0  0  0  0  0  0  0  0  0  0  0
  -28.6208   -1.1855   29.7353 Cl  0  0  0  0  0  0  0  0  0  0  0  0
  -28.3999    0.3569   28.0304 C   0  0  0  0  0  0  0  0  0  0  0  0
  -27.4030    0.9671   27.2868 C   0  0  0  0  0  0  0  0  0  0  0  0
  -26.0290    0.4875   27.1415 C   0  0  0  0  0  0  0  0  0  0  0  0
  -25.6702   -0.5716   27.9924 C   0  0  0  0  0  0  0  0  0  0  0  0
  -26.5528   -1.1334   28.7989 C   0  0  0  0  0  0  0  0  0  0  0  0
  -25.0314    1.0944   26.2735 C   0  0  0  0  0  0  0  0  0  0  0  0
  -23.8752    1.6203   26.8267 C   0  0  0  0  0  0  0  0  0  0  0  0
  -23.8760    2.0752   28.1393 C   0  0  0  0  0  0  0  0  0  0  0  0
  -22.6686    2.2139   28.6535 O   0  0  0  0  0  0  0  0  0  0  0  0
  -24.8744    2.6136   28.6365 O   0  0  0  0  0  0  0  0  0  0  0  0
  1  2  1  0
  5  8  1  0
  8  9  1  0
  9 10  1  0
 10 11  2  0
 10 12  1  0
  1  3  2  0
  3  4  1  0
  4  5  2  0
  5  6  1  0
  6  7  2  0
  7  1  1  0
M  END

$$$$
