No_1048-gen_results/8p0m/2024-11-26-14-13-15/
     RDKit          3D

 15 16  0  0  0  0  0  0  0  0999 V2000
  -28.0162   -0.8135   28.8779 C   0  0  0  0  0  0  0  0  0  0  0  0
  -28.4690   -0.7850   29.8287 C   0  0  0  0  0  0  0  0  0  0  0  0
  -26.5042   -0.7777   28.8766 C   0  0  0  0  0  0  0  0  0  0  0  0
  -25.8103   -0.8531   30.1028 C   0  0  0  0  0  0  0  0  0  0  0  0
  -27.9906   -0.8916   31.2257 C   0  0  0  0  0  0  0  0  0  0  0  0
  -26.6042   -0.8676   31.2652 C   0  0  0  0  0  0  0  0  0  0  0  0
  -30.0739   -0.8360   29.8615 C   0  0  0  0  0  0  0  0  0  0  0  0
  -30.5608   -0.4417   28.9417 O   0  0  0  0  0  0  0  0  0  0  0  0
  -30.7486   -1.4028   30.9473 N   0  0  0  0  0  0  0  0  0  0  0  0
  -32.1750   -1.4682   30.8889 C   0  0  0  0  0  0  0  0  0  0  0  0
  -32.6810   -2.3081   31.6133 C   0  0  0  0  0  0  0  0  0  0  0  0
  -33.9767   -2.6184   31.6363 C   0  0  0  0  0  0  0  0  0  0  0  0
  -34.8147   -1.8122   30.7408 C   0  0  0  0  0  0  0  0  0  0  0  0
  -34.2275   -0.9820   30.0460 C   0  0  0  0  0  0  0  0  0  0  0  0
  -32.8658   -0.6897   29.9861 C   0  0  0  0  0  0  0  0  0  0  0  0
  2  7  1  0
  7  8  2  0
  7  9  1  0
  9 10  1  0
  1  2  2  0
  2  5  1  0
  5  6  2  0
  6  4  1  0
  4  3  2  0
  3  1  1  0
 10 11  2  0
 11 12  1  0
 12 13  2  0
 13 14  1  0
 14 15  2  0
 15 10  1  0
M  END

$$$$
