No_1682-gen_results/8p0m/2024-11-26-14-13-15/
     RDKit          3D

 12 12  0  0  0  0  0  0  0  0999 V2000
  -28.0162   -0.8135   28.8779 C   0  0  0  0  0  0  0  0  0  0  0  0
  -28.4690   -0.7850   29.8287 C   0  0  0  0  0  0  0  0  0  0  0  0
  -26.5455   -0.8762   28.8500 C   0  0  0  0  0  0  0  0  0  0  0  0
  -25.8041   -1.0324   30.0571 C   0  0  0  0  0  0  0  0  0  0  0  0
  -26.5373   -1.0386   31.2171 C   0  0  0  0  0  0  0  0  0  0  0  0
  -27.8843   -0.9532   31.1862 C   0  0  0  0  0  0  0  0  0  0  0  0
  -24.3555   -1.1121   30.0346 C   0  0  0  0  0  0  0  0  0  0  0  0
  -23.9555   -1.8467   30.7883 F   0  0  0  0  0  0  0  0  0  0  0  0
  -23.8529    0.1274   30.4009 F   0  0  0  0  0  0  0  0  0  0  0  0
  -23.8124   -1.3055   28.8248 F   0  0  0  0  0  0  0  0  0  0  0  0
  -25.5209   -2.0074   29.7617 F   0  0  0  0  0  0  0  0  0  0  0  0
  -25.9174   -0.6829   27.6609 O   0  0  0  0  0  0  0  0  0  0  0  0
  1  3  1  0
  3  4  1  0
  4  5  1  0
  2  6  1  0
  5  6  1  0
  4  7  1  0
  7  8  1  0
  7  9  1  0
  7 10  1  0
  4 11  1  0
  3 12  2  0
  1  2  1  0
M  END

$$$$
