No_1372-gen_results/8p0m/2024-11-26-14-13-15/
     RDKit          3D

 20 22  0  0  0  0  0  0  0  0999 V2000
  -28.1229   -1.3353   28.4874 O   0  0  0  0  0  0  0  0  0  0  0  0
  -27.4806   -0.4044   28.7094 C   0  0  0  0  0  0  0  0  0  0  0  0
  -26.3804   -0.0867   27.9394 C   0  0  0  0  0  0  0  0  0  0  0  0
  -27.6664    0.4468   29.8988 N   0  0  0  0  0  0  0  0  0  0  0  0
  -25.1773   -0.4388   28.3946 C   0  0  0  0  0  0  0  0  0  0  0  0
  -24.8702   -0.1050   29.8315 C   0  0  0  0  0  0  0  0  0  0  0  0
  -26.1926    0.2176   30.5619 C   0  0  0  0  0  0  0  0  0  0  0  0
  -26.5239    0.4387   26.6042 C   0  0  0  0  0  0  0  0  0  0  0  0
  -26.4823    1.8096   26.4128 C   0  0  0  0  0  0  0  0  0  0  0  0
  -25.5521   -0.1144   25.5603 C   0  0  0  0  0  0  0  0  0  0  0  0
  -27.9540    0.0501   26.0548 C   0  0  0  0  0  0  0  0  0  0  0  0
  -28.5687    0.8420   25.1143 C   0  0  0  0  0  0  0  0  0  0  0  0
  -29.8708    0.4710   24.7761 C   0  0  0  0  0  0  0  0  0  0  0  0
  -30.5153   -0.4068   25.5852 C   0  0  0  0  0  0  0  0  0  0  0  0
  -31.7743   -0.8819   25.1398 C   0  0  0  0  0  0  0  0  0  0  0  0
  -32.4961   -1.8987   25.8725 C   0  0  0  0  0  0  0  0  0  0  0  0
  -32.0860   -2.1941   27.1469 C   0  0  0  0  0  0  0  0  0  0  0  0
  -30.9843   -1.4765   27.6849 C   0  0  0  0  0  0  0  0  0  0  0  0
  -30.2307   -0.6716   26.9807 C   0  0  0  0  0  0  0  0  0  0  0  0
  -28.6817   -0.6896   26.8555 O   0  0  0  0  0  0  0  0  0  0  0  0
  1  2  2  0
  2  3  1  0
  2  4  1  0
  3  5  2  0
  5  6  1  0
  4  7  2  0
  6  7  2  0
  3  8  1  0
  8  9  1  0
  8 10  1  0
  8 11  1  0
 11 12  2  0
 12 13  1  0
 13 14  2  0
 14 15  1  0
 15 16  1  0
 16 17  2  0
 17 18  1  0
 14 19  1  0
 18 19  2  0
 11 20  1  0
 19 20  1  0
M  END

$$$$
