No_1359-gen_results/8p0m/2024-11-26-14-13-15/
     RDKit          3D

 35 38  0  0  0  0  0  0  0  0999 V2000
  -28.0162   -0.8135   28.8779 C   0  0  0  0  0  0  0  0  0  0  0  0
  -27.0636   -0.1189   28.6079 C   0  0  0  0  0  0  0  0  0  0  0  0
  -26.9287    1.1713   29.0083 C   0  0  0  0  0  0  0  0  0  0  0  0
  -25.7702    2.0341   28.6884 C   0  0  0  0  0  0  0  0  0  0  0  0
  -24.7141    1.4431   27.9188 C   0  0  0  0  0  0  0  0  0  0  0  0
  -24.8590    0.0783   27.5836 C   0  0  0  0  0  0  0  0  0  0  0  0
  -25.9647   -0.6606   27.9164 C   0  0  0  0  0  0  0  0  0  0  0  0
  -28.6995   -0.6441   30.0766 N   0  0  0  0  0  0  0  0  0  0  0  0
  -29.8035   -1.3645   30.5061 C   0  0  0  0  0  0  0  0  0  0  0  0
  -30.3770   -1.0468   31.7411 C   0  0  0  0  0  0  0  0  0  0  0  0
  -30.2963   -2.2974   29.9143 O   0  0  0  0  0  0  0  0  0  0  0  0
  -23.5408    2.1798   27.5646 C   0  0  0  0  0  0  0  0  0  0  0  0
  -22.4446    1.6886   27.1490 N   0  0  0  0  0  0  0  0  0  0  0  0
  -23.4972    3.4283   27.8871 O   0  0  0  0  0  0  0  0  0  0  0  0
  -31.3428   -1.5956   32.1403 C   0  0  0  0  0  0  0  0  0  0  0  0
  -32.1207   -1.4757   33.2834 C   0  0  0  0  0  0  0  0  0  0  0  0
  -31.5660   -0.3999   34.1381 C   0  0  0  0  0  0  0  0  0  0  0  0
  -30.4362    0.2840   33.7851 C   0  0  0  0  0  0  0  0  0  0  0  0
  -29.8212    0.0091   32.6397 C   0  0  0  0  0  0  0  0  0  0  0  0
  -32.2730   -0.0978   35.4380 C   0  0  0  0  0  0  0  0  0  0  0  0
  -32.3534    0.8780   35.8626 C   0  0  0  0  0  0  0  0  0  0  0  0
  -33.0958    1.2353   37.0935 C   0  0  0  0  0  0  0  0  0  0  0  0
  -33.7815    0.1428   37.6762 C   0  0  0  0  0  0  0  0  0  0  0  0
  -33.6713   -1.0779   37.1181 C   0  0  0  0  0  0  0  0  0  0  0  0
  -32.9223   -1.3190   35.9394 C   0  0  0  0  0  0  0  0  0  0  0  0
  -34.5584    0.3708   38.9060 C   0  0  0  0  0  0  0  0  0  0  0  0
  -35.5437    0.2677   39.2834 C   0  0  0  0  0  0  0  0  0  0  0  0
  -36.1186    0.5433   40.5766 C   0  0  0  0  0  0  0  0  0  0  0  0
  -35.2758    1.0761   41.5343 C   0  0  0  0  0  0  0  0  0  0  0  0
  -33.9668    1.2843   41.2030 C   0  0  0  0  0  0  0  0  0  0  0  0
  -33.4831    1.0168   39.9387 C   0  0  0  0  0  0  0  0  0  0  0  0
  -35.7896    1.3808   42.8759 C   0  0  0  0  0  0  0  0  0  0  0  0
  -36.6584    1.1975   43.3746 O   0  0  0  0  0  0  0  0  0  0  0  0
  -34.9019    2.3103   43.4284 O   0  0  0  0  0  0  0  0  0  0  0  0
  -36.7034   -0.2782   38.4096 C   0  0  0  0  0  0  0  0  0  0  0  0
  1  2  1  0
  1  8  1  0
  8  9  1  0
  9 10  1  0
  9 11  2  0
  5 12  1  0
 12 13  2  0
 12 14  1  0
 17 20  1  0
 23 26  1  0
 29 32  1  0
 32 33  1  0
 32 34  2  0
 27 35  1  0
 26 27  2  0
 27 28  1  0
 28 29  2  0
 29 30  1  0
 30 31  2  0
 31 26  1  0
  2  3  2  0
  3  4  1  0
  4  5  2  0
  5  6  1  0
  6  7  2  0
  7  2  1  0
 10 15  2  0
 15 16  1  0
 16 17  2  0
 17 18  1  0
 18 19  2  0
 19 10  1  0
 20 21  2  0
 21 22  1  0
 22 23  2  0
 23 24  1  0
 24 25  2  0
 25 20  1  0
M  END

$$$$
