No_1006-gen_results/8p0m/2024-11-26-14-13-15/
     RDKit          3D

 22 24  0  0  0  0  0  0  0  0999 V2000
  -28.0162   -0.8135   28.8779 C   0  0  0  0  0  0  0  0  0  0  0  0
  -28.4690   -0.7850   29.8287 C   0  0  0  0  0  0  0  0  0  0  0  0
  -28.1960    0.3478   28.0550 C   0  0  0  0  0  0  0  0  0  0  0  0
  -29.0191    1.3501   28.3782 C   0  0  0  0  0  0  0  0  0  0  0  0
  -29.6249    1.2683   29.6012 C   0  0  0  0  0  0  0  0  0  0  0  0
  -29.3821    0.1816   30.4004 C   0  0  0  0  0  0  0  0  0  0  0  0
  -27.5492    0.5027   26.6783 C   0  0  0  0  0  0  0  0  0  0  0  0
  -28.1702    0.3184   25.5296 C   0  0  0  0  0  0  0  0  0  0  0  0
  -26.0994    0.6147   26.6544 C   0  0  0  0  0  0  0  0  0  0  0  0
  -25.4228    0.7557   25.4073 C   0  0  0  0  0  0  0  0  0  0  0  0
  -27.5048    0.4199   24.2615 C   0  0  0  0  0  0  0  0  0  0  0  0
  -26.1317    0.5588   24.2353 C   0  0  0  0  0  0  0  0  0  0  0  0
  -25.2421    0.7720   27.8394 C   0  0  0  0  0  0  0  0  0  0  0  0
  -24.4439    0.2089   28.1882 C   0  0  0  0  0  0  0  0  0  0  0  0
  -23.5223    0.4245   29.3292 C   0  0  0  0  0  0  0  0  0  0  0  0
  -23.9054    1.3389   30.2241 C   0  0  0  0  0  0  0  0  0  0  0  0
  -25.7247    1.9547   28.7201 C   0  0  0  0  0  0  0  0  0  0  0  0
  -24.9815    2.1976   29.8750 C   0  0  0  0  0  0  0  0  0  0  0  0
  -25.4542    3.2342   30.8603 C   0  0  0  0  0  0  0  0  0  0  0  0
  -25.6562    4.3223   30.4931 O   0  0  0  0  0  0  0  0  0  0  0  0
  -25.6845    2.7986   32.0685 O   0  0  0  0  0  0  0  0  0  0  0  0
  -29.2558    2.4142   27.6422 O   0  0  0  0  0  0  0  0  0  0  0  0
  1  3  1  0
  3  4  1  0
  4  5  1  0
  2  6  1  0
  3  7  1  0
  9 13  1  0
 18 19  1  0
 19 20  2  0
 19 21  1  0
  4 22  2  0
  1  2  1  0
  6  5  1  0
  7  8  2  0
  8 11  1  0
 11 12  2  0
 12 10  1  0
 10  9  2  0
  9  7  1  0
 13 14  2  0
 14 15  1  0
 15 16  2  0
 16 18  1  0
 18 17  2  0
 17 13  1  0
M  END

$$$$
