No_1564-gen_results/8p0m/2024-11-26-14-13-15/
     RDKit          3D

 20 22  0  0  0  0  0  0  0  0999 V2000
  -28.0162   -0.8135   28.8779 C   0  0  0  0  0  0  0  0  0  0  0  0
  -27.0636   -0.1189   28.6079 C   0  0  0  0  0  0  0  0  0  0  0  0
  -25.7647   -0.3897   29.0360 C   0  0  0  0  0  0  0  0  0  0  0  0
  -24.5516    0.4058   28.7646 C   0  0  0  0  0  0  0  0  0  0  0  0
  -23.2300    0.1178   29.2575 C   0  0  0  0  0  0  0  0  0  0  0  0
  -23.0942   -1.1309   29.8730 C   0  0  0  0  0  0  0  0  0  0  0  0
  -27.7980   -1.9341   29.8560 C   0  0  0  0  0  0  0  0  0  0  0  0
  -26.5420   -2.3269   30.2580 C   0  0  0  0  0  0  0  0  0  0  0  0
  -25.4514   -1.5516   29.9079 C   0  0  0  0  0  0  0  0  0  0  0  0
  -24.1562   -1.9097   30.2809 C   0  0  0  0  0  0  0  0  0  0  0  0
  -24.6450    1.6582   27.9464 C   0  0  0  0  0  0  0  0  0  0  0  0
  -24.8958    2.7559   28.5615 C   0  0  0  0  0  0  0  0  0  0  0  0
  -25.1728    3.9344   27.8439 C   0  0  0  0  0  0  0  0  0  0  0  0
  -24.4838    1.5571   26.5889 C   0  0  0  0  0  0  0  0  0  0  0  0
  -24.6321    2.6940   25.7850 C   0  0  0  0  0  0  0  0  0  0  0  0
  -24.8902    3.9231   26.4317 C   0  0  0  0  0  0  0  0  0  0  0  0
  -25.0758    2.9107   29.9068 O   0  0  0  0  0  0  0  0  0  0  0  0
  -26.2306    3.1354   30.6083 C   0  0  0  0  0  0  0  0  0  0  0  0
  -26.9237    4.0526   30.4802 C   0  0  0  0  0  0  0  0  0  0  0  0
  -28.1664    4.2123   31.1559 C   0  0  0  0  0  0  0  0  0  0  0  0
  4 11  1  0
 12 17  1  0
 17 18  1  0
 18 19  2  3
 19 20  1  0
  1  2  2  0
  2  3  1  0
  9  8  1  0
  8  7  2  0
  7  1  1  0
 11 12  2  0
 12 13  1  0
 13 16  2  0
 16 15  1  0
 15 14  2  0
 14 11  1  0
  3  4  2  0
  4  5  1  0
  5  6  2  0
  6 10  1  0
 10  9  2  0
  9  3  1  0
M  END

$$$$
