No_1227-gen_results/8p0m/2024-11-26-14-13-15/
     RDKit          3D

 19 20  0  0  0  0  0  0  0  0999 V2000
  -28.0162   -0.8135   28.8779 C   0  0  0  0  0  0  0  0  0  0  0  0
  -28.4690   -0.7850   29.8287 C   0  0  0  0  0  0  0  0  0  0  0  0
  -26.5042   -0.7777   28.8766 C   0  0  0  0  0  0  0  0  0  0  0  0
  -25.8103   -0.8531   30.1028 C   0  0  0  0  0  0  0  0  0  0  0  0
  -27.9906   -0.8916   31.2257 C   0  0  0  0  0  0  0  0  0  0  0  0
  -26.6042   -0.8676   31.2652 C   0  0  0  0  0  0  0  0  0  0  0  0
  -30.0739   -0.8360   29.8615 C   0  0  0  0  0  0  0  0  0  0  0  0
  -30.6529   -1.7943   30.2676 N   0  0  0  0  0  0  0  0  0  0  0  0
  -30.5853   -0.3977   28.4870 C   0  0  0  0  0  0  0  0  0  0  0  0
  -30.1747    0.6348   27.9233 N   0  0  0  0  0  0  0  0  0  0  0  0
  -30.7312    1.4267   27.1861 C   0  0  0  0  0  0  0  0  0  0  0  0
  -32.0460    1.3438   27.0348 C   0  0  0  0  0  0  0  0  0  0  0  0
  -31.3396   -1.1453   27.8536 O   0  0  0  0  0  0  0  0  0  0  0  0
  -32.8652    1.1507   27.7026 C   0  0  0  0  0  0  0  0  0  0  0  0
  -32.6589    1.2886   29.1503 C   0  0  0  0  0  0  0  0  0  0  0  0
  -33.7009    0.8792   30.0916 C   0  0  0  0  0  0  0  0  0  0  0  0
  -34.8504    0.7444   29.6246 C   0  0  0  0  0  0  0  0  0  0  0  0
  -35.1885    0.7509   28.2719 C   0  0  0  0  0  0  0  0  0  0  0  0
  -34.2355    0.9388   27.3737 C   0  0  0  0  0  0  0  0  0  0  0  0
  2  7  1  0
  7  8  1  0
  7  9  1  0
  9 10  1  0
 10 11  2  3
 11 12  1  0
  9 13  2  0
 12 14  1  0
 14 15  2  0
 15 16  1  0
 16 17  2  0
 17 18  1  0
 18 19  2  0
 19 14  1  0
  1  2  2  0
  2  5  1  0
  5  6  2  0
  6  4  1  0
  4  3  2  0
  3  1  1  0
M  END

$$$$
