No_155-gen_results/8p0m/2024-11-26-14-13-15/
     RDKit          3D

 22 23  0  0  0  0  0  0  0  0999 V2000
  -28.0162   -0.8135   28.8779 C   0  0  0  0  0  0  0  0  0  0  0  0
  -27.0636   -0.1189   28.6079 C   0  0  0  0  0  0  0  0  0  0  0  0
  -26.9716    0.7139   27.5060 C   0  0  0  0  0  0  0  0  0  0  0  0
  -28.1053    0.7744   26.6421 C   0  0  0  0  0  0  0  0  0  0  0  0
  -29.2008    0.1044   27.0527 C   0  0  0  0  0  0  0  0  0  0  0  0
  -28.0219   -1.5899   30.0879 C   0  0  0  0  0  0  0  0  0  0  0  0
  -29.1640   -0.6394   28.1484 C   0  0  0  0  0  0  0  0  0  0  0  0
  -28.8247   -1.8905   30.7103 O   0  0  0  0  0  0  0  0  0  0  0  0
  -26.8426   -2.4486   30.1486 O   0  0  0  0  0  0  0  0  0  0  0  0
  -30.3894    0.1979   26.1788 C   0  0  0  0  0  0  0  0  0  0  0  0
  -31.0492    0.9944   26.2014 O   0  0  0  0  0  0  0  0  0  0  0  0
  -30.6641   -0.9078   25.4657 O   0  0  0  0  0  0  0  0  0  0  0  0
  -25.7076    1.4531   27.1238 C   0  0  0  0  0  0  0  0  0  0  0  0
  -24.7213    0.8621   27.4408 F   0  0  0  0  0  0  0  0  0  0  0  0
  -25.6865    1.6933   25.7699 F   0  0  0  0  0  0  0  0  0  0  0  0
  -25.7941    2.7013   27.6527 F   0  0  0  0  0  0  0  0  0  0  0  0
  -25.6290   -1.8229   30.1850 C   0  0  0  0  0  0  0  0  0  0  0  0
  -25.2191   -0.9786   31.1475 C   0  0  0  0  0  0  0  0  0  0  0  0
  -23.9331   -0.4146   31.1131 C   0  0  0  0  0  0  0  0  0  0  0  0
  -23.0170   -0.7456   30.0614 C   0  0  0  0  0  0  0  0  0  0  0  0
  -24.6387   -2.4391   29.2839 C   0  0  0  0  0  0  0  0  0  0  0  0
  -23.3397   -1.7880   29.2421 C   0  0  0  0  0  0  0  0  0  0  0  0
  1  6  1  0
  6  8  2  0
  6  9  1  0
  5 10  1  0
 10 11  2  0
 10 12  1  0
  3 13  1  0
 13 14  1  0
 13 15  1  0
 13 16  1  0
  9 17  1  0
 17 18  2  0
 18 19  1  0
 19 20  2  0
 20 22  1  0
 22 21  2  0
 21 17  1  0
  1  2  2  0
  2  3  1  0
  3  4  2  0
  4  5  1  0
  5  7  2  0
  7  1  1  0
M  END

$$$$
