No_1836-gen_results/8p0m/2024-11-26-14-13-15/
     RDKit          3D

 25 29  0  0  0  0  0  0  0  0999 V2000
  -28.0162   -0.8135   28.8779 C   0  0  0  0  0  0  0  0  0  0  0  0
  -28.4690   -0.7850   29.8287 C   0  0  0  0  0  0  0  0  0  0  0  0
  -26.5455   -0.8762   28.8500 C   0  0  0  0  0  0  0  0  0  0  0  0
  -25.8041   -1.0324   30.0571 C   0  0  0  0  0  0  0  0  0  0  0  0
  -26.5373   -1.0386   31.2171 C   0  0  0  0  0  0  0  0  0  0  0  0
  -27.8843   -0.9532   31.1862 C   0  0  0  0  0  0  0  0  0  0  0  0
  -24.3655   -1.1134   30.0483 C   0  0  0  0  0  0  0  0  0  0  0  0
  -23.6254   -0.9434   29.0230 C   0  0  0  0  0  0  0  0  0  0  0  0
  -22.3775   -0.3348   29.0683 C   0  0  0  0  0  0  0  0  0  0  0  0
  -21.9934    0.7172   28.8174 C   0  0  0  0  0  0  0  0  0  0  0  0
  -22.8988    1.6876   28.2449 C   0  0  0  0  0  0  0  0  0  0  0  0
  -23.9977    1.3611   27.5813 C   0  0  0  0  0  0  0  0  0  0  0  0
  -24.4075   -0.4878   27.9131 N   0  0  0  0  0  0  0  0  0  0  0  0
  -25.7580   -0.5682   27.7295 N   0  0  0  0  0  0  0  0  0  0  0  0
  -24.7927    1.9875   26.7550 C   0  0  0  0  0  0  0  0  0  0  0  0
  -25.3293    1.6118   25.7320 C   0  0  0  0  0  0  0  0  0  0  0  0
  -25.4870    3.1671   27.3922 C   0  0  0  0  0  0  0  0  0  0  0  0
  -25.1785    3.6995   28.5892 C   0  0  0  0  0  0  0  0  0  0  0  0
  -25.7930    4.8623   29.0781 C   0  0  0  0  0  0  0  0  0  0  0  0
  -25.6975    5.2952   30.3946 C   0  0  0  0  0  0  0  0  0  0  0  0
  -25.3440    4.3214   31.3834 C   0  0  0  0  0  0  0  0  0  0  0  0
  -24.8933    3.0489   30.9927 C   0  0  0  0  0  0  0  0  0  0  0  0
  -24.9606    2.7332   29.6783 C   0  0  0  0  0  0  0  0  0  0  0  0
  -26.5028    2.0504   25.2814 N   0  0  0  0  0  0  0  0  0  0  0  0
  -26.4966    3.5522   26.4073 C   0  0  0  0  0  0  0  0  0  0  0  0
  4  7  1  0
  8  9  1  0
 10 11  1  0
  8 13  1  0
 12 13  1  0
  3 14  1  0
 13 14  1  0
 12 15  1  0
 15 16  1  0
 15 17  1  0
 17 18  1  0
 16 24  2  0
 17 25  1  0
 24 25  1  0
  9 10  1  0
 11 12  1  0
  8  7  1  0
 18 19  2  0
 19 20  1  0
 20 21  2  0
 21 22  1  0
 22 23  2  0
 23 18  1  0
  1  2  2  0
  2  6  1  0
  6  5  2  0
  5  4  1  0
  4  3  2  0
  3  1  1  0
M  END

$$$$
