No_1797-gen_results/8p0m/2024-11-26-14-13-15/
     RDKit          3D

 31 33  0  0  0  0  0  0  0  0999 V2000
  -28.1493   -0.8198   28.9079 Cl  0  0  0  0  0  0  0  0  0  0  0  0
  -26.9116   -0.0797   28.9452 C   0  0  0  0  0  0  0  0  0  0  0  0
  -25.9665   -0.2123   29.6235 C   0  0  0  0  0  0  0  0  0  0  0  0
  -24.7040    0.5534   29.6218 C   0  0  0  0  0  0  0  0  0  0  0  0
  -24.5238    1.1992   28.7552 C   0  0  0  0  0  0  0  0  0  0  0  0
  -25.4293    1.4953   27.7201 C   0  0  0  0  0  0  0  0  0  0  0  0
  -26.5605    0.7781   27.8350 C   0  0  0  0  0  0  0  0  0  0  0  0
  -23.1637    2.0263   28.6063 C   0  0  0  0  0  0  0  0  0  0  0  0
  -22.1618    1.2905   28.0247 N   0  0  0  0  0  0  0  0  0  0  0  0
  -27.6012    1.0035   26.7283 C   0  0  0  0  0  0  0  0  0  0  0  0
  -27.2520    0.8905   25.5295 N   0  0  0  0  0  0  0  0  0  0  0  0
  -28.1063    0.7682   24.4937 C   0  0  0  0  0  0  0  0  0  0  0  0
  -28.8613    1.4431   27.0294 C   0  0  0  0  0  0  0  0  0  0  0  0
  -29.8034    1.5195   26.0513 C   0  0  0  0  0  0  0  0  0  0  0  0
  -29.4034    1.2780   24.7381 C   0  0  0  0  0  0  0  0  0  0  0  0
  -21.5551    0.3251   28.6816 C   0  0  0  0  0  0  0  0  0  0  0  0
  -21.0210    2.2211   27.6337 C   0  0  0  0  0  0  0  0  0  0  0  0
  -22.3895   -0.7182   29.3444 C   0  0  0  0  0  0  0  0  0  0  0  0
  -20.4178   -0.3281   27.8503 C   0  0  0  0  0  0  0  0  0  0  0  0
  -30.3027    1.3117   23.5801 C   0  0  0  0  0  0  0  0  0  0  0  0
  -30.7863    2.6254   23.3320 C   0  0  0  0  0  0  0  0  0  0  0  0
  -31.8010    2.8061   22.3311 C   0  0  0  0  0  0  0  0  0  0  0  0
  -32.3241    4.0345   21.9704 C   0  0  0  0  0  0  0  0  0  0  0  0
  -33.2579    4.1097   20.8725 C   0  0  0  0  0  0  0  0  0  0  0  0
  -33.5202    2.8800   20.1353 C   0  0  0  0  0  0  0  0  0  0  0  0
  -32.9805    1.7114   20.4782 C   0  0  0  0  0  0  0  0  0  0  0  0
  -32.0960    1.6516   21.5567 C   0  0  0  0  0  0  0  0  0  0  0  0
  -34.4942    2.9554   18.9786 C   0  0  0  0  0  0  0  0  0  0  0  0
  -34.7565    1.9354   18.4856 F   0  0  0  0  0  0  0  0  0  0  0  0
  -35.5975    3.6704   19.4272 F   0  0  0  0  0  0  0  0  0  0  0  0
  -33.9244    3.7474   17.9923 F   0  0  0  0  0  0  0  0  0  0  0  0
  1  2  1  0
  5  8  1  0
  8  9  1  0
  7 10  1  0
  9 16  1  0
  9 17  1  0
 16 18  1  0
 16 19  1  0
 15 20  1  0
 20 21  2  3
 21 22  1  0
 25 28  1  0
 28 29  1  0
 28 30  1  0
 28 31  1  0
  2  3  2  0
  3  4  1  0
  4  5  2  0
  5  6  1  0
  6  7  2  0
  7  2  1  0
 22 23  2  0
 23 24  1  0
 24 25  2  0
 25 26  1  0
 26 27  2  0
 27 22  1  0
 10 11  2  0
 11 12  1  0
 12 15  2  0
 15 14  1  0
 14 13  2  0
 13 10  1  0
M  END

$$$$
