No_1995-gen_results/8p0m/2024-11-26-14-13-15/
     RDKit          3D

 32 35  0  0  0  0  0  0  0  0999 V2000
  -28.0162   -0.8135   28.8779 C   0  0  0  0  0  0  0  0  0  0  0  0
  -28.4690   -0.7850   29.8287 C   0  0  0  0  0  0  0  0  0  0  0  0
  -26.5042   -0.7777   28.8766 C   0  0  0  0  0  0  0  0  0  0  0  0
  -25.6540   -0.6597   27.7191 C   0  0  0  0  0  0  0  0  0  0  0  0
  -27.9180   -0.9374   31.1824 C   0  0  0  0  0  0  0  0  0  0  0  0
  -26.5423   -0.9399   31.2606 C   0  0  0  0  0  0  0  0  0  0  0  0
  -25.7832   -0.8935   30.1201 C   0  0  0  0  0  0  0  0  0  0  0  0
  -24.3096   -0.3015   27.8531 C   0  0  0  0  0  0  0  0  0  0  0  0
  -23.6669   -0.4595   29.0986 C   0  0  0  0  0  0  0  0  0  0  0  0
  -24.3700   -0.6645   30.2027 C   0  0  0  0  0  0  0  0  0  0  0  0
  -22.1946   -0.2290   29.1314 C   0  0  0  0  0  0  0  0  0  0  0  0
  -21.2882    0.5666   28.7716 N   0  0  0  0  0  0  0  0  0  0  0  0
  -30.0690   -0.8707   29.8730 C   0  0  0  0  0  0  0  0  0  0  0  0
  -30.5203   -0.2892   28.9840 O   0  0  0  0  0  0  0  0  0  0  0  0
  -30.7554   -1.4980   30.8468 N   0  0  0  0  0  0  0  0  0  0  0  0
  -30.2835   -2.2348   31.9242 C   0  0  0  0  0  0  0  0  0  0  0  0
  -32.2183   -1.4667   30.6609 C   0  0  0  0  0  0  0  0  0  0  0  0
  -32.7886   -2.5438   30.7378 C   0  0  0  0  0  0  0  0  0  0  0  0
  -31.0785   -3.5006   32.1521 C   0  0  0  0  0  0  0  0  0  0  0  0
  -32.4100   -3.4769   31.7907 C   0  0  0  0  0  0  0  0  0  0  0  0
  -34.1874   -2.8085   30.1735 C   0  0  0  0  0  0  0  0  0  0  0  0
  -34.8999   -1.9933   29.8623 N   0  0  0  0  0  0  0  0  0  0  0  0
  -34.7457   -0.7624   30.0655 C   0  0  0  0  0  0  0  0  0  0  0  0
  -33.5888    0.0546   30.1927 C   0  0  0  0  0  0  0  0  0  0  0  0
  -32.5325   -0.1589   30.3635 C   0  0  0  0  0  0  0  0  0  0  0  0
  -36.2627   -2.4816   29.4131 C   0  0  0  0  0  0  0  0  0  0  0  0
  -34.2517   -4.3153   29.2977 S   0  0  0  0  0  0  0  0  0  0  0  0
  -33.9635   -4.3668   28.0113 C   0  0  0  0  0  0  0  0  0  0  0  0
  -33.2536   -5.3504   27.4310 C   0  0  0  0  0  0  0  0  0  0  0  0
  -32.7538   -5.0280   26.4033 O   0  0  0  0  0  0  0  0  0  0  0  0
  -34.3192   -3.2736   27.0584 C   0  0  0  0  0  0  0  0  0  0  0  0
  -33.6240   -3.2194   25.8851 C   0  0  0  0  0  0  0  0  0  0  0  0
  9 11  1  0
 11 12  3  0
  2 13  1  0
 13 14  2  0
 13 15  1  0
 15 16  1  0
 15 17  1  0
 18 20  1  0
 19 20  1  0
 18 21  1  0
 21 22  1  0
 22 23  1  0
 23 24  2  0
 17 25  1  0
 24 25  1  0
 22 26  1  0
 21 27  1  0
 27 28  1  0
 28 29  1  0
 29 30  2  0
 28 31  1  0
 31 32  1  0
 16 19  1  0
 18 17  1  0
  1  2  2  0
  2  5  1  0
  5  6  2  0
  6  7  1  0
  3  1  1  0
  3  4  2  0
  4  8  1  0
  8  9  2  0
  9 10  1  0
 10  7  2  0
  7  3  1  0
M  END

$$$$
