No_1416-gen_results/8p0m/2024-11-26-14-13-15/
     RDKit          3D

 11 12  0  0  0  0  0  0  0  0999 V2000
  -28.1229   -1.3353   28.4874 O   0  0  0  0  0  0  0  0  0  0  0  0
  -27.0637   -0.8242   28.8687 C   0  0  0  0  0  0  0  0  0  0  0  0
  -25.9773   -1.1378   28.8137 N   0  0  0  0  0  0  0  0  0  0  0  0
  -24.7669   -0.3464   29.1634 C   0  0  0  0  0  0  0  0  0  0  0  0
  -27.2068    0.5621   29.5563 N   0  0  0  0  0  0  0  0  0  0  0  0
  -25.0468    0.8407   29.7359 C   0  0  0  0  0  0  0  0  0  0  0  0
  -26.2843    1.2862   29.8834 C   0  0  0  0  0  0  0  0  0  0  0  0
  -23.4195   -0.8772   28.9871 C   0  0  0  0  0  0  0  0  0  0  0  0
  -22.5003   -0.4183   29.2866 C   0  0  0  0  0  0  0  0  0  0  0  0
  -22.5500    1.0420   29.7639 C   0  0  0  0  0  0  0  0  0  0  0  0
  -23.7659    1.5500   30.0865 C   0  0  0  0  0  0  0  0  0  0  0  0
  1  2  2  0
  2  3  1  0
  3  4  1  0
  2  5  1  0
  6  7  1  0
  7  5  1  0
  4  8  2  0
  8  9  1  0
  9 10  2  0
 10 11  1  0
 11  6  2  0
  6  4  1  0
M  END

$$$$
