No_1033-gen_results/8p0m/2024-11-26-14-13-15/
     RDKit          3D

 15 16  0  0  0  0  0  0  0  0999 V2000
  -28.0162   -0.8135   28.8779 C   0  0  0  0  0  0  0  0  0  0  0  0
  -27.0636   -0.1190   28.6079 C   0  0  0  0  0  0  0  0  0  0  0  0
  -25.7647   -0.3897   29.0360 C   0  0  0  0  0  0  0  0  0  0  0  0
  -24.5516    0.4058   28.7646 C   0  0  0  0  0  0  0  0  0  0  0  0
  -24.6957    1.4480   27.7988 C   0  0  0  0  0  0  0  0  0  0  0  0
  -25.9755    1.7250   27.3077 C   0  0  0  0  0  0  0  0  0  0  0  0
  -27.0718    1.0134   27.6535 C   0  0  0  0  0  0  0  0  0  0  0  0
  -28.6043   -0.4743   30.2323 C   0  0  0  0  0  0  0  0  0  0  0  0
  -29.6322   -0.5049   30.6010 C   0  0  0  0  0  0  0  0  0  0  0  0
  -30.1085   -0.1742   31.9668 C   0  0  0  0  0  0  0  0  0  0  0  0
  -29.1617    0.1610   32.9068 C   0  0  0  0  0  0  0  0  0  0  0  0
  -27.8097    0.1269   32.5283 C   0  0  0  0  0  0  0  0  0  0  0  0
  -27.4816   -0.1779   31.3039 C   0  0  0  0  0  0  0  0  0  0  0  0
  -23.4991    2.2013   27.4456 C   0  0  0  0  0  0  0  0  0  0  0  0
  -22.3216    1.8346   27.7412 O   0  0  0  0  0  0  0  0  0  0  0  0
  1  2  2  3
  2  3  1  0
  3  4  1  0
  4  5  1  0
  5  6  1  0
  2  7  1  0
  6  7  1  0
  1  8  1  0
  5 14  1  0
 14 15  2  0
  8  9  2  0
  9 10  1  0
 10 11  2  0
 11 12  1  0
 12 13  2  0
 13  8  1  0
M  END

$$$$
