No_1681-gen_results/8p0m/2024-11-26-14-13-15/
     RDKit          3D

 18 19  0  0  0  0  0  0  0  0999 V2000
  -28.0162   -0.8135   28.8779 C   0  0  0  0  0  0  0  0  0  0  0  0
  -27.0636   -0.1190   28.6079 C   0  0  0  0  0  0  0  0  0  0  0  0
  -26.9287    1.1713   29.0083 C   0  0  0  0  0  0  0  0  0  0  0  0
  -25.7702    2.0341   28.6884 C   0  0  0  0  0  0  0  0  0  0  0  0
  -24.7141    1.4431   27.9188 C   0  0  0  0  0  0  0  0  0  0  0  0
  -24.8590    0.0783   27.5836 C   0  0  0  0  0  0  0  0  0  0  0  0
  -25.9647   -0.6606   27.9164 C   0  0  0  0  0  0  0  0  0  0  0  0
  -29.1701   -0.2984   28.9471 N   0  0  0  0  0  0  0  0  0  0  0  0
  -29.8110    0.1551   29.8586 C   0  0  0  0  0  0  0  0  0  0  0  0
  -29.5832    0.1166   30.9538 C   0  0  0  0  0  0  0  0  0  0  0  0
  -30.3421    0.6940   32.0517 C   0  0  0  0  0  0  0  0  0  0  0  0
  -30.0158    0.5998   33.4277 C   0  0  0  0  0  0  0  0  0  0  0  0
  -28.8547   -0.1312   33.7765 C   0  0  0  0  0  0  0  0  0  0  0  0
  -28.0371   -0.7024   32.8215 C   0  0  0  0  0  0  0  0  0  0  0  0
  -28.3610   -0.5927   31.4928 C   0  0  0  0  0  0  0  0  0  0  0  0
  -23.5181    2.1440   27.5745 C   0  0  0  0  0  0  0  0  0  0  0  0
  -22.3089    1.6446   27.4937 N   0  0  0  0  0  0  0  0  0  0  0  0
  -23.7189    3.1760   26.7571 O   0  0  0  0  0  0  0  0  0  0  0  0
  1  2  1  0
  1  8  1  0
  8  9  1  0
  5 16  1  0
 16 17  1  0
 16 18  2  0
  9 10  1  0
  2  3  2  0
  3  4  1  0
  4  5  2  0
  5  6  1  0
  6  7  2  0
  7  2  1  0
 10 11  2  0
 11 12  1  0
 12 13  2  0
 13 14  1  0
 14 15  2  0
 15 10  1  0
M  END

$$$$
