No_1998-gen_results/8p0m/2024-11-26-14-13-15/
     RDKit          3D

 33 35  0  0  0  0  0  0  0  0999 V2000
  -28.0162   -0.8135   28.8779 C   0  0  0  0  0  0  0  0  0  0  0  0
  -27.0636   -0.1190   28.6079 C   0  0  0  0  0  0  0  0  0  0  0  0
  -25.7647   -0.3897   29.0360 C   0  0  0  0  0  0  0  0  0  0  0  0
  -25.5296   -1.5302   29.9014 C   0  0  0  0  0  0  0  0  0  0  0  0
  -26.6577   -2.2915   30.2035 C   0  0  0  0  0  0  0  0  0  0  0  0
  -27.8548   -1.9555   29.7630 C   0  0  0  0  0  0  0  0  0  0  0  0
  -24.6574    0.3796   28.7741 O   0  0  0  0  0  0  0  0  0  0  0  0
  -23.4141    0.0771   29.1279 C   0  0  0  0  0  0  0  0  0  0  0  0
  -22.3936    1.0533   28.8512 C   0  0  0  0  0  0  0  0  0  0  0  0
  -21.1930    0.6207   28.2675 C   0  0  0  0  0  0  0  0  0  0  0  0
  -21.0106   -0.4776   28.7865 C   0  0  0  0  0  0  0  0  0  0  0  0
  -22.7024   -1.1641   28.6340 C   0  0  0  0  0  0  0  0  0  0  0  0
  -23.4511    0.0589   30.7878 C   0  0  0  0  0  0  0  0  0  0  0  0
  -29.0648   -2.7839   30.1444 C   0  0  0  0  0  0  0  0  0  0  0  0
  -28.9596   -4.0060   30.1999 O   0  0  0  0  0  0  0  0  0  0  0  0
  -30.2188   -2.2132   30.3739 N   0  0  0  0  0  0  0  0  0  0  0  0
  -31.3966   -2.9863   30.7299 C   0  0  0  0  0  0  0  0  0  0  0  0
  -27.1425    1.0466   27.6670 C   0  0  0  0  0  0  0  0  0  0  0  0
  -26.3489    1.6180   27.1596 O   0  0  0  0  0  0  0  0  0  0  0  0
  -28.3554    1.6092   27.8462 O   0  0  0  0  0  0  0  0  0  0  0  0
  -31.5875   -3.3576   31.8618 C   0  0  0  0  0  0  0  0  0  0  0  0
  -31.3043   -2.4579   32.8424 C   0  0  0  0  0  0  0  0  0  0  0  0
  -31.1078   -1.1294   32.6324 C   0  0  0  0  0  0  0  0  0  0  0  0
  -30.4900   -0.3354   33.7067 C   0  0  0  0  0  0  0  0  0  0  0  0
  -30.2370   -0.8944   34.8599 C   0  0  0  0  0  0  0  0  0  0  0  0
  -30.4352   -2.2105   35.1624 C   0  0  0  0  0  0  0  0  0  0  0  0
  -30.8630   -3.0094   34.1425 C   0  0  0  0  0  0  0  0  0  0  0  0
  -32.5193   -2.0352   30.1552 C   0  0  0  0  0  0  0  0  0  0  0  0
  -32.3312   -1.2547   29.1755 C   0  0  0  0  0  0  0  0  0  0  0  0
  -33.2906   -0.3671   28.8085 C   0  0  0  0  0  0  0  0  0  0  0  0
  -33.0645    0.6166   27.7392 C   0  0  0  0  0  0  0  0  0  0  0  0
  -31.8392    0.6049   27.0734 C   0  0  0  0  0  0  0  0  0  0  0  0
  -30.9135   -0.3763   27.3575 C   0  0  0  0  0  0  0  0  0  0  0  0
  3  7  1  0
  7  8  1  0
  8  9  1  0
  9 10  2  0
 10 11  1  0
  8 12  1  0
 11 12  1  0
  8 13  1  0
  6 14  1  0
 14 15  2  0
 14 16  1  0
 16 17  1  0
  2 18  1  0
 18 19  2  0
 18 20  1  0
 17 21  1  0
 17 28  1  0
 28 29  2  3
 29 30  1  0
 30 31  2  3
 31 32  1  0
 32 33  2  0
 21 22  1  0
  1  2  2  0
  2  3  1  0
  3  4  2  0
  4  5  1  0
  5  6  2  0
  6  1  1  0
 22 23  2  0
 23 24  1  0
 24 25  2  0
 25 26  1  0
 26 27  2  0
 27 22  1  0
M  END

$$$$
