No_1676-gen_results/8p0m/2024-11-26-14-13-15/
     RDKit          3D

 35 36  0  0  0  0  0  0  0  0999 V2000
  -28.0162   -0.8135   28.8779 C   0  0  0  0  0  0  0  0  0  0  0  0
  -27.0636   -0.1189   28.6079 C   0  0  0  0  0  0  0  0  0  0  0  0
  -26.9287    1.1713   29.0083 C   0  0  0  0  0  0  0  0  0  0  0  0
  -25.7702    2.0341   28.6884 C   0  0  0  0  0  0  0  0  0  0  0  0
  -24.7141    1.4431   27.9188 C   0  0  0  0  0  0  0  0  0  0  0  0
  -24.8590    0.0783   27.5836 C   0  0  0  0  0  0  0  0  0  0  0  0
  -25.9647   -0.6606   27.9164 C   0  0  0  0  0  0  0  0  0  0  0  0
  -27.9821   -1.6367   30.0748 N   0  0  0  0  0  0  0  0  0  0  0  0
  -29.1950   -0.6035   28.4621 O   0  0  0  0  0  0  0  0  0  0  0  0
  -26.7538   -1.9334   30.7876 C   0  0  0  0  0  0  0  0  0  0  0  0
  -29.1048   -2.4435   30.4917 C   0  0  0  0  0  0  0  0  0  0  0  0
  -23.5133    2.1530   27.5481 C   0  0  0  0  0  0  0  0  0  0  0  0
  -22.4314    1.7013   27.1528 N   0  0  0  0  0  0  0  0  0  0  0  0
  -23.7733    3.4035   27.1615 O   0  0  0  0  0  0  0  0  0  0  0  0
  -28.9281   -3.7977   30.4368 C   0  0  0  0  0  0  0  0  0  0  0  0
  -29.7946   -4.5132   30.8783 O   0  0  0  0  0  0  0  0  0  0  0  0
  -27.8425   -4.3933   30.0209 O   0  0  0  0  0  0  0  0  0  0  0  0
  -21.7228    0.7391   28.0271 C   0  0  0  0  0  0  0  0  0  0  0  0
  -21.3225    1.1347   29.2409 C   0  0  0  0  0  0  0  0  0  0  0  0
  -21.0029    0.0347   29.9925 O   0  0  0  0  0  0  0  0  0  0  0  0
  -30.0722   -1.8614   30.8467 O   0  0  0  0  0  0  0  0  0  0  0  0
  -22.0876   -1.0628   29.6720 C   0  0  0  0  0  0  0  0  0  0  0  0
  -22.5959   -0.3683   28.2219 O   0  0  0  0  0  0  0  0  0  0  0  0
  -23.2208   -0.9482   30.5809 C   0  0  0  0  0  0  0  0  0  0  0  0
  -23.5974   -2.0705   31.0495 O   0  0  0  0  0  0  0  0  0  0  0  0
  -25.7252    3.4220   29.1265 C   0  0  0  0  0  0  0  0  0  0  0  0
  -25.5649    3.5579   30.3500 O   0  0  0  0  0  0  0  0  0  0  0  0
  -25.8429    4.3370   28.2977 O   0  0  0  0  0  0  0  0  0  0  0  0
  -26.0290    5.6470   28.8718 C   0  0  0  0  0  0  0  0  0  0  0  0
  -25.6850    6.7349   27.9893 C   0  0  0  0  0  0  0  0  0  0  0  0
  -25.6121    6.5703   26.7580 C   0  0  0  0  0  0  0  0  0  0  0  0
  -24.9187    7.6899   25.9721 C   0  0  0  0  0  0  0  0  0  0  0  0
  -25.2928    8.0371   28.4972 C   0  0  0  0  0  0  0  0  0  0  0  0
  -25.4090    8.3267   29.9909 C   0  0  0  0  0  0  0  0  0  0  0  0
  -24.8477    9.4546   30.4582 C   0  0  0  0  0  0  0  0  0  0  0  0
  1  2  1  0
  1  8  1  0
  1  9  2  0
  8 10  1  0
  8 11  1  0
  5 12  1  0
 12 13  1  0
 12 14  2  0
 11 15  1  0
 15 16  2  0
 15 17  1  0
 13 18  1  0
 18 19  1  0
 19 20  1  0
 11 21  2  0
 20 22  1  0
 18 23  1  0
 22 23  1  0
 22 24  1  0
 24 25  1  0
  4 26  1  0
 26 27  2  0
 26 28  1  0
 28 29  1  0
 29 30  1  0
 30 31  1  0
 31 32  2  0
 30 33  1  0
 33 34  1  0
 34 35  2  0
  2  3  2  0
  3  4  1  0
  4  5  2  0
  5  6  1  0
  6  7  2  0
  7  2  1  0
M  END

$$$$
