No_1032-gen_results/8p0m/2024-11-26-14-13-15/
     RDKit          3D

 26 29  0  0  0  0  0  0  0  0999 V2000
  -28.0162   -0.8135   28.8779 C   0  0  0  0  0  0  0  0  0  0  0  0
  -27.0636   -0.1189   28.6079 C   0  0  0  0  0  0  0  0  0  0  0  0
  -27.0010    0.6913   27.4910 C   0  0  0  0  0  0  0  0  0  0  0  0
  -25.8548    1.4825   27.0830 C   0  0  0  0  0  0  0  0  0  0  0  0
  -24.6901    1.4526   27.8807 C   0  0  0  0  0  0  0  0  0  0  0  0
  -24.7379    0.6010   29.0416 C   0  0  0  0  0  0  0  0  0  0  0  0
  -25.8234   -0.1688   29.3887 C   0  0  0  0  0  0  0  0  0  0  0  0
  -28.7568   -0.5479   30.0191 N   0  0  0  0  0  0  0  0  0  0  0  0
  -28.9317    0.3890   30.5031 C   0  0  0  0  0  0  0  0  0  0  0  0
  -29.0495    1.5382   29.9451 C   0  0  0  0  0  0  0  0  0  0  0  0
  -29.3524    2.7841   30.6720 C   0  0  0  0  0  0  0  0  0  0  0  0
  -29.3522    4.0367   30.0216 C   0  0  0  0  0  0  0  0  0  0  0  0
  -29.1011    4.0564   28.6129 C   0  0  0  0  0  0  0  0  0  0  0  0
  -28.8471    2.9203   27.9422 C   0  0  0  0  0  0  0  0  0  0  0  0
  -28.7593    1.7236   28.5703 C   0  0  0  0  0  0  0  0  0  0  0  0
  -27.5912    1.2198   27.8235 C   0  0  0  0  0  0  0  0  0  0  0  0
  -27.8268    2.4554   27.1656 N   0  0  0  0  0  0  0  0  0  0  0  0
  -28.4272    2.4202   25.8565 C   0  0  0  0  0  0  0  0  0  0  0  0
  -29.4979   -1.8628   30.6096 C   0  0  0  0  0  0  0  0  0  0  0  0
  -29.3177   -2.8411   30.3749 O   0  0  0  0  0  0  0  0  0  0  0  0
  -30.0979   -1.5525   31.8610 N   0  0  0  0  0  0  0  0  0  0  0  0
  -30.7408   -2.6326   32.5643 C   0  0  0  0  0  0  0  0  0  0  0  0
  -23.4619    0.5765   29.8787 C   0  0  0  0  0  0  0  0  0  0  0  0
  -22.3702    0.7416   29.3981 O   0  0  0  0  0  0  0  0  0  0  0  0
  -23.6391    0.4499   31.2194 O   0  0  0  0  0  0  0  0  0  0  0  0
  -29.0817    5.3870   27.9148 C   0  0  0  0  0  0  0  0  0  0  0  0
  1  2  1  0
  1  8  1  0
  8  9  1  0
  3 16  1  0
 15 16  1  0
 14 17  1  0
 16 17  1  0
 17 18  1  0
  8 19  1  0
 19 20  2  0
 19 21  1  0
 21 22  1  0
  6 23  1  0
 23 24  2  0
 23 25  1  0
 13 26  1  0
  9 10  1  0
  2  3  2  0
  3  4  1  0
  4  5  2  0
  5  6  1  0
  6  7  2  0
  7  2  1  0
 10 11  2  0
 11 12  1  0
 12 13  2  0
 13 14  1  0
 14 15  2  0
 15 10  1  0
M  END

$$$$
