No_1108-gen_results/8p0m/2024-11-26-14-13-15/
     RDKit          3D

 17 18  0  0  0  0  0  0  0  0999 V2000
  -28.0162   -0.8135   28.8779 C   0  0  0  0  0  0  0  0  0  0  0  0
  -27.0636   -0.1189   28.6079 C   0  0  0  0  0  0  0  0  0  0  0  0
  -25.7923   -0.4302   29.0761 C   0  0  0  0  0  0  0  0  0  0  0  0
  -25.2700   -0.0487   30.0123 C   0  0  0  0  0  0  0  0  0  0  0  0
  -28.5191   -0.6302   30.0918 C   0  0  0  0  0  0  0  0  0  0  0  0
  -27.6457   -0.5646   31.3559 C   0  0  0  0  0  0  0  0  0  0  0  0
  -26.2550   -0.2092   31.4004 C   0  0  0  0  0  0  0  0  0  0  0  0
  -29.7579   -1.0267   30.4756 O   0  0  0  0  0  0  0  0  0  0  0  0
  -30.5991   -1.3920   29.7137 C   0  0  0  0  0  0  0  0  0  0  0  0
  -31.4392   -0.5848   28.9185 C   0  0  0  0  0  0  0  0  0  0  0  0
  -31.0890    0.4829   28.8738 O   0  0  0  0  0  0  0  0  0  0  0  0
  -30.7562   -2.7418   29.6325 O   0  0  0  0  0  0  0  0  0  0  0  0
  -32.4503   -1.0813   28.2375 N   0  0  0  0  0  0  0  0  0  0  0  0
  -33.2835   -0.2974   27.3801 C   0  0  0  0  0  0  0  0  0  0  0  0
  -26.8537    0.3461   27.0705 C   0  0  0  0  0  0  0  0  0  0  0  0
  -25.6110    0.4463   26.6684 C   0  0  0  0  0  0  0  0  0  0  0  0
  -24.8028    0.0544   27.9064 C   0  0  0  0  0  0  0  0  0  0  0  0
  1  2  1  0
  2  3  1  0
  3  4  2  0
  1  5  1  0
  5  6  1  0
  4  7  1  0
  6  7  1  0
  5  8  1  0
  8  9  1  0
  9 10  1  0
 10 11  2  0
  9 12  2  0
 10 13  1  0
 13 14  1  0
  2 15  1  0
 15 16  2  0
  3 17  1  0
 16 17  1  0
M  END

$$$$
