No_1546-gen_results/8p0m/2024-11-26-14-13-15/
     RDKit          3D

 20 21  0  0  0  0  0  0  0  0999 V2000
  -28.0162   -0.8135   28.8779 C   0  0  0  0  0  0  0  0  0  0  0  0
  -27.0636   -0.1189   28.6079 C   0  0  0  0  0  0  0  0  0  0  0  0
  -27.0010    0.6913   27.4910 C   0  0  0  0  0  0  0  0  0  0  0  0
  -25.8548    1.4825   27.0830 C   0  0  0  0  0  0  0  0  0  0  0  0
  -24.6901    1.4526   27.8807 C   0  0  0  0  0  0  0  0  0  0  0  0
  -24.7379    0.6010   29.0416 C   0  0  0  0  0  0  0  0  0  0  0  0
  -25.8234   -0.1688   29.3887 C   0  0  0  0  0  0  0  0  0  0  0  0
  -28.0352   -1.4960   30.2343 C   0  0  0  0  0  0  0  0  0  0  0  0
  -26.8424   -1.7341   30.9037 C   0  0  0  0  0  0  0  0  0  0  0  0
  -25.7456   -0.9655   30.5714 C   0  0  0  0  0  0  0  0  0  0  0  0
  -28.0939    0.7867   26.5026 C   0  0  0  0  0  0  0  0  0  0  0  0
  -27.9969    0.9423   25.3355 O   0  0  0  0  0  0  0  0  0  0  0  0
  -29.2792    0.6005   26.9711 O   0  0  0  0  0  0  0  0  0  0  0  0
  -23.4410    0.6152   29.8687 C   0  0  0  0  0  0  0  0  0  0  0  0
  -23.1941    1.7524   30.3403 F   0  0  0  0  0  0  0  0  0  0  0  0
  -22.3343    0.2098   29.2027 F   0  0  0  0  0  0  0  0  0  0  0  0
  -23.5139   -0.1784   31.0003 F   0  0  0  0  0  0  0  0  0  0  0  0
  -29.2982   -2.2362   30.5927 C   0  0  0  0  0  0  0  0  0  0  0  0
  -29.6126   -2.2270   31.8558 O   0  0  0  0  0  0  0  0  0  0  0  0
  -29.9107   -2.9216   29.7895 O   0  0  0  0  0  0  0  0  0  0  0  0
  3 11  1  0
 11 12  2  0
 11 13  1  0
  6 14  1  0
 14 15  1  0
 14 16  1  0
 14 17  1  0
  8 18  1  0
 18 19  2  0
 18 20  1  0
  2  3  1  0
  3  4  2  0
  4  5  1  0
  5  6  2  0
  6  7  1  0
  1  2  2  0
  2  7  1  0
  7 10  2  0
 10  9  1  0
  9  8  2  0
  8  1  1  0
M  END

$$$$
