No_1592-gen_results/8p0m/2024-11-26-14-13-15/
     RDKit          3D

 28 29  0  0  0  0  0  0  0  0999 V2000
  -28.0162   -0.8135   28.8779 C   0  0  0  0  0  0  0  0  0  0  0  0
  -27.0636   -0.1189   28.6079 C   0  0  0  0  0  0  0  0  0  0  0  0
  -26.9716    0.7139   27.5060 C   0  0  0  0  0  0  0  0  0  0  0  0
  -28.1053    0.7744   26.6421 C   0  0  0  0  0  0  0  0  0  0  0  0
  -29.2008    0.1044   27.0527 C   0  0  0  0  0  0  0  0  0  0  0  0
  -29.2096   -0.6029   28.1853 C   0  0  0  0  0  0  0  0  0  0  0  0
  -30.5651    0.2430   26.0493 Cl  0  0  0  0  0  0  0  0  0  0  0  0
  -25.7033   -0.2337   29.4132 C   0  0  0  0  0  0  0  0  0  0  0  0
  -25.1312    1.0192   29.9003 C   0  0  0  0  0  0  0  0  0  0  0  0
  -25.7794    1.5971   30.8511 C   0  0  0  0  0  0  0  0  0  0  0  0
  -24.0066    1.5458   29.2298 C   0  0  0  0  0  0  0  0  0  0  0  0
  -25.3920    2.9323   31.2911 C   0  0  0  0  0  0  0  0  0  0  0  0
  -23.2908    0.9557   28.2806 N   0  0  0  0  0  0  0  0  0  0  0  0
  -25.9106    3.8776   31.2962 C   0  0  0  0  0  0  0  0  0  0  0  0
  -27.3120    4.0212   31.0924 C   0  0  0  0  0  0  0  0  0  0  0  0
  -28.0432    5.1648   31.1287 C   0  0  0  0  0  0  0  0  0  0  0  0
  -22.3549    1.5975   27.5363 C   0  0  0  0  0  0  0  0  0  0  0  0
  -27.3426    6.3240   31.5398 C   0  0  0  0  0  0  0  0  0  0  0  0
  -26.0126    6.3497   31.8911 C   0  0  0  0  0  0  0  0  0  0  0  0
  -25.3152    5.2092   31.8440 C   0  0  0  0  0  0  0  0  0  0  0  0
  -23.9577    3.0951   30.4981 C   0  0  0  0  0  0  0  0  0  0  0  0
  -22.9994    2.6404   31.2586 O   0  0  0  0  0  0  0  0  0  0  0  0
  -24.2693    3.8414   29.6484 O   0  0  0  0  0  0  0  0  0  0  0  0
  -23.4135   -0.3752   27.9592 C   0  0  0  0  0  0  0  0  0  0  0  0
  -23.9583    2.4915   28.6381 O   0  0  0  0  0  0  0  0  0  0  0  0
  -24.5270    2.9544   27.4898 C   0  0  0  0  0  0  0  0  0  0  0  0
  -24.8180    4.8189   29.0588 C   0  0  0  0  0  0  0  0  0  0  0  0
  -25.7381   -1.2520   30.3448 O   0  0  0  0  0  0  0  0  0  0  0  0
  5  7  1  0
  2  8  1  0
  8  9  1  0
  9 10  1  0
  9 11  1  0
 10 12  2  3
 11 13  1  0
 12 14  1  0
 13 17  1  0
 12 21  1  0
 21 22  1  0
 21 23  1  0
 13 24  1  0
 11 25  1  0
 25 26  1  0
 23 27  1  0
  8 28  1  0
 14 15  2  0
 15 16  1  0
 16 18  2  0
 18 19  1  0
 19 20  2  0
 20 14  1  0
  1  2  2  0
  2  3  1  0
  3  4  2  0
  4  5  1  0
  5  6  2  0
  6  1  1  0
M  END

$$$$
