No_1822-gen_results/8p0m/2024-11-26-14-13-15/
     RDKit          3D

 17 19  0  0  0  0  0  0  0  0999 V2000
  -28.0162   -0.8135   28.8779 C   0  0  0  0  0  0  0  0  0  0  0  0
  -27.0636   -0.1189   28.6079 C   0  0  0  0  0  0  0  0  0  0  0  0
  -25.7647   -0.3897   29.0360 C   0  0  0  0  0  0  0  0  0  0  0  0
  -25.5296   -1.5302   29.9014 C   0  0  0  0  0  0  0  0  0  0  0  0
  -26.6577   -2.2915   30.2035 C   0  0  0  0  0  0  0  0  0  0  0  0
  -27.8548   -1.9555   29.7630 C   0  0  0  0  0  0  0  0  0  0  0  0
  -24.4389    0.1803   28.7279 C   0  0  0  0  0  0  0  0  0  0  0  0
  -23.2667   -0.0774   29.2080 C   0  0  0  0  0  0  0  0  0  0  0  0
  -23.2051   -1.3242   29.9589 C   0  0  0  0  0  0  0  0  0  0  0  0
  -24.2719   -1.9909   30.3025 C   0  0  0  0  0  0  0  0  0  0  0  0
  -24.5213    1.4531   27.8013 C   0  0  0  0  0  0  0  0  0  0  0  0
  -24.8689    2.5243   28.1822 C   0  0  0  0  0  0  0  0  0  0  0  0
  -24.9445    3.6745   27.3487 C   0  0  0  0  0  0  0  0  0  0  0  0
  -25.2997    4.9922   27.7384 C   0  0  0  0  0  0  0  0  0  0  0  0
  -25.6910    5.1849   29.0514 C   0  0  0  0  0  0  0  0  0  0  0  0
  -25.6782    4.0752   29.9308 C   0  0  0  0  0  0  0  0  0  0  0  0
  -25.2837    2.8448   29.5698 C   0  0  0  0  0  0  0  0  0  0  0  0
  7 11  1  0
 11 12  1  0
 12 13  2  0
 13 14  1  0
 14 15  2  0
 15 16  1  0
 16 17  2  0
 17 12  1  0
  1  2  2  0
  2  3  1  0
  4  5  1  0
  5  6  2  0
  6  1  1  0
  3  4  2  0
  4 10  1  0
 10  9  2  0
  9  8  1  0
  8  7  2  0
  7  3  1  0
M  END

$$$$
