No_1162-gen_results/8p0m/2024-11-26-14-13-15/
     RDKit          3D

 21 24  0  0  0  0  0  0  0  0999 V2000
  -28.0162   -0.8135   28.8779 C   0  0  0  0  0  0  0  0  0  0  0  0
  -28.4690   -0.7850   29.8287 C   0  0  0  0  0  0  0  0  0  0  0  0
  -28.1960    0.3478   28.0550 C   0  0  0  0  0  0  0  0  0  0  0  0
  -29.0191    1.3501   28.3782 C   0  0  0  0  0  0  0  0  0  0  0  0
  -29.4107    0.1803   30.3782 C   0  0  0  0  0  0  0  0  0  0  0  0
  -29.6059    1.2495   29.6193 C   0  0  0  0  0  0  0  0  0  0  0  0
  -27.5003    0.3576   26.8164 O   0  0  0  0  0  0  0  0  0  0  0  0
  -26.4976    1.3388   26.6595 C   0  0  0  0  0  0  0  0  0  0  0  0
  -25.2287    0.7278   26.6101 C   0  0  0  0  0  0  0  0  0  0  0  0
  -24.0880    1.5526   26.6229 C   0  0  0  0  0  0  0  0  0  0  0  0
  -22.7905    1.0978   26.8973 C   0  0  0  0  0  0  0  0  0  0  0  0
  -21.7701    2.1256   27.0157 C   0  0  0  0  0  0  0  0  0  0  0  0
  -20.6380    1.7025   27.6823 N   0  0  0  0  0  0  0  0  0  0  0  0
  -20.7860    0.4632   28.2769 C   0  0  0  0  0  0  0  0  0  0  0  0
  -22.4556    0.1539   27.9611 C   0  0  0  0  0  0  0  0  0  0  0  0
  -24.4220    2.8474   26.1625 C   0  0  0  0  0  0  0  0  0  0  0  0
  -26.7272    2.4161   27.5500 C   0  0  0  0  0  0  0  0  0  0  0  0
  -26.8671    1.7900   25.1450 C   0  0  0  0  0  0  0  0  0  0  0  0
  -26.1613    3.2435   28.0919 C   0  0  0  0  0  0  0  0  0  0  0  0
  -24.8289    3.6986   27.3885 C   0  0  0  0  0  0  0  0  0  0  0  0
  -28.2448    2.4652   28.0767 C   0  0  0  0  0  0  0  0  0  0  0  0
  3  7  1  0
  7  8  1  0
  8  9  1  0
  9 10  2  0
 10 11  1  0
 11 12  1  0
 12 13  1  0
 13 14  2  0
 11 15  1  0
 14 15  1  0
 10 16  1  0
  8 17  1  0
  8 18  1  0
 17 19  2  0
 16 20  1  0
 19 20  1  0
  4 21  1  0
 17 21  1  0
  1  2  2  0
  2  5  1  0
  5  6  2  0
  6  4  1  0
  4  3  2  0
  3  1  1  0
M  END

$$$$
