No_1742-gen_results/8p0m/2024-11-26-14-13-15/
     RDKit          3D

 35 38  0  0  0  0  0  0  0  0999 V2000
  -28.0162   -0.8135   28.8779 C   0  0  0  0  0  0  0  0  0  0  0  0
  -28.4690   -0.7850   29.8287 C   0  0  0  0  0  0  0  0  0  0  0  0
  -28.1960    0.3478   28.0550 C   0  0  0  0  0  0  0  0  0  0  0  0
  -29.0191    1.3501   28.3782 C   0  0  0  0  0  0  0  0  0  0  0  0
  -29.6249    1.2683   29.6012 C   0  0  0  0  0  0  0  0  0  0  0  0
  -29.3821    0.1816   30.4004 C   0  0  0  0  0  0  0  0  0  0  0  0
  -27.4591    0.3787   26.7048 C   0  0  0  0  0  0  0  0  0  0  0  0
  -26.0052    0.0048   26.5947 Cl  0  0  0  0  0  0  0  0  0  0  0  0
  -28.2881    0.0396   25.5323 C   0  0  0  0  0  0  0  0  0  0  0  0
  -28.7907    0.9742   24.9812 C   0  0  0  0  0  0  0  0  0  0  0  0
  -28.7521    2.3581   25.5765 C   0  0  0  0  0  0  0  0  0  0  0  0
  -29.4205    3.0954   25.7010 C   0  0  0  0  0  0  0  0  0  0  0  0
  -29.4614    4.3494   26.0481 C   0  0  0  0  0  0  0  0  0  0  0  0
  -28.1923    4.9304   26.5194 C   0  0  0  0  0  0  0  0  0  0  0  0
  -27.1547    4.0190   26.5526 C   0  0  0  0  0  0  0  0  0  0  0  0
  -27.3123    2.6966   25.9986 C   0  0  0  0  0  0  0  0  0  0  0  0
  -30.5381    2.3762   30.1208 C   0  0  0  0  0  0  0  0  0  0  0  0
  -30.1274    3.3162   30.4890 O   0  0  0  0  0  0  0  0  0  0  0  0
  -31.8143    2.2560   29.5780 O   0  0  0  0  0  0  0  0  0  0  0  0
  -25.7921    4.5162   26.9472 C   0  0  0  0  0  0  0  0  0  0  0  0
  -24.7322    3.7248   26.7283 N   0  0  0  0  0  0  0  0  0  0  0  0
  -24.2259    2.6800   27.3107 C   0  0  0  0  0  0  0  0  0  0  0  0
  -22.9831    2.1332   26.9719 C   0  0  0  0  0  0  0  0  0  0  0  0
  -22.4747    1.0987   27.8548 C   0  0  0  0  0  0  0  0  0  0  0  0
  -23.1187    0.6707   28.9751 C   0  0  0  0  0  0  0  0  0  0  0  0
  -22.6429   -0.3988   29.6824 C   0  0  0  0  0  0  0  0  0  0  0  0
  -24.7138    2.4302   28.5567 N   0  0  0  0  0  0  0  0  0  0  0  0
  -24.2315    1.4049   29.3469 C   0  0  0  0  0  0  0  0  0  0  0  0
  -23.1663   -0.6527   30.8566 N   0  0  0  0  0  0  0  0  0  0  0  0
  -21.9387   -1.2970   29.1311 O   0  0  0  0  0  0  0  0  0  0  0  0
  -25.6510    5.4909   27.7025 O   0  0  0  0  0  0  0  0  0  0  0  0
  -29.6351    0.8338   23.8183 C   0  0  0  0  0  0  0  0  0  0  0  0
  -24.0248    0.1564   31.6677 C   0  0  0  0  0  0  0  0  0  0  0  0
  -24.7124    1.1457   30.7361 C   0  0  0  0  0  0  0  0  0  0  0  0
  -25.7681    1.9558   31.3478 C   0  0  0  0  0  0  0  0  0  0  0  0
  3  7  1  0
  7  8  1  0
  7  9  1  0
  9 10  2  3
 10 11  1  0
  5 17  1  0
 17 18  2  0
 17 19  1  0
 15 20  1  0
 20 21  1  0
 21 22  1  0
 25 26  1  0
 26 29  1  0
 26 30  2  0
 20 31  2  0
 10 32  1  0
 28 34  1  0
 33 34  1  0
 34 35  1  0
 33 29  1  0
 11 12  2  0
 12 13  1  0
 13 14  2  0
 14 15  1  0
 15 16  2  0
 16 11  1  0
  1  2  2  0
  2  6  1  0
  6  5  2  0
  5  4  1  0
  4  3  2  0
  3  1  1  0
 22 23  2  0
 23 24  1  0
 24 25  2  0
 25 28  1  0
 28 27  2  0
 27 22  1  0
M  END

$$$$
