No_1655-gen_results/8p0m/2024-11-26-14-13-15/
     RDKit          3D

 17 17  0  0  0  0  0  0  0  0999 V2000
  -28.0162   -0.8135   28.8779 C   0  0  0  0  0  0  0  0  0  0  0  0
  -28.4690   -0.7850   29.8287 C   0  0  0  0  0  0  0  0  0  0  0  0
  -26.5455   -0.8762   28.8500 C   0  0  0  0  0  0  0  0  0  0  0  0
  -25.8041   -1.0324   30.0571 C   0  0  0  0  0  0  0  0  0  0  0  0
  -27.9437   -0.9869   31.2075 C   0  0  0  0  0  0  0  0  0  0  0  0
  -26.5825   -1.0386   31.2231 C   0  0  0  0  0  0  0  0  0  0  0  0
  -24.3810   -1.1082   30.0855 C   0  0  0  0  0  0  0  0  0  0  0  0
  -23.7055    0.0955   29.8440 C   0  0  0  0  0  0  0  0  0  0  0  0
  -22.4285    0.1160   29.2171 C   0  0  0  0  0  0  0  0  0  0  0  0
  -21.8149    1.2942   28.8765 C   0  0  0  0  0  0  0  0  0  0  0  0
  -24.1974    1.3766   30.2708 C   0  0  0  0  0  0  0  0  0  0  0  0
  -25.4179    1.4203   31.0567 C   0  0  0  0  0  0  0  0  0  0  0  0
  -20.7674    1.2145   27.8638 C   0  0  0  0  0  0  0  0  0  0  0  0
  -25.7878    2.8981   31.3953 C   0  0  0  0  0  0  0  0  0  0  0  0
  -26.8155    3.2664   30.9946 C   0  0  0  0  0  0  0  0  0  0  0  0
  -27.2201    4.6925   31.2219 C   0  0  0  0  0  0  0  0  0  0  0  0
  -28.4143    5.2746   30.7369 C   0  0  0  0  0  0  0  0  0  0  0  0
  4  7  1  0
  7  8  1  0
  8  9  2  3
  9 10  1  0
  8 11  1  0
 11 12  1  0
 10 13  1  0
 12 14  2  3
 14 15  1  0
 15 16  2  3
 16 17  1  0
  1  2  2  0
  2  5  1  0
  5  6  2  0
  6  4  1  0
  4  3  2  0
  3  1  1  0
M  END

$$$$
