No_1590-gen_results/8p0m/2024-11-26-14-13-15/
     RDKit          3D

 29 33  0  0  0  0  0  0  0  0999 V2000
  -28.0162   -0.8135   28.8779 C   0  0  0  0  0  0  0  0  0  0  0  0
  -28.4690   -0.7850   29.8287 C   0  0  0  0  0  0  0  0  0  0  0  0
  -27.1356    0.2359   28.5352 C   0  0  0  0  0  0  0  0  0  0  0  0
  -26.8745    1.2825   29.3982 C   0  0  0  0  0  0  0  0  0  0  0  0
  -28.3613    0.1987   30.9244 C   0  0  0  0  0  0  0  0  0  0  0  0
  -25.9723    2.3852   29.1040 C   0  0  0  0  0  0  0  0  0  0  0  0
  -27.5118    1.2316   30.6323 C   0  0  0  0  0  0  0  0  0  0  0  0
  -25.3009    2.5053   28.0335 C   0  0  0  0  0  0  0  0  0  0  0  0
  -24.7278    1.4799   27.3812 C   0  0  0  0  0  0  0  0  0  0  0  0
  -24.2004    0.4255   28.0721 C   0  0  0  0  0  0  0  0  0  0  0  0
  -23.1394    0.6663   28.9624 C   0  0  0  0  0  0  0  0  0  0  0  0
  -22.5210   -0.4990   29.5761 C   0  0  0  0  0  0  0  0  0  0  0  0
  -23.1463   -1.7102   29.4435 C   0  0  0  0  0  0  0  0  0  0  0  0
  -24.3583   -1.8371   28.9744 C   0  0  0  0  0  0  0  0  0  0  0  0
  -24.8512   -0.8085   28.1671 C   0  0  0  0  0  0  0  0  0  0  0  0
  -26.0458   -0.1475   27.7031 N   0  0  0  0  0  0  0  0  0  0  0  0
  -26.2429   -0.2143   26.3527 C   0  0  0  0  0  0  0  0  0  0  0  0
  -24.0003    1.8112   26.1459 C   0  0  0  0  0  0  0  0  0  0  0  0
  -25.3934    3.8860   27.3976 C   0  0  0  0  0  0  0  0  0  0  0  0
  -25.9419    4.8983   28.0590 N   0  0  0  0  0  0  0  0  0  0  0  0
  -24.6353    4.1930   26.3432 N   0  0  0  0  0  0  0  0  0  0  0  0
  -23.9585    3.1698   25.6487 C   0  0  0  0  0  0  0  0  0  0  0  0
  -26.1135    6.0030   27.7463 C   0  0  0  0  0  0  0  0  0  0  0  0
  -26.6324    6.9627   28.6897 C   0  0  0  0  0  0  0  0  0  0  0  0
  -26.8354    8.1336   28.5904 C   0  0  0  0  0  0  0  0  0  0  0  0
  -27.3525    9.0575   29.6090 C   0  0  0  0  0  0  0  0  0  0  0  0
  -27.7177    8.4959   30.8000 C   0  0  0  0  0  0  0  0  0  0  0  0
  -27.5146    7.1531   31.0093 C   0  0  0  0  0  0  0  0  0  0  0  0
  -26.9099    6.3253   30.0267 C   0  0  0  0  0  0  0  0  0  0  0  0
  4  6  1  0
  3 16  1  0
 15 16  1  0
 16 17  1  0
 19 20  1  0
 20 23  1  0
  6  8  1  0
 10  9  1  0
 23 24  1  0
 24 25  2  0
 25 26  1  0
 26 27  2  0
 27 28  1  0
 28 29  2  0
 29 24  1  0
 10 11  2  0
 11 12  1  0
 12 13  2  0
 13 14  1  0
 14 15  2  0
 15 10  1  0
  8  9  2  0
  9 18  1  0
 18 22  2  0
 22 21  1  0
 21 19  2  0
 19  8  1  0
  1  2  2  0
  2  5  1  0
  5  7  2  0
  7  4  1  0
  4  3  2  0
  3  1  1  0
M  END

$$$$
