No_1389-gen_results/8p0m/2024-11-26-14-13-15/
     RDKit          3D

 14 15  0  0  0  0  0  0  0  0999 V2000
  -28.0162   -0.8135   28.8779 C   0  0  0  0  0  0  0  0  0  0  0  0
  -27.0636   -0.1190   28.6079 C   0  0  0  0  0  0  0  0  0  0  0  0
  -26.9287    1.1713   29.0083 C   0  0  0  0  0  0  0  0  0  0  0  0
  -25.7702    2.0341   28.6884 C   0  0  0  0  0  0  0  0  0  0  0  0
  -25.6189    3.3482   29.0918 C   0  0  0  0  0  0  0  0  0  0  0  0
  -29.0712   -0.3338   29.7689 C   0  0  0  0  0  0  0  0  0  0  0  0
  -28.9336    0.8185   30.1285 C   0  0  0  0  0  0  0  0  0  0  0  0
  -27.8905    1.6898   29.8428 C   0  0  0  0  0  0  0  0  0  0  0  0
  -24.7470    1.5584   27.7720 C   0  0  0  0  0  0  0  0  0  0  0  0
  -23.8425    2.0377   27.6161 C   0  0  0  0  0  0  0  0  0  0  0  0
  -22.6997    1.4249   26.8350 C   0  0  0  0  0  0  0  0  0  0  0  0
  -24.5866    4.1108   28.5459 N   0  0  0  0  0  0  0  0  0  0  0  0
  -23.6163    3.5413   27.8795 C   0  0  0  0  0  0  0  0  0  0  0  0
  -30.3996   -1.3868   30.1038 Cl  0  0  0  0  0  0  0  0  0  0  0  0
  3  4  1  0
 10 11  1  0
  6 14  1  0
  4  5  2  0
  5 12  1  0
 12 13  2  0
 13 10  1  0
 10  9  2  0
  9  4  1  0
  1  2  2  0
  2  3  1  0
  3  8  2  0
  8  7  1  0
  7  6  2  0
  6  1  1  0
M  END

$$$$
