No_1809-gen_results/8p0m/2024-11-26-14-13-15/
     RDKit          3D

 22 23  0  0  0  0  0  0  0  0999 V2000
  -28.0162   -0.8135   28.8779 C   0  0  0  0  0  0  0  0  0  0  0  0
  -27.0636   -0.1190   28.6079 C   0  0  0  0  0  0  0  0  0  0  0  0
  -26.9716    0.7139   27.5060 C   0  0  0  0  0  0  0  0  0  0  0  0
  -28.1053    0.7744   26.6421 C   0  0  0  0  0  0  0  0  0  0  0  0
  -29.2008    0.1044   27.0527 C   0  0  0  0  0  0  0  0  0  0  0  0
  -29.2096   -0.6029   28.1853 C   0  0  0  0  0  0  0  0  0  0  0  0
  -30.3702    0.2264   26.1604 C   0  0  0  0  0  0  0  0  0  0  0  0
  -31.0706    1.2007   26.0929 C   0  0  0  0  0  0  0  0  0  0  0  0
  -30.0570   -0.4814   24.8236 C   0  0  0  0  0  0  0  0  0  0  0  0
  -28.0209   -1.5768   30.0521 O   0  0  0  0  0  0  0  0  0  0  0  0
  -31.3919   -0.9623   26.6802 C   0  0  0  0  0  0  0  0  0  0  0  0
  -31.6800   -1.0322   27.7909 O   0  0  0  0  0  0  0  0  0  0  0  0
  -31.7980   -1.8845   25.8445 O   0  0  0  0  0  0  0  0  0  0  0  0
  -25.4936    1.5294   27.0372 Cl  0  0  0  0  0  0  0  0  0  0  0  0
  -30.9846    2.1903   27.0788 C   0  0  0  0  0  0  0  0  0  0  0  0
  -31.6753    3.4927   26.9667 C   0  0  0  0  0  0  0  0  0  0  0  0
  -31.8319    1.6628   25.0083 C   0  0  0  0  0  0  0  0  0  0  0  0
  -32.5173    2.8504   24.8161 C   0  0  0  0  0  0  0  0  0  0  0  0
  -32.3732    3.7919   25.8637 C   0  0  0  0  0  0  0  0  0  0  0  0
  -28.8964    0.1777   24.2724 C   0  0  0  0  0  0  0  0  0  0  0  0
  -30.2138   -1.6316   24.2570 C   0  0  0  0  0  0  0  0  0  0  0  0
  -29.7242   -1.9569   23.0714 N   0  0  0  0  0  0  0  0  0  0  0  0
  5  7  1  0
  7  8  1  0
  7  9  1  0
  1 10  1  0
  7 11  1  0
 11 12  2  0
 11 13  1  0
  3 14  1  0
  9 20  2  0
  9 21  1  0
 21 22  1  0
  1  2  2  0
  2  3  1  0
  3  4  2  0
  4  5  1  0
  5  6  2  0
  6  1  1  0
  8 15  2  0
 15 16  1  0
 16 19  2  0
 19 18  1  0
 18 17  2  0
 17  8  1  0
M  END

$$$$
