No_126-gen_results/8p0m/2024-11-26-14-13-15/
     RDKit          3D

 14 16  0  0  0  0  0  0  0  0999 V2000
  -28.0162   -0.8135   28.8779 C   0  0  0  0  0  0  0  0  0  0  0  0
  -28.4690   -0.7850   29.8287 C   0  0  0  0  0  0  0  0  0  0  0  0
  -27.0871    0.2903   28.6377 C   0  0  0  0  0  0  0  0  0  0  0  0
  -26.2516    0.4114   27.4223 C   0  0  0  0  0  0  0  0  0  0  0  0
  -28.3913    0.1041   30.9805 C   0  0  0  0  0  0  0  0  0  0  0  0
  -27.5332    1.1666   30.7866 C   0  0  0  0  0  0  0  0  0  0  0  0
  -26.8281    1.2557   29.6454 C   0  0  0  0  0  0  0  0  0  0  0  0
  -25.7329    1.6893   27.1546 C   0  0  0  0  0  0  0  0  0  0  0  0
  -24.6745    1.7805   26.3311 C   0  0  0  0  0  0  0  0  0  0  0  0
  -23.9391    3.1043   26.1975 C   0  0  0  0  0  0  0  0  0  0  0  0
  -24.4782    4.2117   26.8837 C   0  0  0  0  0  0  0  0  0  0  0  0
  -25.6062    4.0512   27.6428 C   0  0  0  0  0  0  0  0  0  0  0  0
  -26.2129    2.8005   27.8343 C   0  0  0  0  0  0  0  0  0  0  0  0
  -26.3437    2.4937   29.2009 N   0  0  0  0  0  0  0  0  0  0  0  0
  8  9  2  0
  9 10  1  0
 10 11  2  0
 11 12  1  0
 12 13  2  0
  3  4  2  0
  4  8  1  0
  8 13  1  0
 13 14  1  0
 14  7  2  0
  1  2  2  0
  2  5  1  0
  5  6  2  0
  6  7  1  0
  7  3  1  0
  3  1  1  0
M  END

$$$$
