No_1892-gen_results/8p0m/2024-11-26-14-13-15/
     RDKit          3D

 20 21  0  0  0  0  0  0  0  0999 V2000
  -28.0162   -0.8135   28.8779 C   0  0  0  0  0  0  0  0  0  0  0  0
  -28.4690   -0.7850   29.8287 C   0  0  0  0  0  0  0  0  0  0  0  0
  -26.5042   -0.7777   28.8766 C   0  0  0  0  0  0  0  0  0  0  0  0
  -25.8103   -0.8531   30.1028 C   0  0  0  0  0  0  0  0  0  0  0  0
  -27.9906   -0.8916   31.2257 C   0  0  0  0  0  0  0  0  0  0  0  0
  -26.6042   -0.8676   31.2652 C   0  0  0  0  0  0  0  0  0  0  0  0
  -30.0739   -0.8360   29.8615 C   0  0  0  0  0  0  0  0  0  0  0  0
  -30.5916   -1.8281   30.0957 F   0  0  0  0  0  0  0  0  0  0  0  0
  -30.4130   -0.3874   28.6120 F   0  0  0  0  0  0  0  0  0  0  0  0
  -30.5351    0.1554   30.6423 F   0  0  0  0  0  0  0  0  0  0  0  0
  -25.6286   -0.7158   27.6753 C   0  0  0  0  0  0  0  0  0  0  0  0
  -25.2380    0.6549   27.3319 C   0  0  0  0  0  0  0  0  0  0  0  0
  -25.5444    1.1810   26.1306 C   0  0  0  0  0  0  0  0  0  0  0  0
  -25.0413    2.4491   25.7611 C   0  0  0  0  0  0  0  0  0  0  0  0
  -24.2260    3.1639   26.7300 C   0  0  0  0  0  0  0  0  0  0  0  0
  -24.3968    1.4413   28.1467 C   0  0  0  0  0  0  0  0  0  0  0  0
  -23.8561    2.5955   27.8206 C   0  0  0  0  0  0  0  0  0  0  0  0
  -26.2697    0.6090   25.2612 F   0  0  0  0  0  0  0  0  0  0  0  0
  -25.6175   -1.6197   26.9101 O   0  0  0  0  0  0  0  0  0  0  0  0
  -24.1759   -0.9042   30.2404 Cl  0  0  0  0  0  0  0  0  0  0  0  0
  2  7  1  0
  7  8  1  0
  7  9  1  0
  7 10  1  0
  3 11  1  0
 11 12  1  0
 13 18  1  0
 11 19  2  0
  4 20  1  0
 12 13  2  0
 13 14  1  0
 14 15  2  0
 15 17  1  0
 17 16  2  0
 16 12  1  0
  1  2  2  0
  2  5  1  0
  5  6  2  0
  6  4  1  0
  4  3  2  0
  3  1  1  0
M  END

$$$$
