No_1376-gen_results/8p0m/2024-11-26-14-13-15/
     RDKit          3D

 22 22  0  0  0  0  0  0  0  0999 V2000
  -28.0162   -0.8135   28.8779 C   0  0  0  0  0  0  0  0  0  0  0  0
  -27.0636   -0.1189   28.6079 C   0  0  0  0  0  0  0  0  0  0  0  0
  -27.0010    0.6913   27.4910 C   0  0  0  0  0  0  0  0  0  0  0  0
  -28.1373    0.7363   26.6350 C   0  0  0  0  0  0  0  0  0  0  0  0
  -29.2360    0.0765   27.0690 C   0  0  0  0  0  0  0  0  0  0  0  0
  -29.2177   -0.6429   28.1747 C   0  0  0  0  0  0  0  0  0  0  0  0
  -27.7867   -1.6669   30.1199 C   0  0  0  0  0  0  0  0  0  0  0  0
  -28.6535   -2.0924   30.6952 O   0  0  0  0  0  0  0  0  0  0  0  0
  -26.5637   -2.1459   30.3331 O   0  0  0  0  0  0  0  0  0  0  0  0
  -30.4381    0.1591   26.2183 C   0  0  0  0  0  0  0  0  0  0  0  0
  -31.0853    0.9234   26.1506 O   0  0  0  0  0  0  0  0  0  0  0  0
  -30.6648   -1.0379   25.5598 O   0  0  0  0  0  0  0  0  0  0  0  0
  -25.7562    1.4480   27.0583 C   0  0  0  0  0  0  0  0  0  0  0  0
  -25.6525    1.7195   25.8837 F   0  0  0  0  0  0  0  0  0  0  0  0
  -24.6309    0.7107   27.3991 F   0  0  0  0  0  0  0  0  0  0  0  0
  -25.7089    2.6142   27.7543 F   0  0  0  0  0  0  0  0  0  0  0  0
  -26.2038   -3.3967   29.7896 C   0  0  0  0  0  0  0  0  0  0  0  0
  -24.8893   -3.4302   29.1408 C   0  0  0  0  0  0  0  0  0  0  0  0
  -24.3295   -2.3052   28.9899 O   0  0  0  0  0  0  0  0  0  0  0  0
  -22.9430   -2.1306   29.4396 C   0  0  0  0  0  0  0  0  0  0  0  0
  -22.5733   -0.5724   29.5375 C   0  0  0  0  0  0  0  0  0  0  0  0
  -23.2153    0.0551   30.4114 O   0  0  0  0  0  0  0  0  0  0  0  0
  1  7  1  0
  7  8  2  0
  7  9  1  0
  5 10  1  0
 10 11  2  0
 10 12  1  0
  3 13  1  0
 13 14  1  0
 13 15  1  0
 13 16  1  0
  9 17  1  0
 17 18  1  0
 18 19  1  0
 19 20  1  0
 20 21  1  0
 21 22  2  0
  1  2  2  0
  2  3  1  0
  3  4  2  0
  4  5  1  0
  5  6  2  0
  6  1  1  0
M  END

$$$$
