No_1534-gen_results/8p0m/2024-11-26-14-13-15/
     RDKit          3D

 22 23  0  0  0  0  0  0  0  0999 V2000
  -28.0162   -0.8135   28.8779 C   0  0  0  0  0  0  0  0  0  0  0  0
  -27.0636   -0.1189   28.6079 C   0  0  0  0  0  0  0  0  0  0  0  0
  -25.7923   -0.4302   29.0761 C   0  0  0  0  0  0  0  0  0  0  0  0
  -25.5756   -1.5654   29.9363 C   0  0  0  0  0  0  0  0  0  0  0  0
  -26.7354   -2.3004   30.2173 C   0  0  0  0  0  0  0  0  0  0  0  0
  -27.9184   -1.9537   29.7629 C   0  0  0  0  0  0  0  0  0  0  0  0
  -27.1057    1.1023   27.7593 C   0  0  0  0  0  0  0  0  0  0  0  0
  -26.7157    2.2350   27.9945 C   0  0  0  0  0  0  0  0  0  0  0  0
  -26.6929    3.3459   27.0337 C   0  0  0  0  0  0  0  0  0  0  0  0
  -27.1962    3.0779   25.7437 C   0  0  0  0  0  0  0  0  0  0  0  0
  -27.3870    1.0224   26.2986 C   0  0  0  0  0  0  0  0  0  0  0  0
  -27.4849    1.8986   25.4317 C   0  0  0  0  0  0  0  0  0  0  0  0
  -29.0550   -2.7814   30.2240 C   0  0  0  0  0  0  0  0  0  0  0  0
  -29.4724   -2.6715   31.1625 O   0  0  0  0  0  0  0  0  0  0  0  0
  -29.3893   -3.7538   29.3895 O   0  0  0  0  0  0  0  0  0  0  0  0
  -27.9002    1.6025   24.0572 C   0  0  0  0  0  0  0  0  0  0  0  0
  -29.2776    1.2715   23.9278 C   0  0  0  0  0  0  0  0  0  0  0  0
  -30.3729    2.0321   23.8384 C   0  0  0  0  0  0  0  0  0  0  0  0
  -31.6730    1.6087   23.7467 C   0  0  0  0  0  0  0  0  0  0  0  0
  -32.7619    2.4603   23.5929 C   0  0  0  0  0  0  0  0  0  0  0  0
  -32.5633    3.8696   23.7031 C   0  0  0  0  0  0  0  0  0  0  0  0
  -31.3061    4.3256   23.9534 C   0  0  0  0  0  0  0  0  0  0  0  0
  2  7  1  0
  6 13  1  0
 13 14  1  0
 13 15  2  0
 12 16  1  0
 16 17  1  0
 17 18  2  3
 18 19  1  0
 19 20  2  3
 20 21  1  0
 21 22  2  0
  7  8  2  0
  8  9  1  0
  9 10  2  0
 10 12  1  0
 12 11  2  0
 11  7  1  0
  1  2  2  0
  2  3  1  0
  3  4  2  0
  4  5  1  0
  5  6  2  0
  6  1  1  0
M  END

$$$$
