No_1501-gen_results/8p0m/2024-11-26-14-13-15/
     RDKit          3D

 35 38  0  0  0  0  0  0  0  0999 V2000
  -28.0162   -0.8135   28.8779 C   0  0  0  0  0  0  0  0  0  0  0  0
  -27.0636   -0.1189   28.6079 C   0  0  0  0  0  0  0  0  0  0  0  0
  -25.7647   -0.3897   29.0360 C   0  0  0  0  0  0  0  0  0  0  0  0
  -24.5516    0.4058   28.7646 C   0  0  0  0  0  0  0  0  0  0  0  0
  -24.6957    1.4480   27.7988 C   0  0  0  0  0  0  0  0  0  0  0  0
  -25.9755    1.7250   27.3077 C   0  0  0  0  0  0  0  0  0  0  0  0
  -27.0718    1.0134   27.6535 C   0  0  0  0  0  0  0  0  0  0  0  0
  -28.6072   -0.7453   30.2000 Cl  0  0  0  0  0  0  0  0  0  0  0  0
  -23.4875    2.1785   27.4801 C   0  0  0  0  0  0  0  0  0  0  0  0
  -22.5457    1.8814   27.8490 F   0  0  0  0  0  0  0  0  0  0  0  0
  -23.3916    2.1869   26.0112 F   0  0  0  0  0  0  0  0  0  0  0  0
  -23.7829    3.5555   27.7376 F   0  0  0  0  0  0  0  0  0  0  0  0
  -25.4538   -1.5159   29.9374 C   0  0  0  0  0  0  0  0  0  0  0  0
  -25.1145   -1.3588   31.0197 C   0  0  0  0  0  0  0  0  0  0  0  0
  -25.6567   -2.8219   29.3516 C   0  0  0  0  0  0  0  0  0  0  0  0
  -24.5722   -3.4790   28.8457 C   0  0  0  0  0  0  0  0  0  0  0  0
  -23.4189   -2.7223   28.9602 C   0  0  0  0  0  0  0  0  0  0  0  0
  -22.8491   -1.9665   30.0207 C   0  0  0  0  0  0  0  0  0  0  0  0
  -23.6041   -1.1559   30.8777 C   0  0  0  0  0  0  0  0  0  0  0  0
  -28.3292    1.3799   27.0082 C   0  0  0  0  0  0  0  0  0  0  0  0
  -29.0111    2.2442   27.5621 N   0  0  0  0  0  0  0  0  0  0  0  0
  -28.6202    3.2598   28.1226 C   0  0  0  0  0  0  0  0  0  0  0  0
  -29.5922    4.1857   28.8028 C   0  0  0  0  0  0  0  0  0  0  0  0
  -30.4904    2.1056   27.4831 C   0  0  0  0  0  0  0  0  0  0  0  0
  -31.3591    2.9191   28.1586 C   0  0  0  0  0  0  0  0  0  0  0  0
  -30.8723    4.0581   28.7688 C   0  0  0  0  0  0  0  0  0  0  0  0
  -28.4550    0.9550   25.8339 O   0  0  0  0  0  0  0  0  0  0  0  0
  -28.9845    5.3700   29.4986 N   0  0  0  0  0  0  0  0  0  0  0  0
  -27.7552    5.4184   29.8326 C   0  0  0  0  0  0  0  0  0  0  0  0
  -27.3443    5.1812   31.1403 C   0  0  0  0  0  0  0  0  0  0  0  0
  -27.8032    5.3475   32.0824 C   0  0  0  0  0  0  0  0  0  0  0  0
  -29.1069    5.9814   32.1887 C   0  0  0  0  0  0  0  0  0  0  0  0
  -29.7808    5.9916   33.4749 C   0  0  0  0  0  0  0  0  0  0  0  0
  -29.8502    6.3240   30.0517 C   0  0  0  0  0  0  0  0  0  0  0  0
  -30.1197    6.1241   31.4503 C   0  0  0  0  0  0  0  0  0  0  0  0
  1  8  1  0
  5  9  1  0
  9 10  1  0
  9 11  1  0
  9 12  1  0
  3 13  1  0
 13 14  1  0
 13 15  1  0
 15 16  1  0
 16 17  2  0
 17 18  1  0
 14 19  2  0
 18 19  1  0
  7 20  1  0
 20 21  1  0
 21 22  1  0
 21 24  1  0
 23 26  1  0
 25 26  1  0
 20 27  2  0
 23 28  1  0
 28 29  1  0
 29 30  1  0
 30 31  2  0
 31 32  1  0
 32 33  2  0
 28 34  1  0
 32 35  1  0
 34 35  1  0
  1  2  1  0
 22 23  1  0
 25 24  1  0
  2  3  2  0
  3  4  1  0
  4  5  2  0
  5  6  1  0
  6  7  2  0
  7  2  1  0
M  END

$$$$
