No_1486-gen_results/8p0m/2024-11-26-14-13-15/
     RDKit          3D

 33 39  0  0  0  0  0  0  0  0999 V2000
  -28.0162   -0.8135   28.8779 C   0  0  0  0  0  0  0  0  0  0  0  0
  -27.0636   -0.1190   28.6079 C   0  0  0  0  0  0  0  0  0  0  0  0
  -26.8756    1.1325   28.9134 C   0  0  0  0  0  0  0  0  0  0  0  0
  -27.9014    1.8066   29.6436 C   0  0  0  0  0  0  0  0  0  0  0  0
  -29.0458   -0.2316   29.7181 C   0  0  0  0  0  0  0  0  0  0  0  0
  -28.9402    1.0517   30.0597 C   0  0  0  0  0  0  0  0  0  0  0  0
  -26.0208   -0.6774   27.8774 F   0  0  0  0  0  0  0  0  0  0  0  0
  -30.0213    1.6852   30.8724 C   0  0  0  0  0  0  0  0  0  0  0  0
  -31.0371    1.3473   31.0307 C   0  0  0  0  0  0  0  0  0  0  0  0
  -32.0890    1.9852   31.8765 C   0  0  0  0  0  0  0  0  0  0  0  0
  -31.7043    3.2054   32.4781 C   0  0  0  0  0  0  0  0  0  0  0  0
  -30.4403    3.6638   32.2823 C   0  0  0  0  0  0  0  0  0  0  0  0
  -29.5185    2.9802   31.5234 C   0  0  0  0  0  0  0  0  0  0  0  0
  -32.6715    3.9236   33.2964 C   0  0  0  0  0  0  0  0  0  0  0  0
  -32.2460    4.5519   34.2371 N   0  0  0  0  0  0  0  0  0  0  0  0
  -33.8806    3.6189   33.1636 O   0  0  0  0  0  0  0  0  0  0  0  0
  -32.8657    5.2410   35.1265 C   0  0  0  0  0  0  0  0  0  0  0  0
  -33.9118    5.6627   35.3258 C   0  0  0  0  0  0  0  0  0  0  0  0
  -34.4913    6.4006   36.3722 C   0  0  0  0  0  0  0  0  0  0  0  0
  -33.6403    6.7315   37.4272 C   0  0  0  0  0  0  0  0  0  0  0  0
  -32.3245    6.3126   37.3799 C   0  0  0  0  0  0  0  0  0  0  0  0
  -31.8405    5.6198   36.3028 C   0  0  0  0  0  0  0  0  0  0  0  0
  -31.4534    6.6409   38.4023 N   0  0  0  0  0  0  0  0  0  0  0  0
  -30.3387    6.2120   38.5800 C   0  0  0  0  0  0  0  0  0  0  0  0
  -29.7991    5.5079   37.4505 C   0  0  0  0  0  0  0  0  0  0  0  0
  -30.4953    5.1412   36.3206 C   0  0  0  0  0  0  0  0  0  0  0  0
  -28.3517    4.9732   37.4734 C   0  0  0  0  0  0  0  0  0  0  0  0
  -27.6272    4.9387   38.2563 O   0  0  0  0  0  0  0  0  0  0  0  0
  -27.9514    4.4476   36.1841 N   0  0  0  0  0  0  0  0  0  0  0  0
  -28.3551    4.6445   35.0155 C   0  0  0  0  0  0  0  0  0  0  0  0
  -29.8038    4.7949   35.1230 C   0  0  0  0  0  0  0  0  0  0  0  0
  -30.6856    4.0238   34.2075 C   0  0  0  0  0  0  0  0  0  0  0  0
  -30.1197    3.1125   33.6176 C   0  0  0  0  0  0  0  0  0  0  0  0
  2  7  1  0
  6  8  1  0
 11 14  1  0
 14 15  1  0
 14 16  2  0
 15 17  1  0
 25 27  1  0
 27 28  2  0
 27 29  1  0
 29 30  1  0
 26 31  1  0
 15 32  1  0
 31 32  1  0
 12 33  1  0
 32 33  1  0
 31 30  1  0
 22 26  2  0
 26 25  1  0
 25 24  2  0
 24 23  1  0
 23 21  2  0
  1  2  2  0
  2  3  1  0
  3  4  2  0
  4  6  1  0
  6  5  2  0
  5  1  1  0
 17 18  2  0
 18 19  1  0
 19 20  2  0
 20 21  1  0
 21 22  1  0
 22 17  1  0
  8  9  2  0
  9 10  1  0
 10 11  2  0
 11 12  1  0
 12 13  2  0
 13  8  1  0
M  END

$$$$
