No_1307-gen_results/8p0m/2024-11-26-14-13-15/
     RDKit          3D

 21 22  0  0  0  0  0  0  0  0999 V2000
  -28.0162   -0.8135   28.8779 C   0  0  0  0  0  0  0  0  0  0  0  0
  -28.4690   -0.7850   29.8287 C   0  0  0  0  0  0  0  0  0  0  0  0
  -26.5455   -0.8762   28.8500 C   0  0  0  0  0  0  0  0  0  0  0  0
  -25.8041   -1.0324   30.0571 C   0  0  0  0  0  0  0  0  0  0  0  0
  -27.9437   -0.9869   31.2075 C   0  0  0  0  0  0  0  0  0  0  0  0
  -26.5825   -1.0386   31.2231 C   0  0  0  0  0  0  0  0  0  0  0  0
  -30.0606   -0.7371   29.9024 C   0  0  0  0  0  0  0  0  0  0  0  0
  -30.4826    0.1163   30.8130 F   0  0  0  0  0  0  0  0  0  0  0  0
  -30.5455   -1.9671   30.1272 F   0  0  0  0  0  0  0  0  0  0  0  0
  -30.4655   -0.3682   28.7137 F   0  0  0  0  0  0  0  0  0  0  0  0
  -25.6669   -0.7837   27.6302 C   0  0  0  0  0  0  0  0  0  0  0  0
  -25.9440    0.3031   26.7326 C   0  0  0  0  0  0  0  0  0  0  0  0
  -24.9983    0.5039   25.6973 C   0  0  0  0  0  0  0  0  0  0  0  0
  -27.0649    1.0828   26.7480 C   0  0  0  0  0  0  0  0  0  0  0  0
  -27.3657    2.0111   25.7350 C   0  0  0  0  0  0  0  0  0  0  0  0
  -28.4617    2.7687   25.9228 C   0  0  0  0  0  0  0  0  0  0  0  0
  -28.7210    3.7637   25.1056 C   0  0  0  0  0  0  0  0  0  0  0  0
  -29.8499    4.2199   24.9732 C   0  0  0  0  0  0  0  0  0  0  0  0
  -30.9666    3.8624   25.8664 C   0  0  0  0  0  0  0  0  0  0  0  0
  -30.7038    2.8718   26.7637 C   0  0  0  0  0  0  0  0  0  0  0  0
  -29.5137    2.2470   26.7823 C   0  0  0  0  0  0  0  0  0  0  0  0
  2  7  1  0
  7  8  1  0
  7  9  1  0
  7 10  1  0
  3 11  1  0
 11 12  2  3
 12 13  1  0
 12 14  1  0
 14 15  2  3
 15 16  1  0
  1  2  2  0
  2  5  1  0
  5  6  2  0
  6  4  1  0
  4  3  2  0
  3  1  1  0
 16 17  2  0
 17 18  1  0
 18 19  2  0
 19 20  1  0
 20 21  2  0
 21 16  1  0
M  END

$$$$
