No_123-gen_results/8p0m/2024-11-26-14-13-15/
     RDKit          3D

 24 27  0  0  0  0  0  0  0  0999 V2000
  -28.0162   -0.8135   28.8779 C   0  0  0  0  0  0  0  0  0  0  0  0
  -27.0636   -0.1189   28.6079 C   0  0  0  0  0  0  0  0  0  0  0  0
  -25.7923   -0.4302   29.0761 C   0  0  0  0  0  0  0  0  0  0  0  0
  -25.5756   -1.5654   29.9363 C   0  0  0  0  0  0  0  0  0  0  0  0
  -26.7354   -2.3004   30.2173 C   0  0  0  0  0  0  0  0  0  0  0  0
  -27.9184   -1.9537   29.7629 C   0  0  0  0  0  0  0  0  0  0  0  0
  -27.1057    1.1023   27.7593 C   0  0  0  0  0  0  0  0  0  0  0  0
  -26.1219    1.4820   27.0232 C   0  0  0  0  0  0  0  0  0  0  0  0
  -24.7142    1.1299   27.4889 C   0  0  0  0  0  0  0  0  0  0  0  0
  -24.5718    0.0966   28.4066 C   0  0  0  0  0  0  0  0  0  0  0  0
  -23.5476    1.7679   26.9015 C   0  0  0  0  0  0  0  0  0  0  0  0
  -22.3959    1.9123   27.7199 C   0  0  0  0  0  0  0  0  0  0  0  0
  -22.1510    0.9229   28.7176 C   0  0  0  0  0  0  0  0  0  0  0  0
  -23.2894    0.0291   29.1478 C   0  0  0  0  0  0  0  0  0  0  0  0
  -27.6702    2.1987   28.6165 C   0  0  0  0  0  0  0  0  0  0  0  0
  -29.0612    2.4634   28.0861 C   0  0  0  0  0  0  0  0  0  0  0  0
  -26.2527    2.0443   25.6895 C   0  0  0  0  0  0  0  0  0  0  0  0
  -29.3213    2.1689   26.9894 C   0  0  0  0  0  0  0  0  0  0  0  0
  -30.6777    2.3302   26.5276 C   0  0  0  0  0  0  0  0  0  0  0  0
  -31.0463    1.8645   25.2379 C   0  0  0  0  0  0  0  0  0  0  0  0
  -30.0911    1.2405   24.4006 C   0  0  0  0  0  0  0  0  0  0  0  0
  -28.8718    0.9496   24.8920 C   0  0  0  0  0  0  0  0  0  0  0  0
  -27.9121    0.2167   24.1473 C   0  0  0  0  0  0  0  0  0  0  0  0
  -28.5028    1.4223   26.2340 C   0  0  0  0  0  0  0  0  0  0  0  0
  7 15  1  0
 15 16  1  0
  8 17  1  0
 22 23  1  0
 16 18  1  0
  1  2  2  0
  3  4  2  0
  4  5  1  0
  5  6  2  0
  6  1  1  0
  2  3  1  0
  3 10  1  0
  9  8  1  0
  8  7  2  0
  7  2  1  0
  9 10  2  0
 10 14  1  0
 14 13  2  0
 13 12  1  0
 12 11  2  0
 11  9  1  0
 18 19  2  0
 19 20  1  0
 20 21  2  0
 21 22  1  0
 22 24  2  0
 24 18  1  0
M  END

$$$$
