No_1971-gen_results/8p0m/2024-11-26-14-13-15/
     RDKit          3D

 14 15  0  0  0  0  0  0  0  0999 V2000
  -28.1229   -1.3353   28.4874 O   0  0  0  0  0  0  0  0  0  0  0  0
  -27.4806   -0.4044   28.7094 C   0  0  0  0  0  0  0  0  0  0  0  0
  -26.3804   -0.0867   27.9394 C   0  0  0  0  0  0  0  0  0  0  0  0
  -27.4232    0.1749   30.0549 N   0  0  0  0  0  0  0  0  0  0  0  0
  -25.8482    1.0048   27.9942 C   0  0  0  0  0  0  0  0  0  0  0  0
  -24.7535    1.5238   27.1444 C   0  0  0  0  0  0  0  0  0  0  0  0
  -23.8637    2.5487   27.5414 C   0  0  0  0  0  0  0  0  0  0  0  0
  -24.2656    3.2471   28.6350 C   0  0  0  0  0  0  0  0  0  0  0  0
  -25.2323    2.8399   29.5283 C   0  0  0  0  0  0  0  0  0  0  0  0
  -25.9250    1.7242   29.2559 C   0  0  0  0  0  0  0  0  0  0  0  0
  -26.8472    1.2309   30.2163 C   0  0  0  0  0  0  0  0  0  0  0  0
  -27.0038    1.8465   31.3630 F   0  0  0  0  0  0  0  0  0  0  0  0
  -28.5968   -0.2053   30.9224 C   0  0  0  0  0  0  0  0  0  0  0  0
  -24.4285    0.9132   26.0243 F   0  0  0  0  0  0  0  0  0  0  0  0
  1  2  2  0
  2  3  1  0
  2  4  1  0
  4 11  1  0
 10 11  1  0
 11 12  1  0
  4 13  1  0
  6 14  1  0
  3  5  1  0
  5  6  2  0
  6  7  1  0
  7  8  2  0
  8  9  1  0
  9 10  2  0
 10  5  1  0
M  END

$$$$
