No_1716-gen_results/8p0m/2024-11-26-14-13-15/
     RDKit          3D

  6  5  0  0  0  0  0  0  0  0999 V2000
  -28.0544   -1.0498   28.7246 N   0  0  0  0  0  0  0  0  0  0  0  0
  -26.9659   -0.4722   28.7709 C   0  0  0  0  0  0  0  0  0  0  0  0
  -25.9250   -0.7447   29.5664 C   0  0  0  0  0  0  0  0  0  0  0  0
  -24.6435   -0.0636   29.6258 C   0  0  0  0  0  0  0  0  0  0  0  0
  -24.3964    0.9266   28.6609 C   0  0  0  0  0  0  0  0  0  0  0  0
  -25.4798    1.1783   27.7420 C   0  0  0  0  0  0  0  0  0  0  0  0
  1  2  3  0
  2  3  1  0
  3  4  1  0
  4  5  2  3
  5  6  1  0
M  END

$$$$
