No_1310-gen_results/8p0m/2024-11-26-14-13-15/
     RDKit          3D

 17 18  0  0  0  0  0  0  0  0999 V2000
  -28.1229   -1.3353   28.4874 O   0  0  0  0  0  0  0  0  0  0  0  0
  -27.4806   -0.4044   28.7094 C   0  0  0  0  0  0  0  0  0  0  0  0
  -27.1904    0.2460   29.5268 C   0  0  0  0  0  0  0  0  0  0  0  0
  -26.6871   -0.0001   27.4423 N   0  0  0  0  0  0  0  0  0  0  0  0
  -27.6511    0.1259   30.8799 C   0  0  0  0  0  0  0  0  0  0  0  0
  -25.7508    1.0047   27.4342 C   0  0  0  0  0  0  0  0  0  0  0  0
  -25.5610    1.6907   28.6120 C   0  0  0  0  0  0  0  0  0  0  0  0
  -26.1559    1.3682   29.6808 C   0  0  0  0  0  0  0  0  0  0  0  0
  -28.2298   -0.8119   31.2019 N   0  0  0  0  0  0  0  0  0  0  0  0
  -29.5142   -1.0761   31.0119 C   0  0  0  0  0  0  0  0  0  0  0  0
  -30.0231   -2.3981   31.1920 C   0  0  0  0  0  0  0  0  0  0  0  0
  -29.7296   -3.2452   30.6526 C   0  0  0  0  0  0  0  0  0  0  0  0
  -30.0787   -4.7237   30.8632 C   0  0  0  0  0  0  0  0  0  0  0  0
  -30.9525   -4.9629   31.8605 C   0  0  0  0  0  0  0  0  0  0  0  0
  -31.3757   -3.8570   32.6096 C   0  0  0  0  0  0  0  0  0  0  0  0
  -30.9371   -2.5712   32.3488 C   0  0  0  0  0  0  0  0  0  0  0  0
  -27.5554    0.9397   31.8941 O   0  0  0  0  0  0  0  0  0  0  0  0
  1  2  2  0
  2  3  1  0
  2  4  1  0
  3  5  1  0
  6  7  1  0
  3  8  1  0
  5  9  1  0
  9 10  1  0
  5 17  2  0
 10 11  1  0
  8  7  1  0
  6  4  1  0
 11 12  2  0
 12 13  1  0
 13 14  2  0
 14 15  1  0
 15 16  2  0
 16 11  1  0
M  END

$$$$
