No_1575-gen_results/8p0m/2024-11-26-14-13-15/
     RDKit          3D

 21 22  0  0  0  0  0  0  0  0999 V2000
  -28.0162   -0.8135   28.8779 C   0  0  0  0  0  0  0  0  0  0  0  0
  -28.4690   -0.7850   29.8287 C   0  0  0  0  0  0  0  0  0  0  0  0
  -27.0871    0.2903   28.6377 C   0  0  0  0  0  0  0  0  0  0  0  0
  -26.8317    1.2487   29.5869 C   0  0  0  0  0  0  0  0  0  0  0  0
  -28.3914    0.0801   31.0065 C   0  0  0  0  0  0  0  0  0  0  0  0
  -27.4940    1.1521   30.7841 C   0  0  0  0  0  0  0  0  0  0  0  0
  -26.3109    0.3918   27.3640 C   0  0  0  0  0  0  0  0  0  0  0  0
  -24.9686    0.2477   27.4806 C   0  0  0  0  0  0  0  0  0  0  0  0
  -24.2490   -0.0471   28.6523 C   0  0  0  0  0  0  0  0  0  0  0  0
  -22.8336    0.1271   28.6599 C   0  0  0  0  0  0  0  0  0  0  0  0
  -22.0707    0.8056   28.4701 C   0  0  0  0  0  0  0  0  0  0  0  0
  -22.4972    2.0105   27.6864 C   0  0  0  0  0  0  0  0  0  0  0  0
  -23.5498    2.1497   26.7628 C   0  0  0  0  0  0  0  0  0  0  0  0
  -24.5193    1.8225   27.1283 C   0  0  0  0  0  0  0  0  0  0  0  0
  -27.0402    0.3021   26.1734 C   0  0  0  0  0  0  0  0  0  0  0  0
  -27.0289    1.4362   25.3926 C   0  0  0  0  0  0  0  0  0  0  0  0
  -28.2562    2.1278   25.2918 C   0  0  0  0  0  0  0  0  0  0  0  0
  -28.2997    3.1228   25.9902 C   0  0  0  0  0  0  0  0  0  0  0  0
  -29.2235    1.7034   24.3487 C   0  0  0  0  0  0  0  0  0  0  0  0
  -29.0390    3.7251   26.5131 C   0  0  0  0  0  0  0  0  0  0  0  0
  -29.0512    4.8703   27.4293 C   0  0  0  0  0  0  0  0  0  0  0  0
  3  7  1  0
  7  8  2  3
  8  9  1  0
  9 10  2  0
 10 11  1  0
 11 12  2  0
 12 13  1  0
  8 14  1  0
 13 14  1  0
  7 15  1  0
 15 16  1  0
 16 17  1  0
 17 18  1  0
 17 19  1  0
 18 20  2  3
 20 21  1  0
  1  2  2  0
  2  5  1  0
  5  6  2  0
  6  4  1  0
  4  3  2  0
  3  1  1  0
M  END

$$$$
