No_1847-gen_results/8p0m/2024-11-26-14-13-15/
     RDKit          3D

 20 21  0  0  0  0  0  0  0  0999 V2000
  -28.0162   -0.8135   28.8779 C   0  0  0  0  0  0  0  0  0  0  0  0
  -28.4690   -0.7850   29.8287 C   0  0  0  0  0  0  0  0  0  0  0  0
  -26.5455   -0.8762   28.8500 C   0  0  0  0  0  0  0  0  0  0  0  0
  -25.8041   -1.0324   30.0571 C   0  0  0  0  0  0  0  0  0  0  0  0
  -26.5373   -1.0386   31.2171 C   0  0  0  0  0  0  0  0  0  0  0  0
  -27.8843   -0.9532   31.1862 C   0  0  0  0  0  0  0  0  0  0  0  0
  -24.3555   -1.1121   30.0346 C   0  0  0  0  0  0  0  0  0  0  0  0
  -23.6610    0.1027   29.8448 C   0  0  0  0  0  0  0  0  0  0  0  0
  -22.4205    0.1575   29.1928 C   0  0  0  0  0  0  0  0  0  0  0  0
  -21.8312    1.3420   28.8564 C   0  0  0  0  0  0  0  0  0  0  0  0
  -24.1357    1.3453   30.3719 C   0  0  0  0  0  0  0  0  0  0  0  0
  -23.6601    2.5799   29.9545 C   0  0  0  0  0  0  0  0  0  0  0  0
  -22.4267    2.5972   29.1994 C   0  0  0  0  0  0  0  0  0  0  0  0
  -25.8113   -0.8483   27.7300 F   0  0  0  0  0  0  0  0  0  0  0  0
  -30.0674   -0.7075   29.8818 C   0  0  0  0  0  0  0  0  0  0  0  0
  -30.6731    0.0312   30.7323 O   0  0  0  0  0  0  0  0  0  0  0  0
  -30.6747   -1.3701   29.0458 O   0  0  0  0  0  0  0  0  0  0  0  0
  -23.7438   -2.3562   30.1823 C   0  0  0  0  0  0  0  0  0  0  0  0
  -20.6830    1.3977   28.1316 O   0  0  0  0  0  0  0  0  0  0  0  0
  -23.9372   -3.2665   29.2845 O   0  0  0  0  0  0  0  0  0  0  0  0
  4  7  1  0
  7  8  1  0
  3 14  1  0
  2 15  1  0
 15 16  2  0
 15 17  1  0
  7 18  1  0
 10 19  1  0
 18 20  1  0
  1  2  2  0
  2  6  1  0
  6  5  2  0
  5  4  1  0
  4  3  2  0
  3  1  1  0
  8  9  2  0
  9 10  1  0
 10 13  2  0
 13 12  1  0
 12 11  2  0
 11  8  1  0
M  END

$$$$
