No_1545-gen_results/8p0m/2024-11-26-14-13-15/
     RDKit          3D

 19 20  0  0  0  0  0  0  0  0999 V2000
  -28.0162   -0.8135   28.8779 C   0  0  0  0  0  0  0  0  0  0  0  0
  -28.4690   -0.7850   29.8287 C   0  0  0  0  0  0  0  0  0  0  0  0
  -27.0871    0.2903   28.6377 C   0  0  0  0  0  0  0  0  0  0  0  0
  -26.8317    1.2487   29.5869 C   0  0  0  0  0  0  0  0  0  0  0  0
  -28.3914    0.0801   31.0065 C   0  0  0  0  0  0  0  0  0  0  0  0
  -27.4940    1.1521   30.7841 C   0  0  0  0  0  0  0  0  0  0  0  0
  -26.3571    0.1832   27.3678 C   0  0  0  0  0  0  0  0  0  0  0  0
  -26.8207    0.7901   26.2070 C   0  0  0  0  0  0  0  0  0  0  0  0
  -24.9171    0.7056   27.4987 C   0  0  0  0  0  0  0  0  0  0  0  0
  -24.0297    0.0949   28.3767 C   0  0  0  0  0  0  0  0  0  0  0  0
  -22.7300    0.5893   28.4683 C   0  0  0  0  0  0  0  0  0  0  0  0
  -22.2578    1.5310   27.5402 C   0  0  0  0  0  0  0  0  0  0  0  0
  -24.3129    1.7122   26.6802 C   0  0  0  0  0  0  0  0  0  0  0  0
  -23.0938    2.1504   26.7329 C   0  0  0  0  0  0  0  0  0  0  0  0
  -28.0289    0.8297   26.0328 C   0  0  0  0  0  0  0  0  0  0  0  0
  -28.6380    1.2979   24.7889 C   0  0  0  0  0  0  0  0  0  0  0  0
  -29.9861    1.3957   24.6798 C   0  0  0  0  0  0  0  0  0  0  0  0
  -30.8609    1.0172   25.6825 C   0  0  0  0  0  0  0  0  0  0  0  0
  -30.3623    0.6054   26.8980 C   0  0  0  0  0  0  0  0  0  0  0  0
  3  7  1  0
  7  8  1  0
  7  9  1  0
  8 15  2  3
 15 16  1  0
 16 17  2  3
 17 18  1  0
 18 19  2  0
  1  2  2  0
  2  5  1  0
  5  6  2  0
  6  4  1  0
  4  3  2  0
  3  1  1  0
  9 10  2  0
 10 11  1  0
 11 12  2  0
 12 14  1  0
 14 13  2  0
 13  9  1  0
M  END

$$$$
