No_1774-gen_results/8p0m/2024-11-26-14-13-15/
     RDKit          3D

 34 37  0  0  0  0  0  0  0  0999 V2000
  -28.0162   -0.8135   28.8779 C   0  0  0  0  0  0  0  0  0  0  0  0
  -27.0636   -0.1189   28.6079 C   0  0  0  0  0  0  0  0  0  0  0  0
  -25.7647   -0.3897   29.0360 C   0  0  0  0  0  0  0  0  0  0  0  0
  -25.5296   -1.5302   29.9014 C   0  0  0  0  0  0  0  0  0  0  0  0
  -26.6888   -2.2893   30.1810 C   0  0  0  0  0  0  0  0  0  0  0  0
  -27.8727   -1.9508   29.7373 C   0  0  0  0  0  0  0  0  0  0  0  0
  -24.4208    0.2303   28.7927 C   0  0  0  0  0  0  0  0  0  0  0  0
  -24.3142    1.1690   27.8085 C   0  0  0  0  0  0  0  0  0  0  0  0
  -25.0962    1.7314   27.0450 C   0  0  0  0  0  0  0  0  0  0  0  0
  -24.6937    2.6499   26.0468 C   0  0  0  0  0  0  0  0  0  0  0  0
  -23.3397    2.9622   25.8563 C   0  0  0  0  0  0  0  0  0  0  0  0
  -22.8371    1.5803   27.6500 C   0  0  0  0  0  0  0  0  0  0  0  0
  -22.4808    2.4919   26.7179 C   0  0  0  0  0  0  0  0  0  0  0  0
  -23.7983    0.6853   30.0727 C   0  0  0  0  0  0  0  0  0  0  0  0
  -28.9595   -2.6992   30.0444 O   0  0  0  0  0  0  0  0  0  0  0  0
  -30.0876   -2.1420   30.5320 C   0  0  0  0  0  0  0  0  0  0  0  0
  -31.1786   -2.7921   30.1459 C   0  0  0  0  0  0  0  0  0  0  0  0
  -32.4726   -2.2068   30.3759 C   0  0  0  0  0  0  0  0  0  0  0  0
  -32.5001   -1.0166   31.1710 C   0  0  0  0  0  0  0  0  0  0  0  0
  -31.3405   -0.4555   31.5960 C   0  0  0  0  0  0  0  0  0  0  0  0
  -30.0869   -0.9625   31.2605 C   0  0  0  0  0  0  0  0  0  0  0  0
  -23.5493   -1.0259   28.2552 C   0  0  0  0  0  0  0  0  0  0  0  0
  -33.8463   -0.4708   31.5363 C   0  0  0  0  0  0  0  0  0  0  0  0
  -33.9234    0.1316   32.6868 C   0  0  0  0  0  0  0  0  0  0  0  0
  -32.7194    0.8028   33.1983 C   0  0  0  0  0  0  0  0  0  0  0  0
  -31.4444    0.5203   32.7284 C   0  0  0  0  0  0  0  0  0  0  0  0
  -30.2421    1.0924   33.2925 C   0  0  0  0  0  0  0  0  0  0  0  0
  -29.6761    2.1217   32.6393 C   0  0  0  0  0  0  0  0  0  0  0  0
  -30.2214    2.6889   31.7898 F   0  0  0  0  0  0  0  0  0  0  0  0
  -29.3229    3.1015   33.5751 F   0  0  0  0  0  0  0  0  0  0  0  0
  -28.3879    1.7233   32.1878 F   0  0  0  0  0  0  0  0  0  0  0  0
  -24.2107    0.4491   31.0491 F   0  0  0  0  0  0  0  0  0  0  0  0
  -23.8972    2.0975   30.0127 F   0  0  0  0  0  0  0  0  0  0  0  0
  -22.4777    0.4532   30.1218 F   0  0  0  0  0  0  0  0  0  0  0  0
  3  7  1  0
  7  8  1  0
  7 14  1  0
  6 15  1  0
 15 16  1  0
  7 22  1  0
 26 27  1  0
 27 28  1  0
 28 29  1  0
 28 30  1  0
 28 31  1  0
 14 32  1  0
 14 33  1  0
 14 34  1  0
  1  2  2  0
  2  3  1  0
  3  4  2  0
  4  5  1  0
  5  6  2  0
  6  1  1  0
 16 17  2  0
 17 18  1  0
 18 19  2  0
 20 21  2  0
 21 16  1  0
 19 20  1  0
 20 26  1  0
 26 25  2  0
 25 24  1  0
 24 23  2  0
 23 19  1  0
  8  9  2  0
  9 10  1  0
 10 11  2  0
 11 13  1  0
 13 12  2  0
 12  8  1  0
M  END

$$$$
