No_1680-gen_results/8p0m/2024-11-26-14-13-15/
     RDKit          3D

 13 14  0  0  0  0  0  0  0  0999 V2000
  -28.0162   -0.8135   28.8779 C   0  0  0  0  0  0  0  0  0  0  0  0
  -27.0636   -0.1189   28.6079 C   0  0  0  0  0  0  0  0  0  0  0  0
  -26.9716    0.7139   27.5060 C   0  0  0  0  0  0  0  0  0  0  0  0
  -28.1053    0.7744   26.6421 C   0  0  0  0  0  0  0  0  0  0  0  0
  -29.2008    0.1044   27.0527 C   0  0  0  0  0  0  0  0  0  0  0  0
  -29.2096   -0.6029   28.1853 C   0  0  0  0  0  0  0  0  0  0  0  0
  -30.5720    0.2423   26.0548 Cl  0  0  0  0  0  0  0  0  0  0  0  0
  -25.7026   -0.2359   29.4139 C   0  0  0  0  0  0  0  0  0  0  0  0
  -25.5964   -0.4791   30.4557 C   0  0  0  0  0  0  0  0  0  0  0  0
  -24.6917   -0.4412   31.2490 C   0  0  0  0  0  0  0  0  0  0  0  0
  -23.3064   -0.1237   30.7691 C   0  0  0  0  0  0  0  0  0  0  0  0
  -23.3302    0.2261   29.4289 C   0  0  0  0  0  0  0  0  0  0  0  0
  -24.5189    0.1905   28.6219 C   0  0  0  0  0  0  0  0  0  0  0  0
  5  7  1  0
  2  8  1  0
  1  2  2  0
  2  3  1  0
  3  4  2  0
  4  5  1  0
  5  6  2  0
  6  1  1  0
  8  9  2  0
  9 10  1  0
 10 11  2  0
 11 12  1  0
 12 13  2  0
 13  8  1  0
M  END

$$$$
