No_1671-gen_results/8p0m/2024-11-26-14-13-15/
     RDKit          3D

 18 19  0  0  0  0  0  0  0  0999 V2000
  -28.0162   -0.8135   28.8779 C   0  0  0  0  0  0  0  0  0  0  0  0
  -28.4690   -0.7850   29.8287 C   0  0  0  0  0  0  0  0  0  0  0  0
  -28.1960    0.3478   28.0550 C   0  0  0  0  0  0  0  0  0  0  0  0
  -29.0191    1.3501   28.3782 C   0  0  0  0  0  0  0  0  0  0  0  0
  -29.4107    0.1803   30.3782 C   0  0  0  0  0  0  0  0  0  0  0  0
  -29.6059    1.2495   29.6193 C   0  0  0  0  0  0  0  0  0  0  0  0
  -27.4597    0.3802   26.7091 C   0  0  0  0  0  0  0  0  0  0  0  0
  -26.6620    1.4083   26.5085 N   0  0  0  0  0  0  0  0  0  0  0  0
  -25.4030    1.5103   27.1730 C   0  0  0  0  0  0  0  0  0  0  0  0
  -24.6313    2.6716   26.9522 C   0  0  0  0  0  0  0  0  0  0  0  0
  -24.8687    0.5307   27.9820 C   0  0  0  0  0  0  0  0  0  0  0  0
  -23.6549    0.6898   28.6145 C   0  0  0  0  0  0  0  0  0  0  0  0
  -23.3515    2.8049   27.5142 C   0  0  0  0  0  0  0  0  0  0  0  0
  -23.0467   -0.3572   29.4364 C   0  0  0  0  0  0  0  0  0  0  0  0
  -22.8470    1.7940   28.3369 C   0  0  0  0  0  0  0  0  0  0  0  0
  -23.6774   -1.0348   30.0904 O   0  0  0  0  0  0  0  0  0  0  0  0
  -21.7039   -0.6169   29.1984 O   0  0  0  0  0  0  0  0  0  0  0  0
  -27.1404    2.4873   25.7371 C   0  0  0  0  0  0  0  0  0  0  0  0
  3  7  1  0
  7  8  1  0
  8  9  1  0
 12 14  1  0
 14 16  2  0
 14 17  1  0
  8 18  1  0
  9 10  2  0
 10 13  1  0
 13 15  2  0
 15 12  1  0
 12 11  2  0
 11  9  1  0
  1  2  2  0
  2  5  1  0
  5  6  2  0
  6  4  1  0
  4  3  2  0
  3  1  1  0
M  END

$$$$
