No_1964-gen_results/8p0m/2024-11-26-14-13-15/
     RDKit          3D

 29 31  0  0  0  0  0  0  0  0999 V2000
  -28.0162   -0.8135   28.8779 C   0  0  0  0  0  0  0  0  0  0  0  0
  -27.0636   -0.1189   28.6079 C   0  0  0  0  0  0  0  0  0  0  0  0
  -27.0010    0.6913   27.4910 C   0  0  0  0  0  0  0  0  0  0  0  0
  -25.7770    1.0214   26.9135 C   0  0  0  0  0  0  0  0  0  0  0  0
  -24.6982    0.6762   27.4835 C   0  0  0  0  0  0  0  0  0  0  0  0
  -24.6104   -0.1076   28.6413 C   0  0  0  0  0  0  0  0  0  0  0  0
  -25.8358   -0.5515   29.0863 C   0  0  0  0  0  0  0  0  0  0  0  0
  -28.6442   -0.5434   30.0547 N   0  0  0  0  0  0  0  0  0  0  0  0
  -29.6043   -1.3007   30.6375 C   0  0  0  0  0  0  0  0  0  0  0  0
  -30.0855   -2.2131   30.1201 O   0  0  0  0  0  0  0  0  0  0  0  0
  -30.0763   -0.8102   32.0275 C   0  0  0  0  0  0  0  0  0  0  0  0
  -23.3208    1.2613   26.9965 C   0  0  0  0  0  0  0  0  0  0  0  0
  -22.2090    1.2198   27.8678 C   0  0  0  0  0  0  0  0  0  0  0  0
  -22.2364    0.3152   28.9232 C   0  0  0  0  0  0  0  0  0  0  0  0
  -23.4064   -0.2928   29.3547 C   0  0  0  0  0  0  0  0  0  0  0  0
  -29.8263    0.1795   32.4687 O   0  0  0  0  0  0  0  0  0  0  0  0
  -30.5047   -1.8674   32.8098 N   0  0  0  0  0  0  0  0  0  0  0  0
  -23.2931    2.2449   25.9133 C   0  0  0  0  0  0  0  0  0  0  0  0
  -30.9707   -1.5931   34.1971 C   0  0  0  0  0  0  0  0  0  0  0  0
  -28.2680    1.0193   26.7713 C   0  0  0  0  0  0  0  0  0  0  0  0
  -28.3734    1.1568   25.6478 O   0  0  0  0  0  0  0  0  0  0  0  0
  -29.1785    1.5921   27.5395 O   0  0  0  0  0  0  0  0  0  0  0  0
  -31.9844   -1.6262   34.3530 C   0  0  0  0  0  0  0  0  0  0  0  0
  -32.9767   -1.9685   33.5922 C   0  0  0  0  0  0  0  0  0  0  0  0
  -32.6547   -2.4437   32.3650 C   0  0  0  0  0  0  0  0  0  0  0  0
  -31.7614   -2.4175   32.0924 C   0  0  0  0  0  0  0  0  0  0  0  0
  -33.8059   -2.9545   31.4964 C   0  0  0  0  0  0  0  0  0  0  0  0
  -34.9687   -2.7107   31.6275 C   0  0  0  0  0  0  0  0  0  0  0  0
  -35.9613   -3.1566   30.7782 C   0  0  0  0  0  0  0  0  0  0  0  0
  1  2  1  0
  1  8  1  0
  8  9  1  0
  9 10  2  0
  9 11  1  0
 11 16  2  0
 11 17  1  0
 12 18  1  0
 17 19  1  0
  3 20  1  0
 20 21  2  0
 20 22  1  0
 19 23  1  0
 24 25  1  0
 17 26  1  0
 25 26  1  0
 25 27  1  0
 27 28  2  3
 28 29  1  0
 23 24  1  0
  6 15  1  0
 15 14  2  0
 14 13  1  0
 13 12  2  0
 12  5  1  0
  2  3  2  0
  3  4  1  0
  4  5  2  0
  5  6  1  0
  6  7  2  0
  7  2  1  0
M  END

$$$$
