No_1325-gen_results/8p0m/2024-11-26-14-13-15/
     RDKit          3D

 14 15  0  0  0  0  0  0  0  0999 V2000
  -28.1229   -1.3353   28.4874 O   0  0  0  0  0  0  0  0  0  0  0  0
  -27.0637   -0.8242   28.8687 C   0  0  0  0  0  0  0  0  0  0  0  0
  -26.4017   -0.0623   28.6224 C   0  0  0  0  0  0  0  0  0  0  0  0
  -26.3805   -1.7991   29.9619 N   0  0  0  0  0  0  0  0  0  0  0  0
  -25.0334    0.3743   29.0484 C   0  0  0  0  0  0  0  0  0  0  0  0
  -24.5519   -0.5089   30.0932 C   0  0  0  0  0  0  0  0  0  0  0  0
  -25.2414   -1.5775   30.4661 C   0  0  0  0  0  0  0  0  0  0  0  0
  -26.8373    0.9914   27.5322 C   0  0  0  0  0  0  0  0  0  0  0  0
  -26.0187    1.6075   26.7266 C   0  0  0  0  0  0  0  0  0  0  0  0
  -24.6758    1.9872   27.2770 C   0  0  0  0  0  0  0  0  0  0  0  0
  -24.1337    1.2140   28.3146 C   0  0  0  0  0  0  0  0  0  0  0  0
  -22.7665    1.4642   28.7217 C   0  0  0  0  0  0  0  0  0  0  0  0
  -21.9256    1.9138   27.8017 O   0  0  0  0  0  0  0  0  0  0  0  0
  -22.4197    1.4223   29.9609 O   0  0  0  0  0  0  0  0  0  0  0  0
  1  2  2  0
  2  3  1  0
  2  4  1  0
  5  6  1  0
  6  7  1  0
 11 12  1  0
 12 13  2  0
 12 14  1  0
  7  4  1  0
  3  8  2  0
  8  9  1  0
  9 10  2  0
 10 11  1  0
 11  5  2  0
  5  3  1  0
M  END

$$$$
