No_1063-gen_results/8p0m/2024-11-26-14-13-15/
     RDKit          3D

 18 20  0  0  0  0  0  0  0  0999 V2000
  -28.0162   -0.8135   28.8779 C   0  0  0  0  0  0  0  0  0  0  0  0
  -28.4690   -0.7850   29.8287 C   0  0  0  0  0  0  0  0  0  0  0  0
  -28.1960    0.3478   28.0550 C   0  0  0  0  0  0  0  0  0  0  0  0
  -27.4421    0.5100   26.7946 C   0  0  0  0  0  0  0  0  0  0  0  0
  -26.1689   -0.0794   26.6787 C   0  0  0  0  0  0  0  0  0  0  0  0
  -25.7312   -0.9607   27.6875 C   0  0  0  0  0  0  0  0  0  0  0  0
  -26.5043   -1.2222   28.7582 C   0  0  0  0  0  0  0  0  0  0  0  0
  -28.4210   -2.0451   30.7337 C   0  0  0  0  0  0  0  0  0  0  0  0
  -27.2229   -2.6821   30.7089 N   0  0  0  0  0  0  0  0  0  0  0  0
  -26.1623   -2.3712   29.6990 C   0  0  0  0  0  0  0  0  0  0  0  0
  -25.1949   -3.0486   29.5840 O   0  0  0  0  0  0  0  0  0  0  0  0
  -29.5028    0.9702   27.9787 C   0  0  0  0  0  0  0  0  0  0  0  0
  -30.5981    0.3856   27.5899 C   0  0  0  0  0  0  0  0  0  0  0  0
  -31.8477    0.9810   27.6651 C   0  0  0  0  0  0  0  0  0  0  0  0
  -31.9333    2.2718   28.1925 C   0  0  0  0  0  0  0  0  0  0  0  0
  -29.5988    2.3282   28.6192 C   0  0  0  0  0  0  0  0  0  0  0  0
  -30.8089    2.9462   28.6860 C   0  0  0  0  0  0  0  0  0  0  0  0
  -27.7995    1.4031   25.9632 F   0  0  0  0  0  0  0  0  0  0  0  0
  1  3  1  0
  3  4  1  0
  4  5  1  0
  5  6  1  0
  1  7  1  0
  6  7  1  0
  2  8  1  0
  7 10  1  0
  9 10  1  0
 10 11  2  0
  3 12  1  0
  4 18  1  0
  1  2  1  0
  8  9  1  0
 12 13  2  0
 13 14  1  0
 14 15  2  0
 15 17  1  0
 17 16  2  0
 16 12  1  0
M  END

$$$$
