No_1693-gen_results/8p0m/2024-11-26-14-13-15/
     RDKit          3D

 10 10  0  0  0  0  0  0  0  0999 V2000
  -28.1229   -1.3353   28.4874 O   0  0  0  0  0  0  0  0  0  0  0  0
  -27.4806   -0.4044   28.7094 C   0  0  0  0  0  0  0  0  0  0  0  0
  -27.1904    0.2460   29.5268 C   0  0  0  0  0  0  0  0  0  0  0  0
  -26.8157    0.1371   27.4262 N   0  0  0  0  0  0  0  0  0  0  0  0
  -26.3550    1.4196   29.7643 C   0  0  0  0  0  0  0  0  0  0  0  0
  -26.0709    1.1987   27.5450 C   0  0  0  0  0  0  0  0  0  0  0  0
  -25.7589    1.9059   28.6134 C   0  0  0  0  0  0  0  0  0  0  0  0
  -25.4797    1.6503   26.2966 N   0  0  0  0  0  0  0  0  0  0  0  0
  -24.6195    2.7544   26.3541 C   0  0  0  0  0  0  0  0  0  0  0  0
  -24.3746    3.4378   27.4721 C   0  0  0  0  0  0  0  0  0  0  0  0
  1  2  2  0
  2  3  1  0
  2  4  1  0
  4  6  1  0
  5  7  1  0
  6  8  1  0
  8  9  2  3
  9 10  1  0
  3  5  1  0
  7  6  1  0
M  END

$$$$
