No_1308-gen_results/8p0m/2024-11-26-14-13-15/
     RDKit          3D

 13 13  0  0  0  0  0  0  0  0999 V2000
  -28.0162   -0.8135   28.8779 C   0  0  0  0  0  0  0  0  0  0  0  0
  -27.0636   -0.1190   28.6079 C   0  0  0  0  0  0  0  0  0  0  0  0
  -25.7923   -0.4302   29.0761 C   0  0  0  0  0  0  0  0  0  0  0  0
  -24.5456    0.3494   28.8225 C   0  0  0  0  0  0  0  0  0  0  0  0
  -24.6586    1.4196   27.8878 C   0  0  0  0  0  0  0  0  0  0  0  0
  -25.9471    1.6811   27.3792 C   0  0  0  0  0  0  0  0  0  0  0  0
  -27.0439    0.9739   27.6871 C   0  0  0  0  0  0  0  0  0  0  0  0
  -27.9170   -2.0335   29.1421 F   0  0  0  0  0  0  0  0  0  0  0  0
  -28.9823   -0.7243   27.9004 F   0  0  0  0  0  0  0  0  0  0  0  0
  -28.5764   -0.4094   30.0942 F   0  0  0  0  0  0  0  0  0  0  0  0
  -23.4610    2.1796   27.6473 C   0  0  0  0  0  0  0  0  0  0  0  0
  -23.4930    3.2347   27.0160 N   0  0  0  0  0  0  0  0  0  0  0  0
  -22.2187    1.7022   27.8470 O   0  0  0  0  0  0  0  0  0  0  0  0
  1  2  1  0
  1  8  1  0
  1  9  1  0
  1 10  1  0
  5 11  1  0
 11 12  1  0
 11 13  2  0
  2  3  2  0
  3  4  1  0
  4  5  2  0
  5  6  1  0
  6  7  2  0
  7  2  1  0
M  END

$$$$
