No_1935-gen_results/8p0m/2024-11-26-14-13-15/
     RDKit          3D

 21 23  0  0  0  0  0  0  0  0999 V2000
  -28.0544   -1.0498   28.7246 N   0  0  0  0  0  0  0  0  0  0  0  0
  -28.6544   -0.5669   29.5076 C   0  0  0  0  0  0  0  0  0  0  0  0
  -28.1376    0.1595   30.5233 C   0  0  0  0  0  0  0  0  0  0  0  0
  -26.7189    0.4201   30.5561 C   0  0  0  0  0  0  0  0  0  0  0  0
  -25.9589   -0.1825   29.5488 C   0  0  0  0  0  0  0  0  0  0  0  0
  -26.6536   -0.9391   28.6362 C   0  0  0  0  0  0  0  0  0  0  0  0
  -30.0120   -0.8015   29.5534 N   0  0  0  0  0  0  0  0  0  0  0  0
  -30.9873   -0.4943   29.1761 C   0  0  0  0  0  0  0  0  0  0  0  0
  -30.9738    0.5286   28.4977 O   0  0  0  0  0  0  0  0  0  0  0  0
  -32.2738   -1.2352   29.3148 C   0  0  0  0  0  0  0  0  0  0  0  0
  -33.1632   -1.2023   28.8062 C   0  0  0  0  0  0  0  0  0  0  0  0
  -34.4014   -1.9968   28.9828 C   0  0  0  0  0  0  0  0  0  0  0  0
  -34.3105   -2.9499   30.0046 C   0  0  0  0  0  0  0  0  0  0  0  0
  -33.1467   -3.0933   30.6986 C   0  0  0  0  0  0  0  0  0  0  0  0
  -32.0602   -2.2896   30.4326 C   0  0  0  0  0  0  0  0  0  0  0  0
  -24.5241   -0.0197   29.4973 C   0  0  0  0  0  0  0  0  0  0  0  0
  -23.7201   -1.0122   30.1228 C   0  0  0  0  0  0  0  0  0  0  0  0
  -24.0371    1.2907   30.0732 C   0  0  0  0  0  0  0  0  0  0  0  0
  -24.0513    0.1329   27.9973 C   0  0  0  0  0  0  0  0  0  0  0  0
  -22.9094    0.9798   27.8135 C   0  0  0  0  0  0  0  0  0  0  0  0
  -22.6784    1.6145   29.1434 C   0  0  0  0  0  0  0  0  0  0  0  0
  2  7  1  0
  7  8  1  0
  8  9  2  0
  8 10  1  0
  5 16  1  0
 16 17  1  0
 16 18  1  0
 16 19  1  0
 19 20  1  0
 18 21  1  0
 20 21  1  0
  1  2  2  0
  2  3  1  0
  3  4  2  0
  4  5  1  0
  5  6  2  0
  6  1  1  0
 10 11  2  0
 11 12  1  0
 12 13  2  0
 13 14  1  0
 14 15  2  0
 15 10  1  0
M  END

$$$$
