No_1833-gen_results/8p0m/2024-11-26-14-13-15/
     RDKit          3D

 22 24  0  0  0  0  0  0  0  0999 V2000
  -28.0162   -0.8135   28.8779 C   0  0  0  0  0  0  0  0  0  0  0  0
  -27.0636   -0.1189   28.6079 C   0  0  0  0  0  0  0  0  0  0  0  0
  -25.7923   -0.4302   29.0761 C   0  0  0  0  0  0  0  0  0  0  0  0
  -24.5456    0.3494   28.8225 C   0  0  0  0  0  0  0  0  0  0  0  0
  -23.2409    0.0217   29.3323 C   0  0  0  0  0  0  0  0  0  0  0  0
  -27.8820   -1.8995   29.8633 C   0  0  0  0  0  0  0  0  0  0  0  0
  -26.6526   -2.3141   30.3138 C   0  0  0  0  0  0  0  0  0  0  0  0
  -25.5153   -1.5607   29.9787 C   0  0  0  0  0  0  0  0  0  0  0  0
  -22.1588    0.7866   28.9507 C   0  0  0  0  0  0  0  0  0  0  0  0
  -22.1309    1.7439   27.9818 C   0  0  0  0  0  0  0  0  0  0  0  0
  -24.6218    1.5666   28.0091 C   0  0  0  0  0  0  0  0  0  0  0  0
  -23.3878    2.1563   27.5546 C   0  0  0  0  0  0  0  0  0  0  0  0
  -29.0419   -2.7360   30.2842 C   0  0  0  0  0  0  0  0  0  0  0  0
  -28.9793   -3.9456   30.2966 O   0  0  0  0  0  0  0  0  0  0  0  0
  -29.9770   -2.1016   31.0476 N   0  0  0  0  0  0  0  0  0  0  0  0
  -31.1169   -2.8784   31.5885 C   0  0  0  0  0  0  0  0  0  0  0  0
  -30.0429   -0.6755   31.2575 C   0  0  0  0  0  0  0  0  0  0  0  0
  -30.8249   -0.0039   30.5560 C   0  0  0  0  0  0  0  0  0  0  0  0
  -30.7060    1.4097   30.5669 C   0  0  0  0  0  0  0  0  0  0  0  0
  -29.7597    2.0387   31.4027 C   0  0  0  0  0  0  0  0  0  0  0  0
  -28.9109    1.2115   32.1802 C   0  0  0  0  0  0  0  0  0  0  0  0
  -28.9764   -0.1125   32.0955 C   0  0  0  0  0  0  0  0  0  0  0  0
  3  4  1  0
  6 13  1  0
 13 14  2  0
 13 15  1  0
 15 16  1  0
 15 17  1  0
 17 18  2  0
 18 19  1  0
 19 20  2  0
 20 21  1  0
 21 22  2  0
 22 17  1  0
  1  2  2  0
  2  3  1  0
  3  8  2  0
  8  7  1  0
  7  6  2  0
  6  1  1  0
  4  5  2  0
  5  9  1  0
  9 10  2  0
 10 12  1  0
 12 11  2  0
 11  4  1  0
M  END

$$$$
