No_1286-gen_results/8p0m/2024-11-26-14-13-15/
     RDKit          3D

 15 14  0  0  0  0  0  0  0  0999 V2000
  -28.0162   -0.8135   28.8779 C   0  0  0  0  0  0  0  0  0  0  0  0
  -28.4690   -0.7850   29.8287 C   0  0  0  0  0  0  0  0  0  0  0  0
  -26.5042   -0.7777   28.8766 C   0  0  0  0  0  0  0  0  0  0  0  0
  -26.0808   -1.8936   29.1655 F   0  0  0  0  0  0  0  0  0  0  0  0
  -25.9581    0.1184   29.7237 F   0  0  0  0  0  0  0  0  0  0  0  0
  -25.9513   -0.4199   27.6514 F   0  0  0  0  0  0  0  0  0  0  0  0
  -27.7649   -0.9454   30.7900 F   0  0  0  0  0  0  0  0  0  0  0  0
  -29.9331   -0.9371   30.0331 C   0  0  0  0  0  0  0  0  0  0  0  0
  -30.4066   -1.8114   30.6116 O   0  0  0  0  0  0  0  0  0  0  0  0
  -30.6598   -0.0193   29.4228 N   0  0  0  0  0  0  0  0  0  0  0  0
  -32.0909   -0.0610   29.3842 C   0  0  0  0  0  0  0  0  0  0  0  0
  -32.5757    0.6007   28.4277 C   0  0  0  0  0  0  0  0  0  0  0  0
  -31.8428    1.3426   27.6176 C   0  0  0  0  0  0  0  0  0  0  0  0
  -32.3583    2.0348   26.4647 C   0  0  0  0  0  0  0  0  0  0  0  0
  -33.6756    1.8750   26.1661 C   0  0  0  0  0  0  0  0  0  0  0  0
  1  2  1  0
  1  3  1  0
  3  4  1  0
  3  5  1  0
  3  6  1  0
  2  7  1  0
  2  8  1  0
  8  9  2  0
  8 10  1  0
 10 11  1  0
 11 12  2  3
 12 13  1  0
 13 14  2  3
 14 15  1  0
M  END

$$$$
