No_1614-gen_results/8p0m/2024-11-26-14-13-15/
     RDKit          3D

 20 22  0  0  0  0  0  0  0  0999 V2000
  -28.0162   -0.8135   28.8779 C   0  0  0  0  0  0  0  0  0  0  0  0
  -28.4690   -0.7850   29.8287 C   0  0  0  0  0  0  0  0  0  0  0  0
  -26.5042   -0.7777   28.8766 C   0  0  0  0  0  0  0  0  0  0  0  0
  -25.6540   -0.6597   27.7191 C   0  0  0  0  0  0  0  0  0  0  0  0
  -27.9180   -0.9374   31.1824 C   0  0  0  0  0  0  0  0  0  0  0  0
  -26.5424   -0.9399   31.2606 C   0  0  0  0  0  0  0  0  0  0  0  0
  -25.7832   -0.8935   30.1201 C   0  0  0  0  0  0  0  0  0  0  0  0
  -25.2204    0.6866   27.3939 C   0  0  0  0  0  0  0  0  0  0  0  0
  -23.9014    0.8981   27.7598 C   0  0  0  0  0  0  0  0  0  0  0  0
  -23.3037    2.1844   27.3240 C   0  0  0  0  0  0  0  0  0  0  0  0
  -23.9961    3.0461   26.5443 C   0  0  0  0  0  0  0  0  0  0  0  0
  -25.8647    1.5294   26.5210 C   0  0  0  0  0  0  0  0  0  0  0  0
  -25.2723    2.6762   26.0966 C   0  0  0  0  0  0  0  0  0  0  0  0
  -29.9071   -0.8169   29.8343 F   0  0  0  0  0  0  0  0  0  0  0  0
  -23.2253    0.0987   28.7095 C   0  0  0  0  0  0  0  0  0  0  0  0
  -21.8303    0.4159   28.9941 C   0  0  0  0  0  0  0  0  0  0  0  0
  -21.2600    1.4087   28.2706 C   0  0  0  0  0  0  0  0  0  0  0  0
  -21.9167    2.3846   27.6499 N   0  0  0  0  0  0  0  0  0  0  0  0
  -27.0657    1.2354   26.1504 F   0  0  0  0  0  0  0  0  0  0  0  0
  -28.6947   -1.0081   32.2681 F   0  0  0  0  0  0  0  0  0  0  0  0
  3  4  1  0
  4  8  1  0
  2 14  1  0
 12 19  1  0
  5 20  1  0
 10 18  1  0
 18 17  2  0
 17 16  1  0
 16 15  2  0
 15  9  1  0
  1  2  2  0
  2  5  1  0
  5  6  2  0
  6  7  1  0
  7  3  2  0
  3  1  1  0
  8  9  2  0
  9 10  1  0
 10 11  2  0
 11 13  1  0
 13 12  2  0
 12  8  1  0
M  END

$$$$
