No_1530-gen_results/8p0m/2024-11-26-14-13-15/
     RDKit          3D

 11 12  0  0  0  0  0  0  0  0999 V2000
  -28.0162   -0.8135   28.8779 C   0  0  0  0  0  0  0  0  0  0  0  0
  -28.4690   -0.7850   29.8287 C   0  0  0  0  0  0  0  0  0  0  0  0
  -27.1356    0.2359   28.5352 C   0  0  0  0  0  0  0  0  0  0  0  0
  -26.8050    1.0509   29.2763 C   0  0  0  0  0  0  0  0  0  0  0  0
  -28.2372    0.1503   30.9300 C   0  0  0  0  0  0  0  0  0  0  0  0
  -25.8141    2.1978   28.9924 C   0  0  0  0  0  0  0  0  0  0  0  0
  -27.3373    1.1366   30.5955 C   0  0  0  0  0  0  0  0  0  0  0  0
  -25.0548    2.2634   28.0279 C   0  0  0  0  0  0  0  0  0  0  0  0
  -24.6129    1.1635   27.3580 C   0  0  0  0  0  0  0  0  0  0  0  0
  -24.5073   -0.0012   27.9617 C   0  0  0  0  0  0  0  0  0  0  0  0
  -25.9293   -0.5598   28.1397 C   0  0  0  0  0  0  0  0  0  0  0  0
  4  6  1  0
  6  8  2  0
  8  9  1  0
  9 10  2  0
  3 11  1  0
 10 11  1  0
  1  2  2  0
  2  5  1  0
  5  7  2  0
  7  4  1  0
  4  3  2  0
  3  1  1  0
M  END

$$$$
