No_1144-gen_results/8p0m/2024-11-26-14-13-15/
     RDKit          3D

 14 14  0  0  0  0  0  0  0  0999 V2000
  -28.0162   -0.8135   28.8779 C   0  0  0  0  0  0  0  0  0  0  0  0
  -28.4690   -0.7850   29.8287 C   0  0  0  0  0  0  0  0  0  0  0  0
  -27.0871    0.2903   28.6377 C   0  0  0  0  0  0  0  0  0  0  0  0
  -26.8317    1.2487   29.5869 C   0  0  0  0  0  0  0  0  0  0  0  0
  -28.3914    0.0801   31.0065 C   0  0  0  0  0  0  0  0  0  0  0  0
  -27.4940    1.1521   30.7841 C   0  0  0  0  0  0  0  0  0  0  0  0
  -26.3172    0.3994   27.3653 C   0  0  0  0  0  0  0  0  0  0  0  0
  -25.8454    1.5466   27.3810 F   0  0  0  0  0  0  0  0  0  0  0  0
  -25.3609   -0.5208   27.3228 F   0  0  0  0  0  0  0  0  0  0  0  0
  -27.1364    0.2590   26.2887 F   0  0  0  0  0  0  0  0  0  0  0  0
  -29.5777   -2.1930   30.2715 Cl  0  0  0  0  0  0  0  0  0  0  0  0
  -27.3071    2.1939   31.8597 C   0  0  0  0  0  0  0  0  0  0  0  0
  -26.4280    2.2710   32.3579 F   0  0  0  0  0  0  0  0  0  0  0  0
  -28.3253    2.6791   31.9438 F   0  0  0  0  0  0  0  0  0  0  0  0
  3  7  1  0
  7  8  1  0
  7  9  1  0
  7 10  1  0
  2 11  1  0
  6 12  1  0
 12 13  1  0
 12 14  1  0
  1  2  2  0
  2  5  1  0
  5  6  2  0
  6  4  1  0
  4  3  2  0
  3  1  1  0
M  END

$$$$
