No_1960-gen_results/8p0m/2024-11-26-14-13-15/
     RDKit          3D

  7  6  0  0  0  0  0  0  0  0999 V2000
  -28.1229   -1.3353   28.4874 O   0  0  0  0  0  0  0  0  0  0  0  0
  -27.4806   -0.4044   28.7094 C   0  0  0  0  0  0  0  0  0  0  0  0
  -26.3236    0.0606   27.9744 Cl  0  0  0  0  0  0  0  0  0  0  0  0
  -27.7660    0.3703   29.9529 N   0  0  0  0  0  0  0  0  0  0  0  0
  -27.0563    1.5189   30.3300 C   0  0  0  0  0  0  0  0  0  0  0  0
  -25.8823    1.7048   30.2940 C   0  0  0  0  0  0  0  0  0  0  0  0
  -24.9451    1.4559   29.1251 C   0  0  0  0  0  0  0  0  0  0  0  0
  1  2  2  0
  2  3  1  0
  2  4  1  0
  4  5  1  0
  5  6  1  0
  6  7  2  0
M  END

$$$$
