No_1201-gen_results/8p0m/2024-11-26-14-13-15/
     RDKit          3D

 34 37  0  0  0  0  0  0  0  0999 V2000
  -28.0162   -0.8135   28.8779 C   0  0  0  0  0  0  0  0  0  0  0  0
  -27.0636   -0.1190   28.6079 C   0  0  0  0  0  0  0  0  0  0  0  0
  -25.7923   -0.4302   29.0761 C   0  0  0  0  0  0  0  0  0  0  0  0
  -24.5456    0.3494   28.8225 C   0  0  0  0  0  0  0  0  0  0  0  0
  -24.6586    1.4196   27.8878 C   0  0  0  0  0  0  0  0  0  0  0  0
  -25.9471    1.6811   27.3792 C   0  0  0  0  0  0  0  0  0  0  0  0
  -27.0439    0.9739   27.6871 C   0  0  0  0  0  0  0  0  0  0  0  0
  -28.6597   -0.4600   30.2006 C   0  0  0  0  0  0  0  0  0  0  0  0
  -29.7497   -1.2486   30.6773 C   0  0  0  0  0  0  0  0  0  0  0  0
  -23.4472    2.1466   27.5918 C   0  0  0  0  0  0  0  0  0  0  0  0
  -23.4744    3.1372   26.8114 N   0  0  0  0  0  0  0  0  0  0  0  0
  -22.2874    1.7439   27.9660 O   0  0  0  0  0  0  0  0  0  0  0  0
  -30.1923   -2.1841   29.8811 C   0  0  0  0  0  0  0  0  0  0  0  0
  -29.7575   -2.6029   28.7926 C   0  0  0  0  0  0  0  0  0  0  0  0
  -28.6540   -1.8661   28.3121 N   0  0  0  0  0  0  0  0  0  0  0  0
  -31.4091   -3.0726   30.3918 C   0  0  0  0  0  0  0  0  0  0  0  0
  -31.9694   -2.8951   31.4381 O   0  0  0  0  0  0  0  0  0  0  0  0
  -31.7743   -4.0698   29.5903 N   0  0  0  0  0  0  0  0  0  0  0  0
  -31.3631   -4.4210   28.4195 C   0  0  0  0  0  0  0  0  0  0  0  0
  -30.2803   -3.6898   27.9633 N   0  0  0  0  0  0  0  0  0  0  0  0
  -31.6732   -5.3291   27.6614 O   0  0  0  0  0  0  0  0  0  0  0  0
  -28.3319    1.3525   27.0519 C   0  0  0  0  0  0  0  0  0  0  0  0
  -29.0257    2.1800   27.5421 O   0  0  0  0  0  0  0  0  0  0  0  0
  -28.6499    0.6254   25.9988 O   0  0  0  0  0  0  0  0  0  0  0  0
  -28.1542    0.6773   31.0150 C   0  0  0  0  0  0  0  0  0  0  0  0
  -27.5759    0.4149   32.0028 O   0  0  0  0  0  0  0  0  0  0  0  0
  -28.4685    1.8825   30.5776 O   0  0  0  0  0  0  0  0  0  0  0  0
  -27.7935    2.9943   31.0945 C   0  0  0  0  0  0  0  0  0  0  0  0
  -28.5670    4.1648   31.1655 C   0  0  0  0  0  0  0  0  0  0  0  0
  -29.6968    4.2403   30.8988 C   0  0  0  0  0  0  0  0  0  0  0  0
  -30.5151    5.4790   30.9379 C   0  0  0  0  0  0  0  0  0  0  0  0
  -29.8054    6.6198   31.3650 C   0  0  0  0  0  0  0  0  0  0  0  0
  -28.4935    6.5745   31.6763 C   0  0  0  0  0  0  0  0  0  0  0  0
  -27.7909    5.3598   31.5807 C   0  0  0  0  0  0  0  0  0  0  0  0
  1  2  1  0
  5 10  1  0
 10 11  1  0
 10 12  2  0
 13 16  1  0
 16 17  2  0
 16 18  1  0
 18 19  1  0
 14 20  1  0
 19 20  1  0
 19 21  2  0
  7 22  1  0
 22 23  2  0
 22 24  1  0
  8 25  1  0
 25 26  2  0
 25 27  1  0
 27 28  1  0
 28 29  1  0
  1  8  1  0
  8  9  2  0
  9 13  1  0
 13 14  2  0
 14 15  1  0
 15  1  2  0
  2  3  2  0
  3  4  1  0
  4  5  2  0
  5  6  1  0
  6  7  2  0
  7  2  1  0
 29 30  2  0
 30 31  1  0
 31 32  2  0
 32 33  1  0
 33 34  2  0
 34 29  1  0
M  END

$$$$
