No_1864-gen_results/8p0m/2024-11-26-14-13-15/
     RDKit          3D

 20 21  0  0  0  0  0  0  0  0999 V2000
  -28.0162   -0.8135   28.8779 C   0  0  0  0  0  0  0  0  0  0  0  0
  -27.0636   -0.1189   28.6079 C   0  0  0  0  0  0  0  0  0  0  0  0
  -25.7647   -0.3897   29.0360 C   0  0  0  0  0  0  0  0  0  0  0  0
  -25.5296   -1.5302   29.9014 C   0  0  0  0  0  0  0  0  0  0  0  0
  -26.6888   -2.2893   30.1810 C   0  0  0  0  0  0  0  0  0  0  0  0
  -27.8727   -1.9508   29.7373 C   0  0  0  0  0  0  0  0  0  0  0  0
  -29.4358   -2.8236   30.2003 Br  0  0  0  0  0  0  0  0  0  0  0  0
  -24.6298    0.3707   28.7582 O   0  0  0  0  0  0  0  0  0  0  0  0
  -24.6023    1.3507   27.8882 C   0  0  0  0  0  0  0  0  0  0  0  0
  -23.2742    1.7955   27.6377 C   0  0  0  0  0  0  0  0  0  0  0  0
  -25.6125    1.9207   27.2469 C   0  0  0  0  0  0  0  0  0  0  0  0
  -22.0860    1.3777   28.3502 C   0  0  0  0  0  0  0  0  0  0  0  0
  -25.3183    2.9191   26.2636 C   0  0  0  0  0  0  0  0  0  0  0  0
  -24.0793    3.4438   26.0229 C   0  0  0  0  0  0  0  0  0  0  0  0
  -23.0853    2.8998   26.6830 C   0  0  0  0  0  0  0  0  0  0  0  0
  -22.1792    0.8130   29.4361 O   0  0  0  0  0  0  0  0  0  0  0  0
  -20.9443    1.2784   27.6742 O   0  0  0  0  0  0  0  0  0  0  0  0
  -29.6187   -0.4089   28.3302 Cl  0  0  0  0  0  0  0  0  0  0  0  0
  -24.3593   -1.8003   30.3279 O   0  0  0  0  0  0  0  0  0  0  0  0
  -23.5303   -2.6608   29.6810 C   0  0  0  0  0  0  0  0  0  0  0  0
  6  7  1  0
  3  8  1  0
  8  9  1  0
 10 12  1  0
 12 16  2  0
 12 17  1  0
  1 18  1  0
  4 19  1  0
 19 20  1  0
  1  2  2  0
  2  3  1  0
  3  4  2  0
  4  5  1  0
  5  6  2  0
  6  1  1  0
  9 10  2  0
 10 15  1  0
 15 14  2  0
 14 13  1  0
 13 11  2  0
 11  9  1  0
M  END

$$$$
