No_182-gen_results/8p0m/2024-11-26-14-13-15/
     RDKit          3D

 35 37  0  0  0  0  0  0  0  0999 V2000
  -28.0162   -0.8135   28.8779 C   0  0  0  0  0  0  0  0  0  0  0  0
  -28.4690   -0.7850   29.8287 C   0  0  0  0  0  0  0  0  0  0  0  0
  -26.5455   -0.8762   28.8500 C   0  0  0  0  0  0  0  0  0  0  0  0
  -25.8041   -1.0324   30.0571 C   0  0  0  0  0  0  0  0  0  0  0  0
  -27.9437   -0.9869   31.2075 C   0  0  0  0  0  0  0  0  0  0  0  0
  -26.5825   -1.0386   31.2231 C   0  0  0  0  0  0  0  0  0  0  0  0
  -24.3810   -1.1082   30.0855 C   0  0  0  0  0  0  0  0  0  0  0  0
  -23.7054    0.0955   29.8440 C   0  0  0  0  0  0  0  0  0  0  0  0
  -23.3084    0.5206   28.6549 C   0  0  0  0  0  0  0  0  0  0  0  0
  -22.9442    1.3542   28.1350 C   0  0  0  0  0  0  0  0  0  0  0  0
  -22.4518    1.4972   26.7761 C   0  0  0  0  0  0  0  0  0  0  0  0
  -23.1513    1.9008   25.7097 C   0  0  0  0  0  0  0  0  0  0  0  0
  -24.4806    2.2434   25.8859 C   0  0  0  0  0  0  0  0  0  0  0  0
  -25.4418    1.2946   25.6780 C   0  0  0  0  0  0  0  0  0  0  0  0
  -25.1624   -0.0078   25.2702 C   0  0  0  0  0  0  0  0  0  0  0  0
  -26.2924   -0.8212   24.9628 C   0  0  0  0  0  0  0  0  0  0  0  0
  -27.5578   -0.2143   24.8220 C   0  0  0  0  0  0  0  0  0  0  0  0
  -27.8508    1.0918   25.1870 C   0  0  0  0  0  0  0  0  0  0  0  0
  -26.7711    1.9285   25.5351 C   0  0  0  0  0  0  0  0  0  0  0  0
  -30.1042   -0.6923   29.8366 C   0  0  0  0  0  0  0  0  0  0  0  0
  -30.5112   -0.1241   28.9211 O   0  0  0  0  0  0  0  0  0  0  0  0
  -30.7587   -0.8280   30.9204 O   0  0  0  0  0  0  0  0  0  0  0  0
  -22.7362    0.5061   30.9158 C   0  0  0  0  0  0  0  0  0  0  0  0
  -24.8491    3.6020   26.2716 C   0  0  0  0  0  0  0  0  0  0  0  0
  -25.1278    4.0584   27.2185 N   0  0  0  0  0  0  0  0  0  0  0  0
  -25.4792    3.4557   28.4012 C   0  0  0  0  0  0  0  0  0  0  0  0
  -25.9053    4.2384   29.5735 C   0  0  0  0  0  0  0  0  0  0  0  0
  -26.1775    3.5732   30.6970 N   0  0  0  0  0  0  0  0  0  0  0  0
  -26.0757    2.2155   30.7782 C   0  0  0  0  0  0  0  0  0  0  0  0
  -26.3646    1.8448   32.1823 C   0  0  0  0  0  0  0  0  0  0  0  0
  -26.2380    2.9293   32.9339 C   0  0  0  0  0  0  0  0  0  0  0  0
  -26.1870    4.1828   32.0120 C   0  0  0  0  0  0  0  0  0  0  0  0
  -27.1106    5.1291   29.1810 C   0  0  0  0  0  0  0  0  0  0  0  0
  -27.6884    5.6435   30.0291 C   0  0  0  0  0  0  0  0  0  0  0  0
  -28.8825    6.5278   29.6828 C   0  0  0  0  0  0  0  0  0  0  0  0
  4  7  1  0
  7  8  1  0
  8  9  1  0
  9 10  2  3
 10 11  1  0
 11 12  2  3
 12 13  1  0
  2 20  1  0
 20 21  2  0
 20 22  1  0
  8 23  1  0
 13 24  1  0
 24 25  2  3
 25 26  1  0
 26 27  1  0
 27 28  1  0
 28 29  1  0
 29 30  2  0
 30 31  1  0
 28 32  1  0
 31 32  2  0
 27 33  1  0
 33 34  1  0
 34 35  2  0
 13 14  1  0
 14 15  2  0
 15 16  1  0
 16 17  2  0
 17 18  1  0
 18 19  2  0
 19 14  1  0
  1  2  2  0
  2  5  1  0
  5  6  2  0
  6  4  1  0
  4  3  2  0
  3  1  1  0
M  END

$$$$
