No_1420-gen_results/8p0m/2024-11-26-14-13-15/
     RDKit          3D

 15 16  0  0  0  0  0  0  0  0999 V2000
  -28.0162   -0.8135   28.8779 C   0  0  0  0  0  0  0  0  0  0  0  0
  -28.4690   -0.7850   29.8287 C   0  0  0  0  0  0  0  0  0  0  0  0
  -27.0871    0.2903   28.6377 C   0  0  0  0  0  0  0  0  0  0  0  0
  -26.2516    0.4114   27.4223 C   0  0  0  0  0  0  0  0  0  0  0  0
  -28.3913    0.1041   30.9805 C   0  0  0  0  0  0  0  0  0  0  0  0
  -27.5332    1.1666   30.7866 C   0  0  0  0  0  0  0  0  0  0  0  0
  -26.8281    1.2557   29.6454 C   0  0  0  0  0  0  0  0  0  0  0  0
  -24.9667    0.4105   27.5254 C   0  0  0  0  0  0  0  0  0  0  0  0
  -24.1553   -0.0217   28.5814 C   0  0  0  0  0  0  0  0  0  0  0  0
  -22.7568    0.1659   28.5745 C   0  0  0  0  0  0  0  0  0  0  0  0
  -22.1664    1.1278   27.7236 C   0  0  0  0  0  0  0  0  0  0  0  0
  -22.9588    1.7436   26.7304 C   0  0  0  0  0  0  0  0  0  0  0  0
  -24.3581    1.4338   26.6337 C   0  0  0  0  0  0  0  0  0  0  0  0
  -26.9178    0.1980   26.1874 C   0  0  0  0  0  0  0  0  0  0  0  0
  -26.6958   -0.4254   25.2265 O   0  0  0  0  0  0  0  0  0  0  0  0
  3  4  1  0
  4  8  1  0
  4 14  1  0
 14 15  2  0
  8  9  2  0
  9 10  1  0
 10 11  2  0
 11 12  1  0
 12 13  2  0
 13  8  1  0
  1  2  2  0
  2  5  1  0
  5  6  2  0
  6  7  1  0
  7  3  2  0
  3  1  1  0
M  END

$$$$
