No_1348-gen_results/8p0m/2024-11-26-14-13-15/
     RDKit          3D

 21 22  0  0  0  0  0  0  0  0999 V2000
  -28.0162   -0.8135   28.8779 C   0  0  0  0  0  0  0  0  0  0  0  0
  -27.0636   -0.1189   28.6079 C   0  0  0  0  0  0  0  0  0  0  0  0
  -25.7923   -0.4302   29.0761 C   0  0  0  0  0  0  0  0  0  0  0  0
  -24.5456    0.3494   28.8225 C   0  0  0  0  0  0  0  0  0  0  0  0
  -24.6586    1.4196   27.8878 C   0  0  0  0  0  0  0  0  0  0  0  0
  -25.9471    1.6811   27.3792 C   0  0  0  0  0  0  0  0  0  0  0  0
  -27.0439    0.9739   27.6871 C   0  0  0  0  0  0  0  0  0  0  0  0
  -29.2364   -0.0611   29.2668 C   0  0  0  0  0  0  0  0  0  0  0  0
  -29.4997    0.9915   28.3427 C   0  0  0  0  0  0  0  0  0  0  0  0
  -28.3797    1.6784   27.7428 C   0  0  0  0  0  0  0  0  0  0  0  0
  -23.4303    2.0858   27.4977 C   0  0  0  0  0  0  0  0  0  0  0  0
  -23.4869    3.0477   26.6420 N   0  0  0  0  0  0  0  0  0  0  0  0
  -22.2248    1.8102   27.9823 N   0  0  0  0  0  0  0  0  0  0  0  0
  -30.8326    1.6210   28.2343 C   0  0  0  0  0  0  0  0  0  0  0  0
  -31.5831    1.4105   27.4764 N   0  0  0  0  0  0  0  0  0  0  0  0
  -32.8063    1.9511   27.3086 C   0  0  0  0  0  0  0  0  0  0  0  0
  -31.0106    2.4753   29.2275 O   0  0  0  0  0  0  0  0  0  0  0  0
  -33.5179    1.7122   26.2524 C   0  0  0  0  0  0  0  0  0  0  0  0
  -34.7662    2.2503   25.9818 C   0  0  0  0  0  0  0  0  0  0  0  0
  -35.3098    3.1838   26.9679 C   0  0  0  0  0  0  0  0  0  0  0  0
  -34.5809    3.4563   28.0779 C   0  0  0  0  0  0  0  0  0  0  0  0
  5 11  1  0
 11 12  1  0
 11 13  2  0
  9 14  1  0
 14 15  1  0
 15 16  2  3
 14 17  2  0
 16 18  1  0
 18 19  2  3
 19 20  1  0
 20 21  2  0
  2  3  1  0
  3  4  2  0
  4  5  1  0
  5  6  2  0
  6  7  1  0
  1  2  2  0
  2  7  1  0
  7 10  2  0
 10  9  1  0
  9  8  2  0
  8  1  1  0
M  END

$$$$
