No_1609-gen_results/8p0m/2024-11-26-14-13-15/
     RDKit          3D

 25 26  0  0  0  0  0  0  0  0999 V2000
  -28.0162   -0.8135   28.8779 C   0  0  0  0  0  0  0  0  0  0  0  0
  -28.4690   -0.7850   29.8287 C   0  0  0  0  0  0  0  0  0  0  0  0
  -26.5455   -0.8762   28.8500 C   0  0  0  0  0  0  0  0  0  0  0  0
  -25.6825   -0.7773   27.6829 C   0  0  0  0  0  0  0  0  0  0  0  0
  -27.9181   -1.0034   31.1877 C   0  0  0  0  0  0  0  0  0  0  0  0
  -26.5308   -1.0794   31.2463 C   0  0  0  0  0  0  0  0  0  0  0  0
  -25.7798   -1.0462   30.0905 C   0  0  0  0  0  0  0  0  0  0  0  0
  -25.8976    0.2387   26.7449 C   0  0  0  0  0  0  0  0  0  0  0  0
  -25.0024    0.4172   25.6959 C   0  0  0  0  0  0  0  0  0  0  0  0
  -27.0304    1.0599   26.8181 C   0  0  0  0  0  0  0  0  0  0  0  0
  -27.3110    1.9122   25.7252 C   0  0  0  0  0  0  0  0  0  0  0  0
  -28.3751    2.7353   25.8868 C   0  0  0  0  0  0  0  0  0  0  0  0
  -29.2057    2.7006   26.9313 C   0  0  0  0  0  0  0  0  0  0  0  0
  -28.9438    1.8553   27.9581 C   0  0  0  0  0  0  0  0  0  0  0  0
  -27.8678    1.0819   27.9624 C   0  0  0  0  0  0  0  0  0  0  0  0
  -27.1473    1.8319   28.8037 O   0  0  0  0  0  0  0  0  0  0  0  0
  -26.6065    2.9970   28.6677 C   0  0  0  0  0  0  0  0  0  0  0  0
  -25.4468    3.1262   29.5494 C   0  0  0  0  0  0  0  0  0  0  0  0
  -27.0674    4.1049   28.0237 C   0  0  0  0  0  0  0  0  0  0  0  0
  -25.3802    2.7716   30.6112 O   0  0  0  0  0  0  0  0  0  0  0  0
  -24.5918    4.0260   29.1326 O   0  0  0  0  0  0  0  0  0  0  0  0
  -24.3578   -1.1261   30.1281 C   0  0  0  0  0  0  0  0  0  0  0  0
  -23.7624   -0.1686   29.4830 F   0  0  0  0  0  0  0  0  0  0  0  0
  -23.8947   -0.9907   31.3975 F   0  0  0  0  0  0  0  0  0  0  0  0
  -23.9703   -2.2794   29.6800 F   0  0  0  0  0  0  0  0  0  0  0  0
  3  4  1  0
  4  8  2  3
  8  9  1  0
  8 10  1  0
 15 16  1  0
 16 17  1  0
 17 18  1  0
 17 19  1  0
 18 20  2  0
 18 21  1  0
  7 22  1  0
 22 23  1  0
 22 24  1  0
 22 25  1  0
  1  2  2  0
  2  5  1  0
  5  6  2  0
  6  7  1  0
  7  3  2  0
  3  1  1  0
 10 11  2  0
 11 12  1  0
 12 13  2  0
 13 14  1  0
 14 15  2  0
 15 10  1  0
M  END

$$$$
