No_1130-gen_results/8p0m/2024-11-26-14-13-15/
     RDKit          3D

 16 17  0  0  0  0  0  0  0  0999 V2000
  -28.0162   -0.8135   28.8779 C   0  0  0  0  0  0  0  0  0  0  0  0
  -28.4690   -0.7850   29.8287 C   0  0  0  0  0  0  0  0  0  0  0  0
  -27.1356    0.2359   28.5352 C   0  0  0  0  0  0  0  0  0  0  0  0
  -26.8745    1.2825   29.3982 C   0  0  0  0  0  0  0  0  0  0  0  0
  -28.3613    0.1987   30.9244 C   0  0  0  0  0  0  0  0  0  0  0  0
  -27.5277    1.2234   30.6356 C   0  0  0  0  0  0  0  0  0  0  0  0
  -26.3987    0.2949   27.2279 C   0  0  0  0  0  0  0  0  0  0  0  0
  -26.8914    0.5126   26.1471 N   0  0  0  0  0  0  0  0  0  0  0  0
  -25.0725    0.0393   27.2700 O   0  0  0  0  0  0  0  0  0  0  0  0
  -26.2290    0.4272   24.8723 C   0  0  0  0  0  0  0  0  0  0  0  0
  -28.3295    0.8125   25.9420 C   0  0  0  0  0  0  0  0  0  0  0  0
  -28.6582    1.8747   25.7851 C   0  0  0  0  0  0  0  0  0  0  0  0
  -30.0539    2.2875   25.7053 C   0  0  0  0  0  0  0  0  0  0  0  0
  -30.9751    1.2919   25.6578 C   0  0  0  0  0  0  0  0  0  0  0  0
  -30.5475   -0.0352   25.7915 C   0  0  0  0  0  0  0  0  0  0  0  0
  -29.2319   -0.2800   25.9650 C   0  0  0  0  0  0  0  0  0  0  0  0
  3  7  1  0
  7  8  1  0
  7  9  2  0
  8 10  1  0
  8 11  1  0
 11 12  2  0
 12 13  1  0
 13 14  2  0
 14 15  1  0
 15 16  2  0
 16 11  1  0
  1  2  2  0
  2  5  1  0
  5  6  2  0
  6  4  1  0
  4  3  2  0
  3  1  1  0
M  END

$$$$
