No_115-gen_results/8p0m/2024-11-26-14-13-15/
     RDKit          3D

 17 18  0  0  0  0  0  0  0  0999 V2000
  -28.0162   -0.8135   28.8779 C   0  0  0  0  0  0  0  0  0  0  0  0
  -27.0636   -0.1189   28.6079 C   0  0  0  0  0  0  0  0  0  0  0  0
  -27.0010    0.6913   27.4910 C   0  0  0  0  0  0  0  0  0  0  0  0
  -25.8548    1.4825   27.0830 C   0  0  0  0  0  0  0  0  0  0  0  0
  -24.6901    1.4526   27.8807 C   0  0  0  0  0  0  0  0  0  0  0  0
  -24.7379    0.6010   29.0416 C   0  0  0  0  0  0  0  0  0  0  0  0
  -25.8234   -0.1688   29.3887 C   0  0  0  0  0  0  0  0  0  0  0  0
  -27.8182   -1.9960   29.2551 F   0  0  0  0  0  0  0  0  0  0  0  0
  -28.8553   -0.2180   29.8550 F   0  0  0  0  0  0  0  0  0  0  0  0
  -23.5197    2.2090   27.5834 C   0  0  0  0  0  0  0  0  0  0  0  0
  -23.5334    3.1771   26.8164 N   0  0  0  0  0  0  0  0  0  0  0  0
  -22.2780    1.7760   28.0140 N   0  0  0  0  0  0  0  0  0  0  0  0
  -22.0619    0.7285   28.8233 C   0  0  0  0  0  0  0  0  0  0  0  0
  -22.8481   -0.1246   29.0521 C   0  0  0  0  0  0  0  0  0  0  0  0
  -23.6074    0.0840   29.7785 C   0  0  0  0  0  0  0  0  0  0  0  0
  -28.9390   -0.8011   27.8720 F   0  0  0  0  0  0  0  0  0  0  0  0
  -20.6461    0.5239   28.8406 N   0  0  0  0  0  0  0  0  0  0  0  0
  1  2  1  0
  1  8  1  0
  1  9  1  0
  5 10  1  0
 10 11  2  0
 10 12  1  0
 12 13  1  0
 13 14  2  0
  6 15  1  0
 14 15  1  0
  1 16  1  0
 13 17  1  0
  2  3  2  0
  3  4  1  0
  4  5  2  0
  5  6  1  0
  6  7  2  0
  7  2  1  0
M  END

$$$$
