No_1340-gen_results/8p0m/2024-11-26-14-13-15/
     RDKit          3D

 21 22  0  0  0  0  0  0  0  0999 V2000
  -28.0162   -0.8135   28.8779 C   0  0  0  0  0  0  0  0  0  0  0  0
  -27.0636   -0.1190   28.6079 C   0  0  0  0  0  0  0  0  0  0  0  0
  -25.7923   -0.4302   29.0761 C   0  0  0  0  0  0  0  0  0  0  0  0
  -25.5756   -1.5654   29.9363 C   0  0  0  0  0  0  0  0  0  0  0  0
  -26.7354   -2.3004   30.2173 C   0  0  0  0  0  0  0  0  0  0  0  0
  -27.9184   -1.9537   29.7629 C   0  0  0  0  0  0  0  0  0  0  0  0
  -29.0001   -2.7012   30.1151 O   0  0  0  0  0  0  0  0  0  0  0  0
  -24.5290    0.3490   28.7998 C   0  0  0  0  0  0  0  0  0  0  0  0
  -24.4808    1.2113   27.7998 C   0  0  0  0  0  0  0  0  0  0  0  0
  -23.2760    1.8178   27.4206 C   0  0  0  0  0  0  0  0  0  0  0  0
  -22.0486    1.5250   28.1131 C   0  0  0  0  0  0  0  0  0  0  0  0
  -23.2966   -0.0161   29.4358 C   0  0  0  0  0  0  0  0  0  0  0  0
  -22.0768    0.6512   29.1041 C   0  0  0  0  0  0  0  0  0  0  0  0
  -30.1214   -2.1301   30.5815 C   0  0  0  0  0  0  0  0  0  0  0  0
  -30.5819   -2.8293   31.6756 C   0  0  0  0  0  0  0  0  0  0  0  0
  -31.5683   -2.5177   32.1216 O   0  0  0  0  0  0  0  0  0  0  0  0
  -29.7161   -3.5615   32.4424 N   0  0  0  0  0  0  0  0  0  0  0  0
  -30.1476   -4.3292   33.6354 C   0  0  0  0  0  0  0  0  0  0  0  0
  -31.0935   -2.1744   29.4499 C   0  0  0  0  0  0  0  0  0  0  0  0
  -31.4101   -3.1214   28.9110 O   0  0  0  0  0  0  0  0  0  0  0  0
  -31.5328   -1.0055   28.9999 O   0  0  0  0  0  0  0  0  0  0  0  0
  6  7  1  0
  3  8  1  0
  7 14  1  0
 14 15  1  0
 15 16  2  0
 15 17  1  0
 17 18  1  0
 14 19  1  0
 19 20  2  0
 19 21  1  0
  1  2  2  0
  2  3  1  0
  3  4  2  0
  4  5  1  0
  5  6  2  0
  6  1  1  0
  8  9  2  0
  9 10  1  0
 10 11  2  0
 11 13  1  0
 13 12  2  0
 12  8  1  0
M  END

$$$$
