No_188-gen_results/8p0m/2024-11-26-14-13-15/
     RDKit          3D

 16 17  0  0  0  0  0  0  0  0999 V2000
  -28.0162   -0.8135   28.8779 C   0  0  0  0  0  0  0  0  0  0  0  0
  -28.4690   -0.7850   29.8287 C   0  0  0  0  0  0  0  0  0  0  0  0
  -28.1960    0.3478   28.0550 C   0  0  0  0  0  0  0  0  0  0  0  0
  -29.0191    1.3501   28.3782 C   0  0  0  0  0  0  0  0  0  0  0  0
  -29.6249    1.2683   29.6012 C   0  0  0  0  0  0  0  0  0  0  0  0
  -29.3821    0.1816   30.4004 C   0  0  0  0  0  0  0  0  0  0  0  0
  -27.4497    0.3750   26.7070 C   0  0  0  0  0  0  0  0  0  0  0  0
  -27.8820    0.6874   25.6698 C   0  0  0  0  0  0  0  0  0  0  0  0
  -29.2610    1.0487   25.5860 C   0  0  0  0  0  0  0  0  0  0  0  0
  -29.9394    0.9763   24.6462 C   0  0  0  0  0  0  0  0  0  0  0  0
  -31.2958    1.4810   24.4739 C   0  0  0  0  0  0  0  0  0  0  0  0
  -31.7429    2.2529   25.5240 C   0  0  0  0  0  0  0  0  0  0  0  0
  -30.9831    2.5247   26.5942 C   0  0  0  0  0  0  0  0  0  0  0  0
  -29.6620    2.0246   26.6359 C   0  0  0  0  0  0  0  0  0  0  0  0
  -28.1970    2.4594   28.7033 O   0  0  0  0  0  0  0  0  0  0  0  0
  -28.8063    3.3371   26.3864 C   0  0  0  0  0  0  0  0  0  0  0  0
  3  7  1  0
  7  8  2  3
  8  9  1  0
  4 15  1  0
 14 16  1  0
  1  2  2  0
  2  6  1  0
  6  5  2  0
  5  4  1  0
  4  3  2  0
  3  1  1  0
  9 10  2  0
 10 11  1  0
 11 12  2  0
 12 13  1  0
 13 14  2  0
 14  9  1  0
M  END

$$$$
