No_18-gen_results/8p0m/2024-11-26-14-13-15/
     RDKit          3D

 22 22  0  0  0  0  0  0  0  0999 V2000
  -28.0162   -0.8135   28.8779 C   0  0  0  0  0  0  0  0  0  0  0  0
  -27.0636   -0.1189   28.6079 C   0  0  0  0  0  0  0  0  0  0  0  0
  -26.9287    1.1713   29.0083 C   0  0  0  0  0  0  0  0  0  0  0  0
  -25.7702    2.0341   28.6884 C   0  0  0  0  0  0  0  0  0  0  0  0
  -24.7141    1.4431   27.9188 C   0  0  0  0  0  0  0  0  0  0  0  0
  -24.8590    0.0783   27.5836 C   0  0  0  0  0  0  0  0  0  0  0  0
  -25.9647   -0.6606   27.9164 C   0  0  0  0  0  0  0  0  0  0  0  0
  -29.0591   -0.5087   28.2818 F   0  0  0  0  0  0  0  0  0  0  0  0
  -28.3369   -0.8098   30.2795 F   0  0  0  0  0  0  0  0  0  0  0  0
  -23.5401    2.1450   27.5601 C   0  0  0  0  0  0  0  0  0  0  0  0
  -22.3896    1.6732   27.2692 N   0  0  0  0  0  0  0  0  0  0  0  0
  -23.8068    3.1730   26.8363 F   0  0  0  0  0  0  0  0  0  0  0  0
  -21.6807    1.0440   28.3400 C   0  0  0  0  0  0  0  0  0  0  0  0
  -20.4795    0.3551   27.9418 C   0  0  0  0  0  0  0  0  0  0  0  0
  -22.3438    0.7386   29.4173 O   0  0  0  0  0  0  0  0  0  0  0  0
  -27.7682   -2.1162   28.7805 F   0  0  0  0  0  0  0  0  0  0  0  0
  -25.7767    3.6164   29.2302 Cl  0  0  0  0  0  0  0  0  0  0  0  0
  -20.2423   -0.7748   28.6254 O   0  0  0  0  0  0  0  0  0  0  0  0
  -27.9395    1.7182   29.6812 O   0  0  0  0  0  0  0  0  0  0  0  0
  -28.8410    2.5273   29.3150 C   0  0  0  0  0  0  0  0  0  0  0  0
  -28.8346    3.2798   28.5146 C   0  0  0  0  0  0  0  0  0  0  0  0
  -29.9371    4.1633   28.0837 C   0  0  0  0  0  0  0  0  0  0  0  0
  1  2  1  0
  1  8  1  0
  1  9  1  0
  5 10  1  0
 10 11  2  3
 10 12  1  0
 11 13  1  0
 13 14  1  0
 13 15  2  0
  1 16  1  0
  4 17  1  0
 14 18  1  0
  3 19  1  0
 19 20  1  0
 20 21  2  3
 21 22  1  0
  2  3  2  0
  3  4  1  0
  4  5  2  0
  5  6  1  0
  6  7  2  0
  7  2  1  0
M  END

$$$$
