No_1509-gen_results/8p0m/2024-11-26-14-13-15/
     RDKit          3D

 11 12  0  0  0  0  0  0  0  0999 V2000
  -28.0162   -0.8135   28.8779 C   0  0  0  0  0  0  0  0  0  0  0  0
  -28.4690   -0.7850   29.8287 C   0  0  0  0  0  0  0  0  0  0  0  0
  -28.3026    0.2475   28.0344 N   0  0  0  0  0  0  0  0  0  0  0  0
  -27.3575    0.7612   27.1787 C   0  0  0  0  0  0  0  0  0  0  0  0
  -26.0117    0.3290   27.2875 C   0  0  0  0  0  0  0  0  0  0  0  0
  -25.6404   -0.6325   28.2706 C   0  0  0  0  0  0  0  0  0  0  0  0
  -26.5825   -1.0103   29.1465 C   0  0  0  0  0  0  0  0  0  0  0  0
  -28.2939   -1.8921   30.8736 C   0  0  0  0  0  0  0  0  0  0  0  0
  -27.0135   -2.3968   31.0435 C   0  0  0  0  0  0  0  0  0  0  0  0
  -26.1028   -1.9778   30.1346 C   0  0  0  0  0  0  0  0  0  0  0  0
  -24.7766   -2.5430   30.0756 C   0  0  0  0  0  0  0  0  0  0  0  0
 10 11  1  0
  1  2  2  0
  2  8  1  0
  8  9  2  0
  9 10  1  0
 10  7  2  0
  1  3  1  0
  3  4  2  0
  4  5  1  0
  5  6  2  0
  6  7  1  0
  7  1  1  0
M  END

$$$$
