No_1794-gen_results/8p0m/2024-11-26-14-13-15/
     RDKit          3D

 18 20  0  0  0  0  0  0  0  0999 V2000
  -28.0162   -0.8135   28.8779 C   0  0  0  0  0  0  0  0  0  0  0  0
  -28.4690   -0.7850   29.8287 C   0  0  0  0  0  0  0  0  0  0  0  0
  -26.5042   -0.7777   28.8766 C   0  0  0  0  0  0  0  0  0  0  0  0
  -25.8103   -0.8531   30.1028 C   0  0  0  0  0  0  0  0  0  0  0  0
  -27.9906   -0.8916   31.2257 C   0  0  0  0  0  0  0  0  0  0  0  0
  -26.6042   -0.8676   31.2652 C   0  0  0  0  0  0  0  0  0  0  0  0
  -30.0739   -0.8360   29.8615 C   0  0  0  0  0  0  0  0  0  0  0  0
  -30.6529   -1.7943   30.2676 N   0  0  0  0  0  0  0  0  0  0  0  0
  -30.7371    0.2483   29.2293 C   0  0  0  0  0  0  0  0  0  0  0  0
  -30.1236    1.4032   28.7483 C   0  0  0  0  0  0  0  0  0  0  0  0
  -30.8998    2.3702   28.1023 C   0  0  0  0  0  0  0  0  0  0  0  0
  -30.2558    3.5821   27.7413 C   0  0  0  0  0  0  0  0  0  0  0  0
  -28.8553    3.7655   27.8745 C   0  0  0  0  0  0  0  0  0  0  0  0
  -28.1041    2.7380   28.4258 C   0  0  0  0  0  0  0  0  0  0  0  0
  -28.6988    1.5912   28.9013 C   0  0  0  0  0  0  0  0  0  0  0  0
  -31.9519   -2.0564   30.0511 C   0  0  0  0  0  0  0  0  0  0  0  0
  -32.0863    0.1259   29.2072 C   0  0  0  0  0  0  0  0  0  0  0  0
  -32.6943   -1.0449   29.6062 C   0  0  0  0  0  0  0  0  0  0  0  0
  2  7  1  0
  9 10  1  0
 10 11  2  0
 11 12  1  0
 12 13  2  0
 13 14  1  0
 14 15  2  0
 15 10  1  0
  1  2  2  0
  2  5  1  0
  5  6  2  0
  6  4  1  0
  4  3  2  0
  3  1  1  0
  7  8  2  0
  8 16  1  0
 16 18  2  0
 18 17  1  0
 17  9  2  0
  9  7  1  0
M  END

$$$$
