No_1846-gen_results/8p0m/2024-11-26-14-13-15/
     RDKit          3D

 20 21  0  0  0  0  0  0  0  0999 V2000
  -28.0162   -0.8135   28.8779 C   0  0  0  0  0  0  0  0  0  0  0  0
  -27.0636   -0.1189   28.6079 C   0  0  0  0  0  0  0  0  0  0  0  0
  -26.9716    0.7139   27.5060 C   0  0  0  0  0  0  0  0  0  0  0  0
  -28.1053    0.7744   26.6421 C   0  0  0  0  0  0  0  0  0  0  0  0
  -29.2008    0.1044   27.0527 C   0  0  0  0  0  0  0  0  0  0  0  0
  -28.0219   -1.5899   30.0879 C   0  0  0  0  0  0  0  0  0  0  0  0
  -29.1640   -0.6394   28.1484 C   0  0  0  0  0  0  0  0  0  0  0  0
  -28.8451   -1.9567   30.6618 O   0  0  0  0  0  0  0  0  0  0  0  0
  -26.7721   -2.1226   30.4302 O   0  0  0  0  0  0  0  0  0  0  0  0
  -30.2853    0.2810   26.0049 C   0  0  0  0  0  0  0  0  0  0  0  0
  -30.0984    0.4574   24.9287 F   0  0  0  0  0  0  0  0  0  0  0  0
  -31.1874    1.1202   26.5794 F   0  0  0  0  0  0  0  0  0  0  0  0
  -31.0230   -0.9475   26.0513 F   0  0  0  0  0  0  0  0  0  0  0  0
  -25.7066    1.4516   27.1288 C   0  0  0  0  0  0  0  0  0  0  0  0
  -24.5706    0.9485   27.4767 C   0  0  0  0  0  0  0  0  0  0  0  0
  -23.2950    1.6454   27.2378 C   0  0  0  0  0  0  0  0  0  0  0  0
  -23.3974    2.6962   26.2755 C   0  0  0  0  0  0  0  0  0  0  0  0
  -25.7336    2.7739   26.6508 C   0  0  0  0  0  0  0  0  0  0  0  0
  -24.6330    3.3996   26.2057 C   0  0  0  0  0  0  0  0  0  0  0  0
  -21.7985    1.0165   27.5355 Cl  0  0  0  0  0  0  0  0  0  0  0  0
  1  6  1  0
  6  8  1  0
  6  9  2  0
  5 10  1  0
 10 11  1  0
 10 12  1  0
 10 13  1  0
  3 14  1  0
 16 20  1  0
 14 15  2  0
 15 16  1  0
 16 17  2  0
 17 19  1  0
 19 18  2  0
 18 14  1  0
  1  2  2  0
  2  3  1  0
  3  4  2  0
  4  5  1  0
  5  7  2  0
  7  1  1  0
M  END

$$$$
