No_114-gen_results/8p0m/2024-11-26-14-13-15/
     RDKit          3D

 19 19  0  0  0  0  0  0  0  0999 V2000
  -28.0727   -1.2542   28.5316 F   0  0  0  0  0  0  0  0  0  0  0  0
  -27.3591   -0.3792   28.7224 C   0  0  0  0  0  0  0  0  0  0  0  0
  -27.7014    0.7608   29.1249 C   0  0  0  0  0  0  0  0  0  0  0  0
  -25.8844   -0.6918   28.4374 C   0  0  0  0  0  0  0  0  0  0  0  0
  -24.9212    0.3779   28.6013 C   0  0  0  0  0  0  0  0  0  0  0  0
  -26.6962    1.8778   29.2780 C   0  0  0  0  0  0  0  0  0  0  0  0
  -25.3214    1.6174   29.0139 C   0  0  0  0  0  0  0  0  0  0  0  0
  -23.5031    0.1451   28.3622 C   0  0  0  0  0  0  0  0  0  0  0  0
  -22.6237    0.2867   29.0969 C   0  0  0  0  0  0  0  0  0  0  0  0
  -22.8164    0.6391   30.3791 N   0  0  0  0  0  0  0  0  0  0  0  0
  -21.3610    0.1185   28.7648 O   0  0  0  0  0  0  0  0  0  0  0  0
  -27.0740    3.2233   29.8065 C   0  0  0  0  0  0  0  0  0  0  0  0
  -26.7373    4.1503   29.2867 O   0  0  0  0  0  0  0  0  0  0  0  0
  -27.8267    3.2263   30.8738 O   0  0  0  0  0  0  0  0  0  0  0  0
  -28.0807    2.6270   31.6959 C   0  0  0  0  0  0  0  0  0  0  0  0
  -27.0747    2.4056   32.7133 C   0  0  0  0  0  0  0  0  0  0  0  0
  -26.9806    1.1981   33.3778 C   0  0  0  0  0  0  0  0  0  0  0  0
  -27.6428    0.9915   34.3334 C   0  0  0  0  0  0  0  0  0  0  0  0
  -27.6712   -0.3701   34.9706 C   0  0  0  0  0  0  0  0  0  0  0  0
  1  2  1  0
  5  8  1  0
  8  9  1  0
  9 10  1  0
  9 11  2  0
  6 12  1  0
 12 13  2  0
 12 14  1  0
 14 15  1  0
 15 16  1  0
 16 17  2  3
 17 18  1  0
 18 19  2  0
  2  3  2  0
  3  6  1  0
  6  7  2  0
  7  5  1  0
  5  4  2  0
  4  2  1  0
M  END

$$$$
