No_1883-gen_results/8p0m/2024-11-26-14-13-15/
     RDKit          3D

 30 33  0  0  0  0  0  0  0  0999 V2000
  -28.0162   -0.8135   28.8779 C   0  0  0  0  0  0  0  0  0  0  0  0
  -27.0636   -0.1190   28.6079 C   0  0  0  0  0  0  0  0  0  0  0  0
  -25.7923   -0.4302   29.0761 C   0  0  0  0  0  0  0  0  0  0  0  0
  -24.5456    0.3494   28.8225 C   0  0  0  0  0  0  0  0  0  0  0  0
  -23.2409    0.0217   29.3323 C   0  0  0  0  0  0  0  0  0  0  0  0
  -27.8820   -1.8995   29.8633 C   0  0  0  0  0  0  0  0  0  0  0  0
  -26.6526   -2.3142   30.3138 C   0  0  0  0  0  0  0  0  0  0  0  0
  -25.5153   -1.5607   29.9787 C   0  0  0  0  0  0  0  0  0  0  0  0
  -22.1645    0.7936   28.9524 C   0  0  0  0  0  0  0  0  0  0  0  0
  -22.1241    1.7484   27.9889 C   0  0  0  0  0  0  0  0  0  0  0  0
  -24.5235    1.3782   27.7946 C   0  0  0  0  0  0  0  0  0  0  0  0
  -25.7193    1.6870   27.1452 C   0  0  0  0  0  0  0  0  0  0  0  0
  -23.3418    2.0550   27.3740 C   0  0  0  0  0  0  0  0  0  0  0  0
  -26.9521    0.9050   27.5233 C   0  0  0  0  0  0  0  0  0  0  0  0
  -28.2178    1.2164   26.8257 C   0  0  0  0  0  0  0  0  0  0  0  0
  -28.1642    1.2977   25.5262 C   0  0  0  0  0  0  0  0  0  0  0  0
  -28.8200    2.4510   27.4486 C   0  0  0  0  0  0  0  0  0  0  0  0
  -29.0995   -2.6621   30.2809 C   0  0  0  0  0  0  0  0  0  0  0  0
  -30.0652   -2.3130   29.8575 F   0  0  0  0  0  0  0  0  0  0  0  0
  -28.8899   -3.9925   30.0267 F   0  0  0  0  0  0  0  0  0  0  0  0
  -29.0837   -2.6013   31.6660 F   0  0  0  0  0  0  0  0  0  0  0  0
  -29.2254    0.2270   27.1172 O   0  0  0  0  0  0  0  0  0  0  0  0
  -30.4036    0.5021   26.3939 C   0  0  0  0  0  0  0  0  0  0  0  0
  -30.2314    0.1089   25.1083 C   0  0  0  0  0  0  0  0  0  0  0  0
  -29.1942    1.1308   24.5499 C   0  0  0  0  0  0  0  0  0  0  0  0
  -31.5463   -0.3199   27.1736 C   0  0  0  0  0  0  0  0  0  0  0  0
  -31.8429   -1.3744   26.7924 O   0  0  0  0  0  0  0  0  0  0  0  0
  -28.1366    3.2422   28.3401 C   0  0  0  0  0  0  0  0  0  0  0  0
  -28.7334    4.4215   28.8528 C   0  0  0  0  0  0  0  0  0  0  0  0
  -30.0249    4.6875   28.5337 C   0  0  0  0  0  0  0  0  0  0  0  0
  3  4  1  0
 11 12  1  0
  2 14  1  0
 12 14  1  0
 14 15  1  0
 15 16  1  0
 15 17  1  0
  6 18  1  0
 18 19  1  0
 18 20  1  0
 18 21  1  0
 15 22  1  0
 22 23  1  0
 23 24  1  0
 16 25  1  0
 24 25  1  0
 23 26  1  0
 26 27  2  0
 17 28  2  3
 28 29  1  0
 29 30  2  0
  4  5  2  0
  5  9  1  0
  9 10  2  0
 10 13  1  0
 13 11  2  0
 11  4  1  0
  1  2  2  0
  2  3  1  0
  3  8  2  0
  8  7  1  0
  7  6  2  0
  6  1  1  0
M  END

$$$$
