No_1014-gen_results/8p0m/2024-11-26-14-13-15/
     RDKit          3D

 35 39  0  0  0  0  0  0  0  0999 V2000
  -28.0162   -0.8135   28.8779 C   0  0  0  0  0  0  0  0  0  0  0  0
  -28.4690   -0.7850   29.8287 C   0  0  0  0  0  0  0  0  0  0  0  0
  -26.5042   -0.7777   28.8766 C   0  0  0  0  0  0  0  0  0  0  0  0
  -25.8103   -0.8531   30.1028 C   0  0  0  0  0  0  0  0  0  0  0  0
  -27.9906   -0.8916   31.2257 C   0  0  0  0  0  0  0  0  0  0  0  0
  -26.6042   -0.8676   31.2652 C   0  0  0  0  0  0  0  0  0  0  0  0
  -29.9538   -0.7893   29.6417 N   0  0  0  0  0  0  0  0  0  0  0  0
  -30.6786    0.2685   30.0366 C   0  0  0  0  0  0  0  0  0  0  0  0
  -30.2826    1.2155   30.3261 C   0  0  0  0  0  0  0  0  0  0  0  0
  -31.1784    2.4468   30.6322 C   0  0  0  0  0  0  0  0  0  0  0  0
  -32.5305    2.1827   30.4534 C   0  0  0  0  0  0  0  0  0  0  0  0
  -32.1108    0.0452   29.8322 C   0  0  0  0  0  0  0  0  0  0  0  0
  -32.9664    0.9986   30.0511 C   0  0  0  0  0  0  0  0  0  0  0  0
  -30.3951   -2.1384   30.2278 C   0  0  0  0  0  0  0  0  0  0  0  0
  -25.5472   -0.7181   27.4565 Cl  0  0  0  0  0  0  0  0  0  0  0  0
  -31.5343   -2.6833   29.7110 C   0  0  0  0  0  0  0  0  0  0  0  0
  -32.6394   -1.5338   29.8082 C   0  0  0  0  0  0  0  0  0  0  0  0
  -32.0279   -3.8403   30.4001 C   0  0  0  0  0  0  0  0  0  0  0  0
  -31.2855   -4.9520   30.0637 C   0  0  0  0  0  0  0  0  0  0  0  0
  -30.4097   -5.4413   30.8098 C   0  0  0  0  0  0  0  0  0  0  0  0
  -31.3794   -5.5134   28.7191 C   0  0  0  0  0  0  0  0  0  0  0  0
  -32.0469   -5.0104   27.9036 F   0  0  0  0  0  0  0  0  0  0  0  0
  -30.3821   -6.5020   28.4827 C   0  0  0  0  0  0  0  0  0  0  0  0
  -30.1579   -4.9284   32.2334 C   0  0  0  0  0  0  0  0  0  0  0  0
  -30.5051   -6.9375   27.2231 F   0  0  0  0  0  0  0  0  0  0  0  0
  -29.9704   -3.8025   32.3885 N   0  0  0  0  0  0  0  0  0  0  0  0
  -29.9830   -3.2680   33.7990 C   0  0  0  0  0  0  0  0  0  0  0  0
  -30.5012   -5.7431   33.1859 O   0  0  0  0  0  0  0  0  0  0  0  0
  -31.1626   -2.7602   34.3016 C   0  0  0  0  0  0  0  0  0  0  0  0
  -31.1240   -1.9175   35.0609 C   0  0  0  0  0  0  0  0  0  0  0  0
  -29.9217   -1.4345   35.7812 C   0  0  0  0  0  0  0  0  0  0  0  0
  -28.7043   -1.9838   35.2689 C   0  0  0  0  0  0  0  0  0  0  0  0
  -28.7298   -2.7712   34.2979 C   0  0  0  0  0  0  0  0  0  0  0  0
  -30.4377   -7.2759   29.4483 C   0  0  0  0  0  0  0  0  0  0  0  0
  -30.1381   -6.8482   30.8070 C   0  0  0  0  0  0  0  0  0  0  0  0
  2  7  1  0
  7  8  1  0
  7 14  1  0
  3 15  1  0
 12 17  1  0
 16 17  1  0
 16 18  1  0
 18 19  1  0
 21 22  1  0
 20 24  1  0
 23 25  1  0
 24 26  1  0
 26 27  1  0
 24 28  2  0
 16 14  1  0
 19 20  2  0
 20 35  1  0
 35 34  2  0
 34 23  1  0
 23 21  2  0
 21 19  1  0
 27 29  2  0
 29 30  1  0
 30 31  2  0
 31 32  1  0
 32 33  2  0
 33 27  1  0
  1  2  2  0
  2  5  1  0
  5  6  2  0
  6  4  1  0
  4  3  2  0
  3  1  1  0
  8  9  2  0
  9 10  1  0
 10 11  2  0
 11 13  1  0
 13 12  2  0
 12  8  1  0
M  END

$$$$
