No_1366-gen_results/8p0m/2024-11-26-14-13-15/
     RDKit          3D

  8  8  0  0  0  0  0  0  0  0999 V2000
  -28.0162   -0.8135   28.8779 C   0  0  0  0  0  0  0  0  0  0  0  0
  -27.0636   -0.1189   28.6079 C   0  0  0  0  0  0  0  0  0  0  0  0
  -25.7923   -0.4302   29.0761 C   0  0  0  0  0  0  0  0  0  0  0  0
  -25.5681   -1.2411   29.7572 C   0  0  0  0  0  0  0  0  0  0  0  0
  -24.2377   -1.6686   30.3647 C   0  0  0  0  0  0  0  0  0  0  0  0
  -27.8484   -1.8924   29.8409 C   0  0  0  0  0  0  0  0  0  0  0  0
  -26.5620   -2.1768   30.2392 C   0  0  0  0  0  0  0  0  0  0  0  0
  -23.6204   -0.6758   31.2369 C   0  0  0  0  0  0  0  0  0  0  0  0
  4  5  1  0
  5  8  1  0
  1  2  2  0
  2  3  1  0
  3  4  2  0
  4  7  1  0
  7  6  2  0
  6  1  1  0
M  END

$$$$
