No_1538-gen_results/8p0m/2024-11-26-14-13-15/
     RDKit          3D

 19 20  0  0  0  0  0  0  0  0999 V2000
  -28.0162   -0.8135   28.8779 C   0  0  0  0  0  0  0  0  0  0  0  0
  -27.0636   -0.1190   28.6079 C   0  0  0  0  0  0  0  0  0  0  0  0
  -27.0010    0.6913   27.4910 C   0  0  0  0  0  0  0  0  0  0  0  0
  -28.1373    0.7363   26.6350 C   0  0  0  0  0  0  0  0  0  0  0  0
  -29.2360    0.0765   27.0690 C   0  0  0  0  0  0  0  0  0  0  0  0
  -29.2177   -0.6429   28.1747 C   0  0  0  0  0  0  0  0  0  0  0  0
  -27.7867   -1.6669   30.1199 C   0  0  0  0  0  0  0  0  0  0  0  0
  -28.7145   -2.0772   30.7562 N   0  0  0  0  0  0  0  0  0  0  0  0
  -26.6324   -2.1934   30.3272 O   0  0  0  0  0  0  0  0  0  0  0  0
  -28.6353   -3.1719   31.7773 C   0  0  0  0  0  0  0  0  0  0  0  0
  -30.4493    0.1674   26.2318 C   0  0  0  0  0  0  0  0  0  0  0  0
  -30.4977    0.2004   25.0295 O   0  0  0  0  0  0  0  0  0  0  0  0
  -31.5779   -0.3211   26.8289 O   0  0  0  0  0  0  0  0  0  0  0  0
  -29.7488   -3.0444   32.7329 C   0  0  0  0  0  0  0  0  0  0  0  0
  -31.0029   -3.1272   32.1248 C   0  0  0  0  0  0  0  0  0  0  0  0
  -31.1468   -2.0278   31.0835 C   0  0  0  0  0  0  0  0  0  0  0  0
  -30.0631   -1.5581   30.5796 C   0  0  0  0  0  0  0  0  0  0  0  0
  -32.5024   -1.7764   30.5770 C   0  0  0  0  0  0  0  0  0  0  0  0
  -32.6451   -0.7083   30.0647 O   0  0  0  0  0  0  0  0  0  0  0  0
  1  7  1  0
  7  8  1  0
  7  9  2  0
  8 10  1  0
  5 11  1  0
 11 12  2  0
 11 13  1  0
 10 14  1  0
 14 15  1  0
 15 16  1  0
  8 17  1  0
 16 17  1  0
 16 18  1  0
 18 19  2  0
  1  2  2  0
  2  3  1  0
  3  4  2  0
  4  5  1  0
  5  6  2  0
  6  1  1  0
M  END

$$$$
