No_1503-gen_results/8p0m/2024-11-26-14-13-15/
     RDKit          3D

 27 30  0  0  0  0  0  0  0  0999 V2000
  -28.0162   -0.8135   28.8779 C   0  0  0  0  0  0  0  0  0  0  0  0
  -27.0636   -0.1190   28.6079 C   0  0  0  0  0  0  0  0  0  0  0  0
  -25.7923   -0.4302   29.0761 C   0  0  0  0  0  0  0  0  0  0  0  0
  -25.5756   -1.5654   29.9363 C   0  0  0  0  0  0  0  0  0  0  0  0
  -26.7354   -2.3004   30.2173 C   0  0  0  0  0  0  0  0  0  0  0  0
  -27.9184   -1.9537   29.7629 C   0  0  0  0  0  0  0  0  0  0  0  0
  -27.1057    1.1023   27.7593 C   0  0  0  0  0  0  0  0  0  0  0  0
  -26.2345    1.4562   27.0152 N   0  0  0  0  0  0  0  0  0  0  0  0
  -28.3525    1.8564   27.7125 C   0  0  0  0  0  0  0  0  0  0  0  0
  -26.2637    2.5499   26.1875 C   0  0  0  0  0  0  0  0  0  0  0  0
  -28.4528    2.9959   26.9286 C   0  0  0  0  0  0  0  0  0  0  0  0
  -27.3605    3.3778   26.1556 C   0  0  0  0  0  0  0  0  0  0  0  0
  -28.9755   -2.7185   30.1604 O   0  0  0  0  0  0  0  0  0  0  0  0
  -30.1009   -2.1746   30.5369 C   0  0  0  0  0  0  0  0  0  0  0  0
  -31.1819   -2.8896   30.1204 C   0  0  0  0  0  0  0  0  0  0  0  0
  -32.2460   -2.2065   29.6111 C   0  0  0  0  0  0  0  0  0  0  0  0
  -33.2386   -2.8575   28.9016 C   0  0  0  0  0  0  0  0  0  0  0  0
  -33.2235   -4.2846   28.8240 C   0  0  0  0  0  0  0  0  0  0  0  0
  -32.1309   -4.9796   29.3449 C   0  0  0  0  0  0  0  0  0  0  0  0
  -31.0905   -4.2592   29.9070 C   0  0  0  0  0  0  0  0  0  0  0  0
  -30.0348   -2.1304   32.1258 C   0  0  0  0  0  0  0  0  0  0  0  0
  -29.9797   -0.8783   32.6930 C   0  0  0  0  0  0  0  0  0  0  0  0
  -30.1596   -3.2728   32.8385 C   0  0  0  0  0  0  0  0  0  0  0  0
  -29.9511   -0.7915   34.0902 C   0  0  0  0  0  0  0  0  0  0  0  0
  -30.1126   -3.1797   34.2729 C   0  0  0  0  0  0  0  0  0  0  0  0
  -30.0196   -1.9567   34.8791 C   0  0  0  0  0  0  0  0  0  0  0  0
  -30.2928   -0.6651   30.1742 C   0  0  0  0  0  0  0  0  0  0  0  0
  2  7  1  0
  6 13  1  0
 13 14  1  0
 14 15  1  0
 14 21  1  0
 14 27  1  0
 15 16  2  0
 16 17  1  0
 17 18  2  0
 18 19  1  0
 19 20  2  0
 20 15  1  0
  1  2  2  0
  2  3  1  0
  3  4  2  0
  4  5  1  0
  5  6  2  0
  6  1  1  0
 21 22  2  0
 22 24  1  0
 24 26  2  0
 26 25  1  0
 25 23  2  0
 23 21  1  0
  7  8  2  0
  8 10  1  0
 10 12  2  0
 12 11  1  0
 11  9  2  0
  9  7  1  0
M  END

$$$$
