No_1291-gen_results/8p0m/2024-11-26-14-13-15/
     RDKit          3D

 18 19  0  0  0  0  0  0  0  0999 V2000
  -28.0162   -0.8135   28.8779 C   0  0  0  0  0  0  0  0  0  0  0  0
  -27.0636   -0.1189   28.6079 C   0  0  0  0  0  0  0  0  0  0  0  0
  -25.7923   -0.4302   29.0761 C   0  0  0  0  0  0  0  0  0  0  0  0
  -24.5456    0.3494   28.8225 C   0  0  0  0  0  0  0  0  0  0  0  0
  -24.6586    1.4196   27.8878 C   0  0  0  0  0  0  0  0  0  0  0  0
  -25.9471    1.6811   27.3792 C   0  0  0  0  0  0  0  0  0  0  0  0
  -27.0439    0.9739   27.6871 C   0  0  0  0  0  0  0  0  0  0  0  0
  -28.6597   -0.4600   30.2006 C   0  0  0  0  0  0  0  0  0  0  0  0
  -28.5257    0.5013   30.6968 C   0  0  0  0  0  0  0  0  0  0  0  0
  -29.2488    0.8145   32.0566 C   0  0  0  0  0  0  0  0  0  0  0  0
  -30.0032   -0.2028   32.5720 C   0  0  0  0  0  0  0  0  0  0  0  0
  -29.5021   -1.5741   30.8338 C   0  0  0  0  0  0  0  0  0  0  0  0
  -30.1236   -1.3894   31.9894 C   0  0  0  0  0  0  0  0  0  0  0  0
  -23.5845    2.0717   27.5864 F   0  0  0  0  0  0  0  0  0  0  0  0
  -23.2501   -0.0838   29.3352 C   0  0  0  0  0  0  0  0  0  0  0  0
  -22.1482    0.2677   28.7775 C   0  0  0  0  0  0  0  0  0  0  0  0
  -20.9651   -0.2300   29.0714 N   0  0  0  0  0  0  0  0  0  0  0  0
  -21.9788    1.0974   27.7044 O   0  0  0  0  0  0  0  0  0  0  0  0
  1  2  1  0
  1  8  1  0
  5 14  1  0
  4 15  1  0
 15 16  1  0
 16 17  1  0
 16 18  2  0
  2  3  2  0
  3  4  1  0
  4  5  2  0
  5  6  1  0
  6  7  2  0
  7  2  1  0
  8  9  2  0
  9 10  1  0
 10 11  2  0
 11 13  1  0
 13 12  2  0
 12  8  1  0
M  END

$$$$
