No_1761-gen_results/8p0m/2024-11-26-14-13-15/
     RDKit          3D

 26 28  0  0  0  0  0  0  0  0999 V2000
  -28.0162   -0.8135   28.8779 C   0  0  0  0  0  0  0  0  0  0  0  0
  -27.0636   -0.1190   28.6079 C   0  0  0  0  0  0  0  0  0  0  0  0
  -25.7923   -0.4302   29.0761 C   0  0  0  0  0  0  0  0  0  0  0  0
  -25.5756   -1.5654   29.9363 C   0  0  0  0  0  0  0  0  0  0  0  0
  -26.7354   -2.3004   30.2173 C   0  0  0  0  0  0  0  0  0  0  0  0
  -27.9184   -1.9537   29.7629 C   0  0  0  0  0  0  0  0  0  0  0  0
  -27.1057    1.1023   27.7593 C   0  0  0  0  0  0  0  0  0  0  0  0
  -26.7157    2.2350   27.9945 C   0  0  0  0  0  0  0  0  0  0  0  0
  -26.6929    3.3459   27.0337 C   0  0  0  0  0  0  0  0  0  0  0  0
  -27.1962    3.0779   25.7437 C   0  0  0  0  0  0  0  0  0  0  0  0
  -27.5814    0.8882   26.3714 C   0  0  0  0  0  0  0  0  0  0  0  0
  -27.6131    1.8443   25.4645 C   0  0  0  0  0  0  0  0  0  0  0  0
  -29.0617   -2.7801   30.2115 C   0  0  0  0  0  0  0  0  0  0  0  0
  -28.9588   -4.0501   30.5304 N   0  0  0  0  0  0  0  0  0  0  0  0
  -29.7177   -4.7992   30.5538 C   0  0  0  0  0  0  0  0  0  0  0  0
  -29.9009   -5.7824   31.5499 C   0  0  0  0  0  0  0  0  0  0  0  0
  -30.6090   -5.0806   29.3823 C   0  0  0  0  0  0  0  0  0  0  0  0
  -29.1906   -5.6782   32.7844 C   0  0  0  0  0  0  0  0  0  0  0  0
  -30.9987   -6.2768   29.2057 F   0  0  0  0  0  0  0  0  0  0  0  0
  -29.6362   -6.5170   33.8595 C   0  0  0  0  0  0  0  0  0  0  0  0
  -29.3314   -6.2219   35.1194 C   0  0  0  0  0  0  0  0  0  0  0  0
  -29.8690   -4.7231   28.2946 F   0  0  0  0  0  0  0  0  0  0  0  0
  -31.6342   -4.2607   29.4068 F   0  0  0  0  0  0  0  0  0  0  0  0
  -29.0484   -4.8613   35.4136 C   0  0  0  0  0  0  0  0  0  0  0  0
  -29.0285   -3.9149   34.3587 C   0  0  0  0  0  0  0  0  0  0  0  0
  -29.6168   -4.2409   33.1585 O   0  0  0  0  0  0  0  0  0  0  0  0
  2  7  1  0
  6 13  1  0
 13 14  2  3
 14 15  1  0
 15 16  2  3
 15 17  1  0
 16 18  1  0
 17 19  1  0
 18 20  1  0
 20 21  1  0
 17 22  1  0
 17 23  1  0
 21 24  2  0
 24 25  1  0
 18 26  1  0
 25 26  1  0
  7  8  2  0
  8  9  1  0
  9 10  2  0
 10 12  1  0
 12 11  2  0
 11  7  1  0
  1  2  2  0
  2  3  1  0
  3  4  2  0
  4  5  1  0
  5  6  2  0
  6  1  1  0
M  END

$$$$
