No_1646-gen_results/8p0m/2024-11-26-14-13-15/
     RDKit          3D

 11 11  0  0  0  0  0  0  0  0999 V2000
  -28.0162   -0.8135   28.8779 C   0  0  0  0  0  0  0  0  0  0  0  0
  -28.4690   -0.7850   29.8287 C   0  0  0  0  0  0  0  0  0  0  0  0
  -26.5042   -0.7777   28.8766 C   0  0  0  0  0  0  0  0  0  0  0  0
  -25.9500    0.1157   29.4052 C   0  0  0  0  0  0  0  0  0  0  0  0
  -27.9964    0.1190   30.9527 C   0  0  0  0  0  0  0  0  0  0  0  0
  -26.6037    0.4647   30.8030 C   0  0  0  0  0  0  0  0  0  0  0  0
  -29.8458   -1.0110   30.0484 O   0  0  0  0  0  0  0  0  0  0  0  0
  -30.4255   -0.9975   31.1605 C   0  0  0  0  0  0  0  0  0  0  0  0
  -24.5200    0.3913   29.4338 C   0  0  0  0  0  0  0  0  0  0  0  0
  -23.5312   -0.4306   29.7551 C   0  0  0  0  0  0  0  0  0  0  0  0
  -22.1407   -0.1506   29.5382 C   0  0  0  0  0  0  0  0  0  0  0  0
  2  7  1  0
  7  8  1  0
  4  9  1  0
  9 10  2  3
 10 11  1  0
  1  2  2  0
  2  5  1  0
  5  6  2  0
  6  4  1  0
  4  3  2  0
  3  1  1  0
M  END

$$$$
