No_1548-gen_results/8p0m/2024-11-26-14-13-15/
     RDKit          3D

 18 20  0  0  0  0  0  0  0  0999 V2000
  -28.0162   -0.8135   28.8779 C   0  0  0  0  0  0  0  0  0  0  0  0
  -28.4690   -0.7850   29.8287 C   0  0  0  0  0  0  0  0  0  0  0  0
  -28.1816    0.4277   28.1134 C   0  0  0  0  0  0  0  0  0  0  0  0
  -28.9841    1.4155   28.5154 C   0  0  0  0  0  0  0  0  0  0  0  0
  -29.3802    0.1384   30.4612 C   0  0  0  0  0  0  0  0  0  0  0  0
  -29.5415    1.2736   29.7242 C   0  0  0  0  0  0  0  0  0  0  0  0
  -27.4586    0.4934   26.7701 C   0  0  0  0  0  0  0  0  0  0  0  0
  -26.4813    1.5210   26.6301 C   0  0  0  0  0  0  0  0  0  0  0  0
  -25.2027    1.4103   27.3432 C   0  0  0  0  0  0  0  0  0  0  0  0
  -24.2794    2.4114   27.2150 C   0  0  0  0  0  0  0  0  0  0  0  0
  -24.5838    3.5617   26.4629 C   0  0  0  0  0  0  0  0  0  0  0  0
  -25.8203    3.7207   25.8513 C   0  0  0  0  0  0  0  0  0  0  0  0
  -26.7635    2.6995   25.9831 C   0  0  0  0  0  0  0  0  0  0  0  0
  -22.9211    2.3259   27.8273 C   0  0  0  0  0  0  0  0  0  0  0  0
  -22.8760    1.7343   29.0194 N   0  0  0  0  0  0  0  0  0  0  0  0
  -23.5506    0.5933   29.3221 C   0  0  0  0  0  0  0  0  0  0  0  0
  -24.9798    0.6444   28.6536 C   0  0  0  0  0  0  0  0  0  0  0  0
  -27.6812   -0.1981   25.8166 O   0  0  0  0  0  0  0  0  0  0  0  0
  3  7  1  0
  7  8  1  0
  7 18  2  0
 10 14  1  0
 14 15  2  0
 15 16  1  0
 16 17  2  0
 17  9  1  0
  8  9  2  0
  9 10  1  0
 10 11  2  0
 11 12  1  0
 12 13  2  0
 13  8  1  0
  1  2  2  0
  2  5  1  0
  5  6  2  0
  6  4  1  0
  4  3  2  0
  3  1  1  0
M  END

$$$$
