No_1074-gen_results/8p0m/2024-11-26-14-13-15/
     RDKit          3D

 17 18  0  0  0  0  0  0  0  0999 V2000
  -28.0162   -0.8135   28.8779 C   0  0  0  0  0  0  0  0  0  0  0  0
  -27.0636   -0.1190   28.6079 C   0  0  0  0  0  0  0  0  0  0  0  0
  -27.0010    0.6913   27.4910 C   0  0  0  0  0  0  0  0  0  0  0  0
  -25.7770    1.0214   26.9135 C   0  0  0  0  0  0  0  0  0  0  0  0
  -24.5088    0.7364   27.5686 C   0  0  0  0  0  0  0  0  0  0  0  0
  -24.5930   -0.0361   28.7390 C   0  0  0  0  0  0  0  0  0  0  0  0
  -25.8114   -0.4771   29.1584 C   0  0  0  0  0  0  0  0  0  0  0  0
  -28.1069   -1.4831   30.2046 C   0  0  0  0  0  0  0  0  0  0  0  0
  -29.3401   -2.1557   30.6205 C   0  0  0  0  0  0  0  0  0  0  0  0
  -26.9104   -1.7118   30.9836 C   0  0  0  0  0  0  0  0  0  0  0  0
  -25.7320   -1.2708   30.3891 C   0  0  0  0  0  0  0  0  0  0  0  0
  -30.3107   -1.7258   30.1636 O   0  0  0  0  0  0  0  0  0  0  0  0
  -29.2743   -3.1753   31.4803 N   0  0  0  0  0  0  0  0  0  0  0  0
  -30.4640   -3.9204   31.9082 C   0  0  0  0  0  0  0  0  0  0  0  0
  -22.8968    1.4972   26.9519 Br  0  0  0  0  0  0  0  0  0  0  0  0
  -23.2413   -0.2893   29.3804 C   0  0  0  0  0  0  0  0  0  0  0  0
  -22.0927    0.0459   29.0079 C   0  0  0  0  0  0  0  0  0  0  0  0
  8  9  1  0
  9 12  2  0
  9 13  1  0
 13 14  1  0
  5 15  1  0
  6 16  1  0
 16 17  1  0
  2  3  1  0
  3  4  2  0
  4  5  1  0
  5  6  2  0
  6  7  1  0
  1  2  2  0
  2  7  1  0
  7 11  2  0
 11 10  1  0
 10  8  2  0
  8  1  1  0
M  END

$$$$
