No_1037-gen_results/8p0m/2024-11-26-14-13-15/
     RDKit          3D

 11 11  0  0  0  0  0  0  0  0999 V2000
  -28.0162   -0.8135   28.8779 C   0  0  0  0  0  0  0  0  0  0  0  0
  -27.0636   -0.1190   28.6079 C   0  0  0  0  0  0  0  0  0  0  0  0
  -27.0010    0.6913   27.4910 C   0  0  0  0  0  0  0  0  0  0  0  0
  -28.1373    0.7363   26.6350 C   0  0  0  0  0  0  0  0  0  0  0  0
  -28.1438    1.4323   25.4881 C   0  0  0  0  0  0  0  0  0  0  0  0
  -27.9644   -1.5920   30.1433 C   0  0  0  0  0  0  0  0  0  0  0  0
  -26.7541   -1.7211   30.8035 C   0  0  0  0  0  0  0  0  0  0  0  0
  -25.6278   -1.0733   30.4055 C   0  0  0  0  0  0  0  0  0  0  0  0
  -25.7245   -0.2495   29.3126 C   0  0  0  0  0  0  0  0  0  0  0  0
  -26.9843    2.0884   25.0239 C   0  0  0  0  0  0  0  0  0  0  0  0
  -25.8258    2.0276   25.7649 C   0  0  0  0  0  0  0  0  0  0  0  0
  3  4  1  0
  4  5  1  0
  5 10  2  3
 10 11  1  0
  3  2  1  0
  1  2  2  0
  2  9  1  0
  9  8  2  0
  8  7  1  0
  7  6  2  0
  6  1  1  0
M  END

$$$$
