No_1687-gen_results/8p0m/2024-11-26-14-13-15/
     RDKit          3D

 15 16  0  0  0  0  0  0  0  0999 V2000
  -28.0162   -0.8135   28.8779 C   0  0  0  0  0  0  0  0  0  0  0  0
  -27.0636   -0.1189   28.6079 C   0  0  0  0  0  0  0  0  0  0  0  0
  -25.7923   -0.4302   29.0761 C   0  0  0  0  0  0  0  0  0  0  0  0
  -25.5756   -1.5654   29.9363 C   0  0  0  0  0  0  0  0  0  0  0  0
  -26.7354   -2.3004   30.2173 C   0  0  0  0  0  0  0  0  0  0  0  0
  -27.9184   -1.9537   29.7629 C   0  0  0  0  0  0  0  0  0  0  0  0
  -29.0001   -2.7012   30.1151 O   0  0  0  0  0  0  0  0  0  0  0  0
  -24.2168    0.5765   28.7081 Br  0  0  0  0  0  0  0  0  0  0  0  0
  -30.0970   -2.0977   30.6212 C   0  0  0  0  0  0  0  0  0  0  0  0
  -30.0948   -1.1937   31.3267 C   0  0  0  0  0  0  0  0  0  0  0  0
  -28.8307   -0.7712   31.9811 C   0  0  0  0  0  0  0  0  0  0  0  0
  -28.6719    0.1055   32.6052 C   0  0  0  0  0  0  0  0  0  0  0  0
  -29.7111    0.9432   33.0722 C   0  0  0  0  0  0  0  0  0  0  0  0
  -30.9930    0.5903   32.5733 C   0  0  0  0  0  0  0  0  0  0  0  0
  -31.1241   -0.4135   31.7412 C   0  0  0  0  0  0  0  0  0  0  0  0
  6  7  1  0
  3  8  1  0
  7  9  1  0
  9 10  1  0
  1  2  2  0
  2  3  1  0
  3  4  2  0
  4  5  1  0
  5  6  2  0
  6  1  1  0
 10 11  2  0
 11 12  1  0
 12 13  2  0
 13 14  1  0
 14 15  2  0
 15 10  1  0
M  END

$$$$
