No_1800-gen_results/8p0m/2024-11-26-14-13-15/
     RDKit          3D

 32 36  0  0  0  0  0  0  0  0999 V2000
  -28.0162   -0.8135   28.8779 C   0  0  0  0  0  0  0  0  0  0  0  0
  -27.0636   -0.1189   28.6079 C   0  0  0  0  0  0  0  0  0  0  0  0
  -25.7923   -0.4302   29.0761 C   0  0  0  0  0  0  0  0  0  0  0  0
  -24.5456    0.3494   28.8225 C   0  0  0  0  0  0  0  0  0  0  0  0
  -23.2409    0.0217   29.3323 C   0  0  0  0  0  0  0  0  0  0  0  0
  -27.8820   -1.8995   29.8633 C   0  0  0  0  0  0  0  0  0  0  0  0
  -26.6526   -2.3141   30.3138 C   0  0  0  0  0  0  0  0  0  0  0  0
  -25.5153   -1.5607   29.9787 C   0  0  0  0  0  0  0  0  0  0  0  0
  -22.1588    0.7866   28.9507 C   0  0  0  0  0  0  0  0  0  0  0  0
  -22.1309    1.7439   27.9818 C   0  0  0  0  0  0  0  0  0  0  0  0
  -24.5165    1.3706   27.7930 C   0  0  0  0  0  0  0  0  0  0  0  0
  -23.3378    2.0353   27.4273 C   0  0  0  0  0  0  0  0  0  0  0  0
  -28.9418   -2.8409   30.3836 C   0  0  0  0  0  0  0  0  0  0  0  0
  -30.0895   -2.4121   30.6064 N   0  0  0  0  0  0  0  0  0  0  0  0
  -28.6999   -4.0557   30.5613 O   0  0  0  0  0  0  0  0  0  0  0  0
  -31.2287   -3.2550   31.0391 C   0  0  0  0  0  0  0  0  0  0  0  0
  -32.3239   -3.0006   30.4914 C   0  0  0  0  0  0  0  0  0  0  0  0
  -33.2217   -3.4542   30.2187 C   0  0  0  0  0  0  0  0  0  0  0  0
  -34.4664   -2.9828   29.4579 C   0  0  0  0  0  0  0  0  0  0  0  0
  -34.3884   -1.6593   29.0711 C   0  0  0  0  0  0  0  0  0  0  0  0
  -33.2878   -0.9134   29.2852 C   0  0  0  0  0  0  0  0  0  0  0  0
  -32.2462   -1.4329   29.9301 C   0  0  0  0  0  0  0  0  0  0  0  0
  -30.7978   -1.4685   29.5726 C   0  0  0  0  0  0  0  0  0  0  0  0
  -35.6004   -1.0151   28.4357 C   0  0  0  0  0  0  0  0  0  0  0  0
  -36.2549   -1.3546   27.7501 N   0  0  0  0  0  0  0  0  0  0  0  0
  -35.7753    0.4289   28.8812 C   0  0  0  0  0  0  0  0  0  0  0  0
  -36.8671    1.1070   28.3745 C   0  0  0  0  0  0  0  0  0  0  0  0
  -37.3877   -0.8284   27.1445 C   0  0  0  0  0  0  0  0  0  0  0  0
  -37.6583    0.4587   27.4905 C   0  0  0  0  0  0  0  0  0  0  0  0
  -38.8525    1.1223   26.8966 C   0  0  0  0  0  0  0  0  0  0  0  0
  -39.1998    2.2311   27.2566 O   0  0  0  0  0  0  0  0  0  0  0  0
  -39.1431    0.7437   25.7207 F   0  0  0  0  0  0  0  0  0  0  0  0
  3  4  1  0
  6 13  1  0
 13 14  1  0
 13 15  2  0
 14 16  1  0
 16 17  1  0
 14 23  1  0
 22 23  1  0
 20 24  1  0
 29 30  1  0
 30 31  2  0
 30 32  1  0
 17 18  2  0
 18 19  1  0
 19 20  2  0
 20 21  1  0
 21 22  2  0
 22 17  1  0
 24 25  2  0
 25 28  1  0
 28 29  2  0
 29 27  1  0
 27 26  2  0
 26 24  1  0
  1  2  2  0
  2  3  1  0
  3  8  2  0
  8  7  1  0
  7  6  2  0
  6  1  1  0
  4  5  2  0
  5  9  1  0
  9 10  2  0
 10 12  1  0
 12 11  2  0
 11  4  1  0
M  END

$$$$
