No_1436-gen_results/8p0m/2024-11-26-14-13-15/
     RDKit          3D

 22 24  0  0  0  0  0  0  0  0999 V2000
  -28.0162   -0.8135   28.8779 C   0  0  0  0  0  0  0  0  0  0  0  0
  -28.4690   -0.7850   29.8287 C   0  0  0  0  0  0  0  0  0  0  0  0
  -26.5455   -0.8762   28.8500 C   0  0  0  0  0  0  0  0  0  0  0  0
  -25.6825   -0.7773   27.6829 C   0  0  0  0  0  0  0  0  0  0  0  0
  -27.9181   -1.0034   31.1877 C   0  0  0  0  0  0  0  0  0  0  0  0
  -26.5308   -1.0794   31.2463 C   0  0  0  0  0  0  0  0  0  0  0  0
  -25.7798   -1.0462   30.0905 C   0  0  0  0  0  0  0  0  0  0  0  0
  -25.2322    0.5793   27.3292 C   0  0  0  0  0  0  0  0  0  0  0  0
  -23.9816    0.8698   27.7677 C   0  0  0  0  0  0  0  0  0  0  0  0
  -23.3918    1.7212   27.7156 C   0  0  0  0  0  0  0  0  0  0  0  0
  -23.8298    2.8525   26.8444 C   0  0  0  0  0  0  0  0  0  0  0  0
  -25.8593    1.4233   26.4635 C   0  0  0  0  0  0  0  0  0  0  0  0
  -27.0659    1.1713   25.8840 C   0  0  0  0  0  0  0  0  0  0  0  0
  -25.1440    2.6320   26.1936 C   0  0  0  0  0  0  0  0  0  0  0  0
  -28.0800    2.0207   25.8865 C   0  0  0  0  0  0  0  0  0  0  0  0
  -29.3534    1.7508   25.2985 C   0  0  0  0  0  0  0  0  0  0  0  0
  -29.5249    0.5187   24.7074 C   0  0  0  0  0  0  0  0  0  0  0  0
  -28.4962   -0.3890   24.6048 C   0  0  0  0  0  0  0  0  0  0  0  0
  -27.2452   -0.0453   25.1664 C   0  0  0  0  0  0  0  0  0  0  0  0
  -30.0716   -0.5791   29.8926 C   0  0  0  0  0  0  0  0  0  0  0  0
  -30.6680   -0.4828   29.0855 O   0  0  0  0  0  0  0  0  0  0  0  0
  -30.6472   -0.8463   31.1166 O   0  0  0  0  0  0  0  0  0  0  0  0
  3  4  1  0
  4  8  1  0
 12 13  1  0
  2 20  1  0
 20 21  1  0
 20 22  2  0
 13 15  2  0
 15 16  1  0
 16 17  2  0
 17 18  1  0
 18 19  2  0
 19 13  1  0
  8  9  2  0
  9 10  1  0
 10 11  2  0
 11 14  1  0
 14 12  2  0
 12  8  1  0
  1  2  2  0
  2  5  1  0
  5  6  2  0
  6  7  1  0
  7  3  2  0
  3  1  1  0
M  END

$$$$
