No_1391-gen_results/8p0m/2024-11-26-14-13-15/
     RDKit          3D

 35 39  0  0  0  0  0  0  0  0999 V2000
  -28.0162   -0.8135   28.8779 C   0  0  0  0  0  0  0  0  0  0  0  0
  -28.5949   -0.9931   29.8894 Br  0  0  0  0  0  0  0  0  0  0  0  0
  -27.1186    0.3928   28.8932 C   0  0  0  0  0  0  0  0  0  0  0  0
  -25.7966    0.1366   28.9881 C   0  0  0  0  0  0  0  0  0  0  0  0
  -25.2421   -0.0244   30.1267 C   0  0  0  0  0  0  0  0  0  0  0  0
  -23.7492   -0.2413   30.2736 C   0  0  0  0  0  0  0  0  0  0  0  0
  -23.1081   -0.1236   29.3298 C   0  0  0  0  0  0  0  0  0  0  0  0
  -23.5721    0.0953   28.0010 C   0  0  0  0  0  0  0  0  0  0  0  0
  -24.9565    0.2084   27.8524 C   0  0  0  0  0  0  0  0  0  0  0  0
  -27.4334    1.2306   27.5956 C   0  0  0  0  0  0  0  0  0  0  0  0
  -27.5275    1.3074   29.9751 N   0  0  0  0  0  0  0  0  0  0  0  0
  -27.8503    2.5261   29.8359 C   0  0  0  0  0  0  0  0  0  0  0  0
  -27.4931    0.5043   26.4069 C   0  0  0  0  0  0  0  0  0  0  0  0
  -27.9720    3.1323   28.5758 C   0  0  0  0  0  0  0  0  0  0  0  0
  -27.7142    2.5085   27.5267 C   0  0  0  0  0  0  0  0  0  0  0  0
  -28.6364    0.6728   25.5538 C   0  0  0  0  0  0  0  0  0  0  0  0
  -29.3398   -0.0111   25.2475 C   0  0  0  0  0  0  0  0  0  0  0  0
  -30.4868    0.2452   24.3031 C   0  0  0  0  0  0  0  0  0  0  0  0
  -30.5373    1.4894   23.7583 C   0  0  0  0  0  0  0  0  0  0  0  0
  -29.5938    2.4622   24.1350 C   0  0  0  0  0  0  0  0  0  0  0  0
  -28.5742    2.1465   25.0245 C   0  0  0  0  0  0  0  0  0  0  0  0
  -28.1235    3.0675   26.2014 C   0  0  0  0  0  0  0  0  0  0  0  0
  -28.0365    3.6221   31.4046 Br  0  0  0  0  0  0  0  0  0  0  0  0
  -21.5691   -0.3207   29.3644 C   0  0  0  0  0  0  0  0  0  0  0  0
  -20.8522    0.3874   28.6248 N   0  0  0  0  0  0  0  0  0  0  0  0
  -31.5001    1.9134   22.7312 C   0  0  0  0  0  0  0  0  0  0  0  0
  -32.6883    1.2004   22.5187 C   0  0  0  0  0  0  0  0  0  0  0  0
  -31.4450    3.2382   22.1238 C   0  0  0  0  0  0  0  0  0  0  0  0
  -32.4660    3.5417   21.1602 C   0  0  0  0  0  0  0  0  0  0  0  0
  -33.6470    1.4772   21.6017 C   0  0  0  0  0  0  0  0  0  0  0  0
  -33.5288    2.7225   20.8837 C   0  0  0  0  0  0  0  0  0  0  0  0
  -21.1256   -1.1374   30.1904 O   0  0  0  0  0  0  0  0  0  0  0  0
  -34.5529    3.0985   19.8800 C   0  0  0  0  0  0  0  0  0  0  0  0
  -34.8603    4.1587   19.4503 C   0  0  0  0  0  0  0  0  0  0  0  0
  -35.8565    4.4633   18.4495 C   0  0  0  0  0  0  0  0  0  0  0  0
  1  2  1  0
  1  3  1  0
  3  4  1  0
  3 10  1  0
  3 11  1  0
 10 13  1  0
 12 14  1  0
 10 15  1  0
 13 16  1  0
 15 22  1  0
 21 22  1  0
 12 23  1  0
  7 24  1  0
 24 25  1  0
 19 26  1  0
 24 32  2  0
 31 33  1  0
 33 34  2  3
 34 35  1  0
 15 14  1  0
 12 11  1  0
  4  5  2  0
  5  6  1  0
  6  7  2  0
  7  8  1  0
  8  9  2  0
  9  4  1  0
 26 27  2  0
 27 30  1  0
 30 31  2  0
 31 29  1  0
 29 28  2  0
 28 26  1  0
 16 17  2  0
 17 18  1  0
 18 19  2  0
 19 20  1  0
 20 21  2  0
 21 16  1  0
M  END

$$$$
