No_1317-gen_results/8p0m/2024-11-26-14-13-15/
     RDKit          3D

 20 22  0  0  0  0  0  0  0  0999 V2000
  -28.0162   -0.8135   28.8779 C   0  0  0  0  0  0  0  0  0  0  0  0
  -28.4690   -0.7850   29.8287 C   0  0  0  0  0  0  0  0  0  0  0  0
  -26.5455   -0.8762   28.8500 C   0  0  0  0  0  0  0  0  0  0  0  0
  -25.8974   -0.8267   29.8894 C   0  0  0  0  0  0  0  0  0  0  0  0
  -27.9129   -0.8385   31.1942 C   0  0  0  0  0  0  0  0  0  0  0  0
  -26.5519   -0.8324   31.1775 C   0  0  0  0  0  0  0  0  0  0  0  0
  -30.2866   -0.7927   29.9260 Cl  0  0  0  0  0  0  0  0  0  0  0  0
  -24.3720   -0.8622   29.9318 C   0  0  0  0  0  0  0  0  0  0  0  0
  -23.7033    0.0167   29.0951 C   0  0  0  0  0  0  0  0  0  0  0  0
  -22.3039   -0.0253   29.0047 C   0  0  0  0  0  0  0  0  0  0  0  0
  -21.6448    0.8829   28.1667 C   0  0  0  0  0  0  0  0  0  0  0  0
  -22.3701    1.8203   27.3546 C   0  0  0  0  0  0  0  0  0  0  0  0
  -23.7256    1.8894   27.5583 C   0  0  0  0  0  0  0  0  0  0  0  0
  -24.4037    1.0052   28.3913 C   0  0  0  0  0  0  0  0  0  0  0  0
  -24.4030    2.9627   26.8036 C   0  0  0  0  0  0  0  0  0  0  0  0
  -25.6979    2.7103   26.4143 C   0  0  0  0  0  0  0  0  0  0  0  0
  -26.7852    3.4304   26.5105 C   0  0  0  0  0  0  0  0  0  0  0  0
  -26.7171    4.6441   27.3015 C   0  0  0  0  0  0  0  0  0  0  0  0
  -25.4291    5.1975   27.5366 C   0  0  0  0  0  0  0  0  0  0  0  0
  -24.2777    4.2934   27.4618 C   0  0  0  0  0  0  0  0  0  0  0  0
  2  7  1  0
  4  8  1  0
  8  9  1  0
 13 15  1  0
  9 10  2  0
 10 11  1  0
 11 12  2  0
 12 13  1  0
 13 14  2  0
 14  9  1  0
 15 16  2  0
 16 17  1  0
 17 18  2  0
 18 19  1  0
 19 20  2  0
 20 15  1  0
  1  2  2  0
  2  5  1  0
  5  6  2  0
  6  4  1  0
  4  3  2  0
  3  1  1  0
M  END

$$$$
