No_104-gen_results/8p0m/2024-11-26-14-13-15/
     RDKit          3D

 27 27  0  0  0  0  0  0  0  0999 V2000
  -28.0162   -0.8135   28.8779 C   0  0  0  0  0  0  0  0  0  0  0  0
  -28.4690   -0.7850   29.8287 C   0  0  0  0  0  0  0  0  0  0  0  0
  -26.5455   -0.8762   28.8500 C   0  0  0  0  0  0  0  0  0  0  0  0
  -25.8041   -1.0324   30.0571 C   0  0  0  0  0  0  0  0  0  0  0  0
  -26.5373   -1.0386   31.2171 C   0  0  0  0  0  0  0  0  0  0  0  0
  -27.8843   -0.9532   31.1862 C   0  0  0  0  0  0  0  0  0  0  0  0
  -24.3555   -1.1121   30.0346 C   0  0  0  0  0  0  0  0  0  0  0  0
  -23.6610    0.1027   29.8448 C   0  0  0  0  0  0  0  0  0  0  0  0
  -23.9525    1.2330   30.4520 C   0  0  0  0  0  0  0  0  0  0  0  0
  -22.5070    0.1052   28.9319 C   0  0  0  0  0  0  0  0  0  0  0  0
  -22.0627    1.2509   28.2955 C   0  0  0  0  0  0  0  0  0  0  0  0
  -25.1038    1.3071   31.3908 C   0  0  0  0  0  0  0  0  0  0  0  0
  -25.6574    2.5466   31.7054 C   0  0  0  0  0  0  0  0  0  0  0  0
  -25.0458    3.7191   31.2977 C   0  0  0  0  0  0  0  0  0  0  0  0
  -25.8576    4.7149   31.0724 C   0  0  0  0  0  0  0  0  0  0  0  0
  -25.3222    5.9279   30.4663 C   0  0  0  0  0  0  0  0  0  0  0  0
  -25.6242   -0.8520   27.3829 Cl  0  0  0  0  0  0  0  0  0  0  0  0
  -21.1431    1.2421   27.3157 C   0  0  0  0  0  0  0  0  0  0  0  0
  -27.0545    4.3220   30.3581 N   0  0  0  0  0  0  0  0  0  0  0  0
  -27.0074    3.8034   29.2375 C   0  0  0  0  0  0  0  0  0  0  0  0
  -28.2101    3.2703   28.7218 C   0  0  0  0  0  0  0  0  0  0  0  0
  -28.8166    4.0568   27.8475 C   0  0  0  0  0  0  0  0  0  0  0  0
  -28.3212    4.5581   31.0092 C   0  0  0  0  0  0  0  0  0  0  0  0
  -30.0571    3.5960   27.2953 C   0  0  0  0  0  0  0  0  0  0  0  0
  -29.1854    3.5922   31.1345 C   0  0  0  0  0  0  0  0  0  0  0  0
  -30.4174    2.3251   27.5052 C   0  0  0  0  0  0  0  0  0  0  0  0
  -29.7602    1.5172   28.4275 C   0  0  0  0  0  0  0  0  0  0  0  0
  4  7  1  0
  7  8  1  0
  8  9  1  0
  8 10  1  0
 10 11  2  3
  9 12  1  0
 12 13  2  3
 13 14  1  0
 14 15  1  0
 15 16  1  0
  3 17  1  0
 11 18  1  0
 15 19  1  0
 19 20  1  0
 20 21  2  3
 21 22  1  0
 19 23  1  0
 22 24  1  0
 23 25  2  0
 24 26  1  0
 26 27  2  0
  1  2  2  0
  2  6  1  0
  6  5  2  0
  5  4  1  0
  4  3  2  0
  3  1  1  0
M  END

$$$$
