No_1929-gen_results/8p0m/2024-11-26-14-13-15/
     RDKit          3D

 22 24  0  0  0  0  0  0  0  0999 V2000
  -28.0162   -0.8135   28.8779 C   0  0  0  0  0  0  0  0  0  0  0  0
  -27.0636   -0.1189   28.6079 C   0  0  0  0  0  0  0  0  0  0  0  0
  -25.7647   -0.3897   29.0360 C   0  0  0  0  0  0  0  0  0  0  0  0
  -24.5516    0.4058   28.7646 C   0  0  0  0  0  0  0  0  0  0  0  0
  -24.6957    1.4480   27.7988 C   0  0  0  0  0  0  0  0  0  0  0  0
  -25.9755    1.7250   27.3077 C   0  0  0  0  0  0  0  0  0  0  0  0
  -27.0718    1.0134   27.6535 C   0  0  0  0  0  0  0  0  0  0  0  0
  -29.2261   -0.0677   29.3149 C   0  0  0  0  0  0  0  0  0  0  0  0
  -30.4902   -0.7298   29.1813 C   0  0  0  0  0  0  0  0  0  0  0  0
  -23.4843    2.1875   27.4876 C   0  0  0  0  0  0  0  0  0  0  0  0
  -23.6757    3.1764   26.7482 F   0  0  0  0  0  0  0  0  0  0  0  0
  -22.8006    2.6819   28.5402 F   0  0  0  0  0  0  0  0  0  0  0  0
  -22.5404    1.4193   26.8548 F   0  0  0  0  0  0  0  0  0  0  0  0
  -29.3497    1.1480   28.6402 O   0  0  0  0  0  0  0  0  0  0  0  0
  -31.3122   -0.3174   28.1840 C   0  0  0  0  0  0  0  0  0  0  0  0
  -32.6068   -0.8057   28.0613 C   0  0  0  0  0  0  0  0  0  0  0  0
  -28.1742    1.9076   28.3480 C   0  0  0  0  0  0  0  0  0  0  0  0
  -29.0018    0.4128   30.7944 C   0  0  0  0  0  0  0  0  0  0  0  0
  -30.8457   -1.7735   29.9442 N   0  0  0  0  0  0  0  0  0  0  0  0
  -32.0166   -2.3680   29.8408 C   0  0  0  0  0  0  0  0  0  0  0  0
  -32.8932   -1.9415   28.8627 C   0  0  0  0  0  0  0  0  0  0  0  0
  -25.4129   -1.5211   29.9806 C   0  0  0  0  0  0  0  0  0  0  0  0
  1  2  2  0
  2  3  1  0
  3  4  1  0
  4  5  1  0
  5  6  1  0
  2  7  1  0
  6  7  2  0
  1  8  1  0
  8  9  1  0
  5 10  1  0
 10 11  1  0
 10 12  1  0
 10 13  1  0
  8 14  1  0
  9 15  1  0
 15 16  2  0
  7 17  1  0
 14 17  1  0
  8 18  1  0
  9 19  2  0
 19 20  1  0
 16 21  1  0
 20 21  2  0
  3 22  1  0
M  END

$$$$
