No_1083-gen_results/8p0m/2024-11-26-14-13-15/
     RDKit          3D

 33 37  0  0  0  0  0  0  0  0999 V2000
  -28.0162   -0.8135   28.8779 C   0  0  0  0  0  0  0  0  0  0  0  0
  -27.0636   -0.1190   28.6079 C   0  0  0  0  0  0  0  0  0  0  0  0
  -26.9287    1.1713   29.0083 C   0  0  0  0  0  0  0  0  0  0  0  0
  -25.7702    2.0341   28.6884 C   0  0  0  0  0  0  0  0  0  0  0  0
  -25.6189    3.3482   29.0918 C   0  0  0  0  0  0  0  0  0  0  0  0
  -29.0712   -0.3338   29.7689 C   0  0  0  0  0  0  0  0  0  0  0  0
  -29.0128    0.9333   30.1718 C   0  0  0  0  0  0  0  0  0  0  0  0
  -27.8993    1.7759   29.8587 C   0  0  0  0  0  0  0  0  0  0  0  0
  -24.7637    1.5278   27.7799 C   0  0  0  0  0  0  0  0  0  0  0  0
  -23.6558    2.3377   27.4155 C   0  0  0  0  0  0  0  0  0  0  0  0
  -24.6190    4.2235   28.5229 C   0  0  0  0  0  0  0  0  0  0  0  0
  -23.6236    3.6589   27.7229 C   0  0  0  0  0  0  0  0  0  0  0  0
  -30.1497   -1.2693   30.0881 C   0  0  0  0  0  0  0  0  0  0  0  0
  -31.0614   -1.2360   29.5204 O   0  0  0  0  0  0  0  0  0  0  0  0
  -30.0386   -1.8155   31.3666 N   0  0  0  0  0  0  0  0  0  0  0  0
  -31.0735   -2.7611   31.8117 C   0  0  0  0  0  0  0  0  0  0  0  0
  -28.8369   -1.7768   32.1654 C   0  0  0  0  0  0  0  0  0  0  0  0
  -22.6990    1.8598   26.5693 O   0  0  0  0  0  0  0  0  0  0  0  0
  -30.7010   -3.8269   32.1809 C   0  0  0  0  0  0  0  0  0  0  0  0
  -29.9803   -4.7263   31.3830 C   0  0  0  0  0  0  0  0  0  0  0  0
  -29.6304   -4.4003   30.1092 C   0  0  0  0  0  0  0  0  0  0  0  0
  -28.6196   -5.3583   29.4537 C   0  0  0  0  0  0  0  0  0  0  0  0
  -27.5281   -4.9383   29.7768 C   0  0  0  0  0  0  0  0  0  0  0  0
  -26.3486   -5.0046   28.9641 C   0  0  0  0  0  0  0  0  0  0  0  0
  -25.0514   -4.3701   29.4169 C   0  0  0  0  0  0  0  0  0  0  0  0
  -25.2113   -3.0028   29.9233 C   0  0  0  0  0  0  0  0  0  0  0  0
  -26.3941   -2.7534   30.7451 C   0  0  0  0  0  0  0  0  0  0  0  0
  -27.4712   -3.5296   30.5801 C   0  0  0  0  0  0  0  0  0  0  0  0
  -28.5663   -3.0579   31.4494 C   0  0  0  0  0  0  0  0  0  0  0  0
  -28.6774   -3.9616   32.4274 O   0  0  0  0  0  0  0  0  0  0  0  0
  -29.1896   -3.8798   33.6301 C   0  0  0  0  0  0  0  0  0  0  0  0
  -30.0581   -6.1207   31.8258 C   0  0  0  0  0  0  0  0  0  0  0  0
  -30.3162   -3.8288   33.6913 C   0  0  0  0  0  0  0  0  0  0  0  0
  3  4  1  0
  6 13  1  0
 13 14  2  0
 13 15  1  0
 15 16  1  0
 15 17  1  0
 10 18  1  0
 16 19  2  3
 19 20  1  0
 20 21  2  3
 21 22  1  0
 17 29  1  0
 28 29  1  0
 29 30  1  0
 30 31  1  0
 20 32  1  0
 19 33  1  0
 31 33  1  0
 22 23  1  0
 23 24  2  0
 24 25  1  0
 25 26  2  0
 26 27  1  0
 27 28  2  0
 28 23  1  0
  1  2  2  0
  2  3  1  0
  3  8  2  0
  8  7  1  0
  7  6  2  0
  6  1  1  0
  4  5  2  0
  5 11  1  0
 11 12  2  0
 12 10  1  0
 10  9  2  0
  9  4  1  0
M  END

$$$$
