No_1511-gen_results/8p0m/2024-11-26-14-13-15/
     RDKit          3D

 28 30  0  0  0  0  0  0  0  0999 V2000
  -28.0162   -0.8135   28.8779 C   0  0  0  0  0  0  0  0  0  0  0  0
  -27.0636   -0.1189   28.6079 C   0  0  0  0  0  0  0  0  0  0  0  0
  -25.7923   -0.4302   29.0761 C   0  0  0  0  0  0  0  0  0  0  0  0
  -24.5456    0.3494   28.8225 C   0  0  0  0  0  0  0  0  0  0  0  0
  -24.6586    1.4196   27.8878 C   0  0  0  0  0  0  0  0  0  0  0  0
  -25.9471    1.6811   27.3792 C   0  0  0  0  0  0  0  0  0  0  0  0
  -27.0439    0.9739   27.6871 C   0  0  0  0  0  0  0  0  0  0  0  0
  -28.0241   -1.6475   30.1262 C   0  0  0  0  0  0  0  0  0  0  0  0
  -26.7278   -2.0846   30.5807 C   0  0  0  0  0  0  0  0  0  0  0  0
  -25.5915   -1.4064   30.1489 C   0  0  0  0  0  0  0  0  0  0  0  0
  -23.4486    2.1675   27.5241 C   0  0  0  0  0  0  0  0  0  0  0  0
  -23.5972    3.3225   27.0840 N   0  0  0  0  0  0  0  0  0  0  0  0
  -22.2880    1.7287   27.7330 O   0  0  0  0  0  0  0  0  0  0  0  0
  -29.1605   -2.4709   30.5313 C   0  0  0  0  0  0  0  0  0  0  0  0
  -29.1464   -3.6279   30.8863 N   0  0  0  0  0  0  0  0  0  0  0  0
  -30.2986   -1.8495   30.5232 O   0  0  0  0  0  0  0  0  0  0  0  0
  -30.2640   -4.4988   31.2519 C   0  0  0  0  0  0  0  0  0  0  0  0
  -30.8730   -5.1428   30.3689 C   0  0  0  0  0  0  0  0  0  0  0  0
  -30.6406   -4.9569   29.0536 C   0  0  0  0  0  0  0  0  0  0  0  0
  -31.2146   -5.7346   27.9659 C   0  0  0  0  0  0  0  0  0  0  0  0
  -32.0180   -6.8126   28.3036 C   0  0  0  0  0  0  0  0  0  0  0  0
  -32.2483   -7.0877   29.6462 C   0  0  0  0  0  0  0  0  0  0  0  0
  -31.6668   -6.3390   30.6506 C   0  0  0  0  0  0  0  0  0  0  0  0
  -30.5009   -4.4362   32.5213 F   0  0  0  0  0  0  0  0  0  0  0  0
  -32.6327   -7.5409   27.2176 C   0  0  0  0  0  0  0  0  0  0  0  0
  -31.9567   -7.8886   26.3339 F   0  0  0  0  0  0  0  0  0  0  0  0
  -33.1498   -8.7127   27.7488 F   0  0  0  0  0  0  0  0  0  0  0  0
  -33.6608   -6.7954   26.7575 F   0  0  0  0  0  0  0  0  0  0  0  0
  5 11  1  0
 11 12  1  0
 11 13  2  0
  8 14  1  0
 14 15  1  0
 14 16  2  0
 15 17  1  0
 17 18  1  0
 17 24  1  0
 21 25  1  0
 25 26  1  0
 25 27  1  0
 25 28  1  0
 18 19  2  0
 19 20  1  0
 20 21  2  0
 21 22  1  0
 22 23  2  0
 23 18  1  0
  3  4  1  0
  4  5  2  0
  5  6  1  0
  6  7  2  0
  7  2  1  0
  1  2  2  0
  2  3  1  0
  3 10  2  0
 10  9  1  0
  9  8  2  0
  8  1  1  0
M  END

$$$$
