No_1173-gen_results/8p0m/2024-11-26-14-13-15/
     RDKit          3D

 31 33  0  0  0  0  0  0  0  0999 V2000
  -28.0162   -0.8135   28.8779 C   0  0  0  0  0  0  0  0  0  0  0  0
  -28.4690   -0.7850   29.8287 C   0  0  0  0  0  0  0  0  0  0  0  0
  -26.5455   -0.8762   28.8500 C   0  0  0  0  0  0  0  0  0  0  0  0
  -25.8041   -1.0324   30.0571 C   0  0  0  0  0  0  0  0  0  0  0  0
  -27.9437   -0.9869   31.2075 C   0  0  0  0  0  0  0  0  0  0  0  0
  -26.5825   -1.0386   31.2231 C   0  0  0  0  0  0  0  0  0  0  0  0
  -29.9648   -0.7353   29.8902 N   0  0  0  0  0  0  0  0  0  0  0  0
  -30.7710   -1.5353   30.3549 C   0  0  0  0  0  0  0  0  0  0  0  0
  -32.1409   -1.3743   30.1446 C   0  0  0  0  0  0  0  0  0  0  0  0
  -30.5228    0.3286   29.1507 C   0  0  0  0  0  0  0  0  0  0  0  0
  -29.6793    1.2838   28.5648 N   0  0  0  0  0  0  0  0  0  0  0  0
  -31.8430    0.4730   29.0513 C   0  0  0  0  0  0  0  0  0  0  0  0
  -32.6788   -0.3955   29.5169 C   0  0  0  0  0  0  0  0  0  0  0  0
  -29.4799    1.9536   27.7729 C   0  0  0  0  0  0  0  0  0  0  0  0
  -28.3671    2.7774   27.4698 C   0  0  0  0  0  0  0  0  0  0  0  0
  -30.4787    1.9201   26.8613 F   0  0  0  0  0  0  0  0  0  0  0  0
  -25.7061   -0.7554   27.6025 C   0  0  0  0  0  0  0  0  0  0  0  0
  -25.2886    0.6115   27.3053 C   0  0  0  0  0  0  0  0  0  0  0  0
  -25.2161    0.9955   26.0059 C   0  0  0  0  0  0  0  0  0  0  0  0
  -25.7125    0.2187   24.9763 C   0  0  0  0  0  0  0  0  0  0  0  0
  -26.7470   -0.2175   24.8034 C   0  0  0  0  0  0  0  0  0  0  0  0
  -27.8789    0.2035   24.3501 C   0  0  0  0  0  0  0  0  0  0  0  0
  -28.1053    1.6387   24.2221 C   0  0  0  0  0  0  0  0  0  0  0  0
  -29.3191    2.2254   23.7765 C   0  0  0  0  0  0  0  0  0  0  0  0
  -29.5311    3.5788   23.8374 C   0  0  0  0  0  0  0  0  0  0  0  0
  -28.1530    3.8325   26.7594 C   0  0  0  0  0  0  0  0  0  0  0  0
  -27.8586    4.9276   27.3522 C   0  0  0  0  0  0  0  0  0  0  0  0
  -26.9797    5.0456   28.4426 C   0  0  0  0  0  0  0  0  0  0  0  0
  -26.8643    3.8294   29.1945 C   0  0  0  0  0  0  0  0  0  0  0  0
  -27.6503    2.7279   28.7835 C   0  0  0  0  0  0  0  0  0  0  0  0
  -29.9821    1.4062   22.7637 C   0  0  0  0  0  0  0  0  0  0  0  0
  2  7  1  0
  7  8  1  0
  7 10  1  0
 10 11  1  0
 10 12  1  0
  9 13  1  0
 12 13  1  0
 11 14  1  0
 14 16  1  0
  3 17  1  0
 17 18  1  0
 18 19  1  0
 19 20  2  3
 20 21  1  0
 21 22  2  3
 22 23  1  0
 23 24  1  0
 24 25  1  0
 24 31  1  0
 14 15  1  0
  8  9  1  0
 15 26  2  0
 26 27  1  0
 27 28  2  0
 28 29  1  0
 29 30  2  0
 30 15  1  0
  1  2  2  0
  2  5  1  0
  5  6  2  0
  6  4  1  0
  4  3  2  0
  3  1  1  0
M  END

$$$$
