No_1549-gen_results/8p0m/2024-11-26-14-13-15/
     RDKit          3D

 17 18  0  0  0  0  0  0  0  0999 V2000
  -28.0162   -0.8135   28.8779 C   0  0  0  0  0  0  0  0  0  0  0  0
  -27.0636   -0.1190   28.6079 C   0  0  0  0  0  0  0  0  0  0  0  0
  -27.0010    0.6913   27.4910 C   0  0  0  0  0  0  0  0  0  0  0  0
  -25.8548    1.4825   27.0830 C   0  0  0  0  0  0  0  0  0  0  0  0
  -24.9008    1.3893   27.5922 C   0  0  0  0  0  0  0  0  0  0  0  0
  -24.6783    0.5764   28.8299 C   0  0  0  0  0  0  0  0  0  0  0  0
  -25.7704   -0.2051   29.2800 C   0  0  0  0  0  0  0  0  0  0  0  0
  -27.8865   -1.5554   30.0331 N   0  0  0  0  0  0  0  0  0  0  0  0
  -28.9917   -2.3857   30.4628 C   0  0  0  0  0  0  0  0  0  0  0  0
  -23.5789    2.1865   27.3195 C   0  0  0  0  0  0  0  0  0  0  0  0
  -22.6163    2.2753   28.1558 N   0  0  0  0  0  0  0  0  0  0  0  0
  -23.5075    2.8092   26.1030 N   0  0  0  0  0  0  0  0  0  0  0  0
  -28.6590   -3.5083   31.3043 C   0  0  0  0  0  0  0  0  0  0  0  0
  -29.5858   -3.8136   32.1748 C   0  0  0  0  0  0  0  0  0  0  0  0
  -30.9114   -3.3217   32.1543 C   0  0  0  0  0  0  0  0  0  0  0  0
  -30.2738   -1.8694   30.5973 C   0  0  0  0  0  0  0  0  0  0  0  0
  -31.1536   -2.2834   31.4258 C   0  0  0  0  0  0  0  0  0  0  0  0
  1  2  1  0
  1  8  2  3
  8  9  1  0
  5 10  1  0
 10 11  2  0
 10 12  1  0
  2  3  2  0
  3  4  1  0
  4  5  2  0
  5  6  1  0
  6  7  2  0
  7  2  1  0
  9 13  2  0
 13 14  1  0
 14 15  2  0
 15 17  1  0
 17 16  2  0
 16  9  1  0
M  END

$$$$
