No_1678-gen_results/8p0m/2024-11-26-14-13-15/
     RDKit          3D

 31 35  0  0  0  0  0  0  0  0999 V2000
  -28.0162   -0.8135   28.8779 C   0  0  0  0  0  0  0  0  0  0  0  0
  -27.0636   -0.1189   28.6079 C   0  0  0  0  0  0  0  0  0  0  0  0
  -25.7923   -0.4302   29.0761 C   0  0  0  0  0  0  0  0  0  0  0  0
  -25.5756   -1.5654   29.9363 C   0  0  0  0  0  0  0  0  0  0  0  0
  -26.7354   -2.3004   30.2173 C   0  0  0  0  0  0  0  0  0  0  0  0
  -27.9184   -1.9537   29.7629 C   0  0  0  0  0  0  0  0  0  0  0  0
  -28.9649   -2.6957   30.0722 F   0  0  0  0  0  0  0  0  0  0  0  0
  -24.5349    0.3596   28.8024 C   0  0  0  0  0  0  0  0  0  0  0  0
  -24.4932    1.2316   27.8004 C   0  0  0  0  0  0  0  0  0  0  0  0
  -23.2661    1.9212   27.4967 C   0  0  0  0  0  0  0  0  0  0  0  0
  -22.0624    1.6133   28.1592 C   0  0  0  0  0  0  0  0  0  0  0  0
  -23.3055    0.0266   29.4521 C   0  0  0  0  0  0  0  0  0  0  0  0
  -22.0895    0.7052   29.1259 C   0  0  0  0  0  0  0  0  0  0  0  0
  -23.3149    2.8449   26.4819 O   0  0  0  0  0  0  0  0  0  0  0  0
  -24.5163    2.7054   25.7422 C   0  0  0  0  0  0  0  0  0  0  0  0
  -25.3500    1.6713   26.8703 N   0  0  0  0  0  0  0  0  0  0  0  0
  -29.2962   -0.5411   28.4620 O   0  0  0  0  0  0  0  0  0  0  0  0
  -30.1246    0.1614   29.2024 C   0  0  0  0  0  0  0  0  0  0  0  0
  -31.2742   -0.0170   28.9623 C   0  0  0  0  0  0  0  0  0  0  0  0
  -31.7546   -0.5625   27.9085 N   0  0  0  0  0  0  0  0  0  0  0  0
  -31.3146   -0.3139   26.7027 C   0  0  0  0  0  0  0  0  0  0  0  0
  -32.7192   -1.7023   27.8812 C   0  0  0  0  0  0  0  0  0  0  0  0
  -32.1758   -0.0631   25.7738 C   0  0  0  0  0  0  0  0  0  0  0  0
  -32.9517   -1.3181   25.3502 C   0  0  0  0  0  0  0  0  0  0  0  0
  -33.6464   -1.7060   26.7593 C   0  0  0  0  0  0  0  0  0  0  0  0
  -32.1521    1.2757   29.2330 C   0  0  0  0  0  0  0  0  0  0  0  0
  -33.1957    1.2509   28.8492 F   0  0  0  0  0  0  0  0  0  0  0  0
  -31.4966    2.3415   28.6610 F   0  0  0  0  0  0  0  0  0  0  0  0
  -32.1153    1.5612   30.5896 F   0  0  0  0  0  0  0  0  0  0  0  0
  -26.6474    1.3881   26.4959 C   0  0  0  0  0  0  0  0  0  0  0  0
  -27.3008    0.5320   27.5291 C   0  0  0  0  0  0  0  0  0  0  0  0
  6  7  1  0
  3  8  1  0
 10 14  1  0
 14 15  1  0
  9 16  1  0
 15 16  1  0
  1 17  1  0
 17 18  1  0
 18 19  2  3
 19 20  1  0
 20 21  1  0
 20 22  1  0
 23 24  1  0
 22 25  1  0
 24 25  1  0
 19 26  1  0
 26 27  1  0
 26 28  1  0
 26 29  1  0
 16 30  1  0
  2 31  1  0
 30 31  2  0
 21 23  1  0
  1  2  2  0
  2  3  1  0
  3  4  2  0
  4  5  1  0
  5  6  2  0
  6  1  1  0
  8  9  2  0
  9 10  1  0
 10 11  2  0
 11 13  1  0
 13 12  2  0
 12  8  1  0
M  END

$$$$
