No_1080-gen_results/8p0m/2024-11-26-14-13-15/
     RDKit          3D

  9  9  0  0  0  0  0  0  0  0999 V2000
  -28.1146   -0.6256   29.0813 Br  0  0  0  0  0  0  0  0  0  0  0  0
  -28.0686    0.2105   30.1716 C   0  0  0  0  0  0  0  0  0  0  0  0
  -28.0003    0.8873   30.9176 C   0  0  0  0  0  0  0  0  0  0  0  0
  -27.7309    2.2146   30.7251 C   0  0  0  0  0  0  0  0  0  0  0  0
  -27.5301    3.2106   31.8095 C   0  0  0  0  0  0  0  0  0  0  0  0
  -27.1205    4.5730   31.5388 C   0  0  0  0  0  0  0  0  0  0  0  0
  -26.8759    4.9224   30.1798 C   0  0  0  0  0  0  0  0  0  0  0  0
  -26.9597    3.9610   29.2289 C   0  0  0  0  0  0  0  0  0  0  0  0
  -27.2959    2.7312   29.5323 C   0  0  0  0  0  0  0  0  0  0  0  0
  1  2  1  0
  2  3  3  0
  3  4  1  0
  4  5  2  0
  5  6  1  0
  6  7  2  0
  7  8  1  0
  8  9  2  0
  9  4  1  0
M  END

$$$$
