No_1049-gen_results/8p0m/2024-11-26-14-13-15/
     RDKit          3D

 15 16  0  0  0  0  0  0  0  0999 V2000
  -28.0162   -0.8135   28.8779 C   0  0  0  0  0  0  0  0  0  0  0  0
  -27.0636   -0.1189   28.6079 C   0  0  0  0  0  0  0  0  0  0  0  0
  -25.7923   -0.4302   29.0761 C   0  0  0  0  0  0  0  0  0  0  0  0
  -25.5756   -1.5654   29.9363 C   0  0  0  0  0  0  0  0  0  0  0  0
  -26.7354   -2.3004   30.2173 C   0  0  0  0  0  0  0  0  0  0  0  0
  -26.5841   -3.5078   30.9846 C   0  0  0  0  0  0  0  0  0  0  0  0
  -27.9637   -1.9827   29.6995 C   0  0  0  0  0  0  0  0  0  0  0  0
  -26.6327   -4.5278   29.9568 N   0  0  0  0  0  0  0  0  0  0  0  0
  -27.1213    1.1713   27.7949 C   0  0  0  0  0  0  0  0  0  0  0  0
  -26.2484    1.4210   26.9036 C   0  0  0  0  0  0  0  0  0  0  0  0
  -26.2810    2.6171   26.1167 C   0  0  0  0  0  0  0  0  0  0  0  0
  -25.1571    3.1146   25.4007 C   0  0  0  0  0  0  0  0  0  0  0  0
  -23.9229    2.3599   25.5539 C   0  0  0  0  0  0  0  0  0  0  0  0
  -23.8619    1.2583   26.4366 C   0  0  0  0  0  0  0  0  0  0  0  0
  -24.9225    0.8177   27.0859 C   0  0  0  0  0  0  0  0  0  0  0  0
  5  6  1  0
  6  8  1  0
  2  9  1  0
  9 10  1  0
  1  2  2  0
  2  3  1  0
  3  4  2  0
  4  5  1  0
  5  7  2  0
  7  1  1  0
 10 11  2  0
 11 12  1  0
 12 13  2  0
 13 14  1  0
 14 15  2  0
 15 10  1  0
M  END

$$$$
