No_1582-gen_results/8p0m/2024-11-26-14-13-15/
     RDKit          3D

 19 20  0  0  0  0  0  0  0  0999 V2000
  -28.0162   -0.8135   28.8779 C   0  0  0  0  0  0  0  0  0  0  0  0
  -27.0636   -0.1190   28.6079 C   0  0  0  0  0  0  0  0  0  0  0  0
  -27.0010    0.6913   27.4910 C   0  0  0  0  0  0  0  0  0  0  0  0
  -28.1420    0.8282   26.7994 C   0  0  0  0  0  0  0  0  0  0  0  0
  -27.9310   -1.6069   30.1504 C   0  0  0  0  0  0  0  0  0  0  0  0
  -26.7094   -1.7845   30.7448 C   0  0  0  0  0  0  0  0  0  0  0  0
  -25.5731   -1.1815   30.3081 C   0  0  0  0  0  0  0  0  0  0  0  0
  -25.6842   -0.3065   29.2345 C   0  0  0  0  0  0  0  0  0  0  0  0
  -29.2570    0.2927   27.3428 C   0  0  0  0  0  0  0  0  0  0  0  0
  -29.2234   -0.5191   28.4053 N   0  0  0  0  0  0  0  0  0  0  0  0
  -30.4827    0.4173   26.6795 N   0  0  0  0  0  0  0  0  0  0  0  0
  -29.0880   -2.4282   30.6261 C   0  0  0  0  0  0  0  0  0  0  0  0
  -29.0506   -3.5887   30.7282 O   0  0  0  0  0  0  0  0  0  0  0  0
  -30.1475   -1.7267   30.9030 O   0  0  0  0  0  0  0  0  0  0  0  0
  -31.6143    0.2188   27.3299 C   0  0  0  0  0  0  0  0  0  0  0  0
  -31.9622    0.7713   28.3500 C   0  0  0  0  0  0  0  0  0  0  0  0
  -33.2208    0.5946   29.0561 C   0  0  0  0  0  0  0  0  0  0  0  0
  -33.5768    1.2491   30.2612 C   0  0  0  0  0  0  0  0  0  0  0  0
  -34.7602    1.0401   30.9095 C   0  0  0  0  0  0  0  0  0  0  0  0
  9 11  1  0
  5 12  1  0
 12 13  2  0
 12 14  1  0
 11 15  1  0
 15 16  2  3
 16 17  1  0
 17 18  2  3
 18 19  1  0
  2  3  2  0
  3  4  1  0
  4  9  2  0
  9 10  1  0
 10  1  2  0
  1  2  1  0
  2  8  1  0
  8  7  2  0
  7  6  1  0
  6  5  2  0
  5  1  1  0
M  END

$$$$
