No_1122-gen_results/8p0m/2024-11-26-14-13-15/
     RDKit          3D

 21 22  0  0  0  0  0  0  0  0999 V2000
  -28.0162   -0.8135   28.8779 C   0  0  0  0  0  0  0  0  0  0  0  0
  -28.4690   -0.7850   29.8287 C   0  0  0  0  0  0  0  0  0  0  0  0
  -27.1356    0.2359   28.5352 C   0  0  0  0  0  0  0  0  0  0  0  0
  -26.3351    0.2900   27.2835 C   0  0  0  0  0  0  0  0  0  0  0  0
  -28.3692    0.1957   30.9236 C   0  0  0  0  0  0  0  0  0  0  0  0
  -27.5158    1.2655   30.6540 C   0  0  0  0  0  0  0  0  0  0  0  0
  -26.7590    1.3511   29.4402 C   0  0  0  0  0  0  0  0  0  0  0  0
  -25.0032    0.3405   27.4779 C   0  0  0  0  0  0  0  0  0  0  0  0
  -24.2234    0.8702   26.7446 C   0  0  0  0  0  0  0  0  0  0  0  0
  -23.3109    1.9571   26.7422 C   0  0  0  0  0  0  0  0  0  0  0  0
  -23.0885    2.5835   27.9887 C   0  0  0  0  0  0  0  0  0  0  0  0
  -23.6058    1.7770   29.1172 C   0  0  0  0  0  0  0  0  0  0  0  0
  -24.5307    0.4683   28.9511 C   0  0  0  0  0  0  0  0  0  0  0  0
  -26.9771    1.0496   26.2796 C   0  0  0  0  0  0  0  0  0  0  0  0
  -23.2965   -0.6778   29.1154 C   0  0  0  0  0  0  0  0  0  0  0  0
  -22.0617   -0.3032   29.5655 C   0  0  0  0  0  0  0  0  0  0  0  0
  -23.8661   -1.9488   28.9798 C   0  0  0  0  0  0  0  0  0  0  0  0
  -22.7098    1.5971   30.1415 O   0  0  0  0  0  0  0  0  0  0  0  0
  -21.8176    0.7715   30.1320 F   0  0  0  0  0  0  0  0  0  0  0  0
  -21.1388   -0.4902   28.5658 F   0  0  0  0  0  0  0  0  0  0  0  0
  -21.7477   -1.1894   30.5955 F   0  0  0  0  0  0  0  0  0  0  0  0
  3  4  1  0
  4  8  1  0
  4 14  1  0
 13 15  1  0
 15 16  1  0
 15 17  1  0
 12 18  1  0
 18 19  1  0
 16 20  1  0
 16 21  1  0
  8  9  2  0
  9 10  1  0
 10 11  2  0
 11 12  1  0
 12 13  2  0
 13  8  1  0
  1  2  2  0
  2  5  1  0
  5  6  2  0
  6  7  1  0
  7  3  2  0
  3  1  1  0
M  END

$$$$
