No_192-gen_results/8p0m/2024-11-26-14-13-15/
     RDKit          3D

 17 19  0  0  0  0  0  0  0  0999 V2000
  -28.0162   -0.8135   28.8779 C   0  0  0  0  0  0  0  0  0  0  0  0
  -28.4690   -0.7850   29.8287 C   0  0  0  0  0  0  0  0  0  0  0  0
  -28.1960    0.3478   28.0550 C   0  0  0  0  0  0  0  0  0  0  0  0
  -27.4421    0.5100   26.7946 C   0  0  0  0  0  0  0  0  0  0  0  0
  -27.8427    1.3330   25.8056 C   0  0  0  0  0  0  0  0  0  0  0  0
  -29.4956    0.1092   30.3452 C   0  0  0  0  0  0  0  0  0  0  0  0
  -29.7284    1.1870   29.5687 C   0  0  0  0  0  0  0  0  0  0  0  0
  -29.0420    1.3665   28.3718 C   0  0  0  0  0  0  0  0  0  0  0  0
  -26.1281   -0.0671   26.6257 C   0  0  0  0  0  0  0  0  0  0  0  0
  -25.0055    0.6927   27.1660 C   0  0  0  0  0  0  0  0  0  0  0  0
  -24.7233    1.0525   28.3282 C   0  0  0  0  0  0  0  0  0  0  0  0
  -23.8451    1.1524   28.8863 C   0  0  0  0  0  0  0  0  0  0  0  0
  -22.5397    1.4201   28.1339 C   0  0  0  0  0  0  0  0  0  0  0  0
  -22.6674    1.4635   26.7676 C   0  0  0  0  0  0  0  0  0  0  0  0
  -23.8969    0.9080   26.2169 C   0  0  0  0  0  0  0  0  0  0  0  0
  -29.2817    2.4158   27.5084 C   0  0  0  0  0  0  0  0  0  0  0  0
  -28.6500    2.4727   26.2306 C   0  0  0  0  0  0  0  0  0  0  0  0
  4  9  1  0
  9 10  1  0
  3  4  2  0
  4  5  1  0
  5 17  2  0
 17 16  1  0
 16  8  2  0
 10 11  2  0
 11 12  1  0
 12 13  2  0
 13 14  1  0
 14 15  2  0
 15 10  1  0
  1  2  2  0
  2  6  1  0
  6  7  2  0
  7  8  1  0
  8  3  1  0
  3  1  1  0
M  END

$$$$
