No_1028-gen_results/8p0m/2024-11-26-14-13-15/
     RDKit          3D

 27 27  0  0  0  0  0  0  0  0999 V2000
  -28.0162   -0.8135   28.8779 C   0  0  0  0  0  0  0  0  0  0  0  0
  -27.0636   -0.1190   28.6079 C   0  0  0  0  0  0  0  0  0  0  0  0
  -26.8756    1.1325   28.9134 C   0  0  0  0  0  0  0  0  0  0  0  0
  -25.6883    1.9515   28.5672 C   0  0  0  0  0  0  0  0  0  0  0  0
  -24.6394    1.2834   27.8753 C   0  0  0  0  0  0  0  0  0  0  0  0
  -24.8068   -0.0513   27.6040 C   0  0  0  0  0  0  0  0  0  0  0  0
  -25.9019   -0.7670   27.9511 C   0  0  0  0  0  0  0  0  0  0  0  0
  -28.6455   -0.5282   30.2428 C   0  0  0  0  0  0  0  0  0  0  0  0
  -29.6221   -0.8997   30.6143 N   0  0  0  0  0  0  0  0  0  0  0  0
  -23.4416    1.9849   27.4627 C   0  0  0  0  0  0  0  0  0  0  0  0
  -23.1253    2.5790   26.6020 C   0  0  0  0  0  0  0  0  0  0  0  0
  -22.2633    1.6519   28.4588 C   0  0  0  0  0  0  0  0  0  0  0  0
  -22.3925    0.8966   29.5142 N   0  0  0  0  0  0  0  0  0  0  0  0
  -30.2004   -0.7495   31.8221 C   0  0  0  0  0  0  0  0  0  0  0  0
  -27.9000    0.1669   30.9902 O   0  0  0  0  0  0  0  0  0  0  0  0
  -30.5177   -1.7631   29.7210 C   0  0  0  0  0  0  0  0  0  0  0  0
  -25.5225    3.3634   28.8878 C   0  0  0  0  0  0  0  0  0  0  0  0
  -25.8122    4.3751   27.7253 Cl  0  0  0  0  0  0  0  0  0  0  0  0
  -25.3053    3.7216   30.1115 O   0  0  0  0  0  0  0  0  0  0  0  0
  -24.1558    2.9961   25.6941 C   0  0  0  0  0  0  0  0  0  0  0  0
  -22.7537   -0.4196   29.5010 C   0  0  0  0  0  0  0  0  0  0  0  0
  -23.1864   -1.0344   30.7830 C   0  0  0  0  0  0  0  0  0  0  0  0
  -23.2149   -0.1359   31.8546 C   0  0  0  0  0  0  0  0  0  0  0  0
  -24.0785    1.0131   31.6689 C   0  0  0  0  0  0  0  0  0  0  0  0
  -24.9295    1.4176   32.5176 N   0  0  0  0  0  0  0  0  0  0  0  0
  -25.5228    2.6575   32.4180 C   0  0  0  0  0  0  0  0  0  0  0  0
  -24.8860    3.5060   31.9773 C   0  0  0  0  0  0  0  0  0  0  0  0
  1  2  2  3
  2  3  1  0
  3  4  1  0
  4  5  1  0
  5  6  1  0
  2  7  1  0
  6  7  1  0
  1  8  1  0
  8  9  1  0
  5 10  1  0
 10 11  2  3
 10 12  1  0
 12 13  1  0
  9 14  1  0
  8 15  2  0
  9 16  1  0
  4 17  1  0
 17 18  1  0
 17 19  2  0
 11 20  1  0
 13 21  1  0
 21 22  1  0
 22 23  1  0
 23 24  1  0
 24 25  1  0
 25 26  1  0
 26 27  1  0
M  END

$$$$
