No_1849-gen_results/8p0m/2024-11-26-14-13-15/
     RDKit          3D

  8  7  0  0  0  0  0  0  0  0999 V2000
  -28.1493   -0.8198   28.9079 Cl  0  0  0  0  0  0  0  0  0  0  0  0
  -27.8339    0.4961   29.0598 C   0  0  0  0  0  0  0  0  0  0  0  0
  -27.7903    1.1418   28.0451 F   0  0  0  0  0  0  0  0  0  0  0  0
  -27.4491    1.1313   30.2750 C   0  0  0  0  0  0  0  0  0  0  0  0
  -26.6183    1.8255   30.5383 C   0  0  0  0  0  0  0  0  0  0  0  0
  -26.2821    2.5329   31.8156 C   0  0  0  0  0  0  0  0  0  0  0  0
  -26.9991    2.0601   32.9073 C   0  0  0  0  0  0  0  0  0  0  0  0
  -27.9766    1.1120   32.6844 C   0  0  0  0  0  0  0  0  0  0  0  0
  1  2  1  0
  2  3  1  0
  2  4  1  0
  4  5  2  3
  5  6  1  0
  6  7  2  3
  7  8  1  0
M  END

$$$$
