No_1396-gen_results/8p0m/2024-11-26-14-13-15/
     RDKit          3D

 32 35  0  0  0  0  0  0  0  0999 V2000
  -28.0162   -0.8135   28.8779 C   0  0  0  0  0  0  0  0  0  0  0  0
  -27.0636   -0.1189   28.6079 C   0  0  0  0  0  0  0  0  0  0  0  0
  -25.7923   -0.4302   29.0761 C   0  0  0  0  0  0  0  0  0  0  0  0
  -24.5456    0.3494   28.8225 C   0  0  0  0  0  0  0  0  0  0  0  0
  -23.2409    0.0217   29.3323 C   0  0  0  0  0  0  0  0  0  0  0  0
  -27.8820   -1.8995   29.8633 C   0  0  0  0  0  0  0  0  0  0  0  0
  -26.6526   -2.3142   30.3138 C   0  0  0  0  0  0  0  0  0  0  0  0
  -25.5153   -1.5607   29.9787 C   0  0  0  0  0  0  0  0  0  0  0  0
  -22.1588    0.7866   28.9507 C   0  0  0  0  0  0  0  0  0  0  0  0
  -22.1309    1.7439   27.9818 C   0  0  0  0  0  0  0  0  0  0  0  0
  -24.5165    1.3706   27.7930 C   0  0  0  0  0  0  0  0  0  0  0  0
  -23.3378    2.0353   27.4273 C   0  0  0  0  0  0  0  0  0  0  0  0
  -28.9664   -2.6590   30.2365 O   0  0  0  0  0  0  0  0  0  0  0  0
  -30.1186   -2.0673   30.6076 C   0  0  0  0  0  0  0  0  0  0  0  0
  -31.1791   -2.7102   30.1126 C   0  0  0  0  0  0  0  0  0  0  0  0
  -32.4929   -2.1205   30.2343 C   0  0  0  0  0  0  0  0  0  0  0  0
  -32.5720   -0.9246   31.0182 C   0  0  0  0  0  0  0  0  0  0  0  0
  -31.4490   -0.3737   31.5413 C   0  0  0  0  0  0  0  0  0  0  0  0
  -30.1724   -0.8994   31.3205 C   0  0  0  0  0  0  0  0  0  0  0  0
  -31.5365    0.8904   32.3670 C   0  0  0  0  0  0  0  0  0  0  0  0
  -32.4257    1.3152   32.9061 O   0  0  0  0  0  0  0  0  0  0  0  0
  -30.2625    1.3011   32.7212 O   0  0  0  0  0  0  0  0  0  0  0  0
  -33.6407   -2.7777   29.7446 C   0  0  0  0  0  0  0  0  0  0  0  0
  -34.6216   -2.9633   30.0355 O   0  0  0  0  0  0  0  0  0  0  0  0
  -33.2717   -3.5310   28.4791 N   0  0  0  0  0  0  0  0  0  0  0  0
  -34.2176   -4.2444   27.7418 C   0  0  0  0  0  0  0  0  0  0  0  0
  -34.4464   -4.2064   26.7044 C   0  0  0  0  0  0  0  0  0  0  0  0
  -35.3508   -5.0657   25.8567 C   0  0  0  0  0  0  0  0  0  0  0  0
  -36.0749   -6.0018   26.5970 C   0  0  0  0  0  0  0  0  0  0  0  0
  -35.8649   -6.0461   27.9532 C   0  0  0  0  0  0  0  0  0  0  0  0
  -34.9258   -5.2685   28.6318 C   0  0  0  0  0  0  0  0  0  0  0  0
  -36.7430   -7.2273   28.8283 Cl  0  0  0  0  0  0  0  0  0  0  0  0
  3  4  1  0
  6 13  1  0
 13 14  1  0
 18 20  1  0
 20 21  2  0
 20 22  1  0
 16 23  1  0
 23 24  2  0
 23 25  1  0
 25 26  1  0
 30 32  1  0
 26 27  2  0
 27 28  1  0
 28 29  2  0
 29 30  1  0
 30 31  2  0
 31 26  1  0
 14 15  2  0
 15 16  1  0
 16 17  2  0
 17 18  1  0
 18 19  2  0
 19 14  1  0
  1  2  2  0
  2  3  1  0
  3  8  2  0
  8  7  1  0
  7  6  2  0
  6  1  1  0
  4  5  2  0
  5  9  1  0
  9 10  2  0
 10 12  1  0
 12 11  2  0
 11  4  1  0
M  END

$$$$
