No_1532-gen_results/8p0m/2024-11-26-14-13-15/
     RDKit          3D

 13 14  0  0  0  0  0  0  0  0999 V2000
  -28.0162   -0.8135   28.8779 C   0  0  0  0  0  0  0  0  0  0  0  0
  -27.0636   -0.1190   28.6079 C   0  0  0  0  0  0  0  0  0  0  0  0
  -27.0010    0.6913   27.4910 C   0  0  0  0  0  0  0  0  0  0  0  0
  -28.1373    0.7363   26.6350 C   0  0  0  0  0  0  0  0  0  0  0  0
  -28.1438    1.4323   25.4881 C   0  0  0  0  0  0  0  0  0  0  0  0
  -29.2620   -0.5963   28.2256 C   0  0  0  0  0  0  0  0  0  0  0  0
  -29.2407    0.0992   27.1012 C   0  0  0  0  0  0  0  0  0  0  0  0
  -28.0237   -1.6666   30.1716 C   0  0  0  0  0  0  0  0  0  0  0  0
  -27.0877   -2.4257   30.3627 O   0  0  0  0  0  0  0  0  0  0  0  0
  -29.0155   -1.6875   30.9335 O   0  0  0  0  0  0  0  0  0  0  0  0
  -30.5613    0.0863   26.4613 C   0  0  0  0  0  0  0  0  0  0  0  0
  -30.5728    0.7344   25.1837 N   0  0  0  0  0  0  0  0  0  0  0  0
  -29.4351    1.5304   24.7164 C   0  0  0  0  0  0  0  0  0  0  0  0
  1  8  1  0
  8  9  2  0
  8 10  1  0
  4  5  1  0
  5 13  2  0
 13 12  1  0
 12 11  2  0
 11  7  1  0
  1  2  2  0
  2  3  1  0
  3  4  2  0
  4  7  1  0
  7  6  2  0
  6  1  1  0
M  END

$$$$
