No_1934-gen_results/8p0m/2024-11-26-14-13-15/
     RDKit          3D

 24 26  0  0  0  0  0  0  0  0999 V2000
  -28.0162   -0.8135   28.8779 C   0  0  0  0  0  0  0  0  0  0  0  0
  -27.0636   -0.1190   28.6079 C   0  0  0  0  0  0  0  0  0  0  0  0
  -26.9716    0.7139   27.5060 C   0  0  0  0  0  0  0  0  0  0  0  0
  -28.1053    0.7744   26.6421 C   0  0  0  0  0  0  0  0  0  0  0  0
  -29.2008    0.1044   27.0527 C   0  0  0  0  0  0  0  0  0  0  0  0
  -29.2096   -0.6029   28.1853 C   0  0  0  0  0  0  0  0  0  0  0  0
  -30.2808    0.2156   26.2913 F   0  0  0  0  0  0  0  0  0  0  0  0
  -25.8768   -0.2993   29.5884 C   0  0  0  0  0  0  0  0  0  0  0  0
  -25.0248    0.7156   29.8894 C   0  0  0  0  0  0  0  0  0  0  0  0
  -25.2961    1.5796   30.5503 C   0  0  0  0  0  0  0  0  0  0  0  0
  -26.5269    1.7897   31.2800 C   0  0  0  0  0  0  0  0  0  0  0  0
  -26.7677    2.9810   32.0757 C   0  0  0  0  0  0  0  0  0  0  0  0
  -25.8317    3.9905   32.0842 C   0  0  0  0  0  0  0  0  0  0  0  0
  -24.6367    3.9017   31.4180 C   0  0  0  0  0  0  0  0  0  0  0  0
  -24.3198    2.7628   30.7170 C   0  0  0  0  0  0  0  0  0  0  0  0
  -23.6259    0.1653   29.9244 C   0  0  0  0  0  0  0  0  0  0  0  0
  -25.7094   -1.6227   30.0439 C   0  0  0  0  0  0  0  0  0  0  0  0
  -24.4396   -2.1932   29.6285 C   0  0  0  0  0  0  0  0  0  0  0  0
  -23.3170   -1.2441   29.8984 C   0  0  0  0  0  0  0  0  0  0  0  0
  -26.0632    5.1921   32.9969 C   0  0  0  0  0  0  0  0  0  0  0  0
  -26.1647    6.2729   32.6415 O   0  0  0  0  0  0  0  0  0  0  0  0
  -25.7526    4.9288   34.3237 O   0  0  0  0  0  0  0  0  0  0  0  0
  -28.0649    1.5884   25.5762 O   0  0  0  0  0  0  0  0  0  0  0  0
  -27.4138    1.0300   24.6003 C   0  0  0  0  0  0  0  0  0  0  0  0
  5  7  1  0
  2  8  1  0
 13 20  1  0
 20 21  2  0
 20 22  1  0
  4 23  1  0
 23 24  1  0
 10  9  1  0
  1  2  2  0
  2  3  1  0
  3  4  2  0
  4  5  1  0
  5  6  2  0
  6  1  1  0
  8  9  1  0
  9 16  2  0
 16 19  1  0
 19 18  2  0
 18 17  1  0
 17  8  2  0
 10 11  2  0
 11 12  1  0
 12 13  2  0
 13 14  1  0
 14 15  2  0
 15 10  1  0
M  END

$$$$
