No_163-gen_results/8p0m/2024-11-26-14-13-15/
     RDKit          3D

 25 27  0  0  0  0  0  0  0  0999 V2000
  -28.0162   -0.8135   28.8779 C   0  0  0  0  0  0  0  0  0  0  0  0
  -28.4690   -0.7850   29.8287 C   0  0  0  0  0  0  0  0  0  0  0  0
  -27.1356    0.2359   28.5352 C   0  0  0  0  0  0  0  0  0  0  0  0
  -26.8050    1.0509   29.2763 C   0  0  0  0  0  0  0  0  0  0  0  0
  -28.2372    0.1503   30.9300 C   0  0  0  0  0  0  0  0  0  0  0  0
  -27.3522    1.1239   30.6071 C   0  0  0  0  0  0  0  0  0  0  0  0
  -26.5358    0.1657   27.2407 O   0  0  0  0  0  0  0  0  0  0  0  0
  -26.9862    0.7672   26.1889 C   0  0  0  0  0  0  0  0  0  0  0  0
  -26.5882    0.3736   25.0252 C   0  0  0  0  0  0  0  0  0  0  0  0
  -27.4006    2.0379   26.2345 C   0  0  0  0  0  0  0  0  0  0  0  0
  -27.9041    2.6963   25.1221 C   0  0  0  0  0  0  0  0  0  0  0  0
  -27.0960    0.8667   23.8008 C   0  0  0  0  0  0  0  0  0  0  0  0
  -27.6797    2.1580   23.8749 C   0  0  0  0  0  0  0  0  0  0  0  0
  -29.4579   -1.9521   30.3385 C   0  0  0  0  0  0  0  0  0  0  0  0
  -30.0838   -1.8080   31.3780 N   0  0  0  0  0  0  0  0  0  0  0  0
  -29.4278   -2.9933   29.7207 O   0  0  0  0  0  0  0  0  0  0  0  0
  -30.9722   -2.8830   31.9200 C   0  0  0  0  0  0  0  0  0  0  0  0
  -28.5579    4.0364   25.2496 C   0  0  0  0  0  0  0  0  0  0  0  0
  -29.6033    4.0377   26.2993 C   0  0  0  0  0  0  0  0  0  0  0  0
  -30.5957    4.9616   26.1037 C   0  0  0  0  0  0  0  0  0  0  0  0
  -30.2935    2.7524   26.6053 C   0  0  0  0  0  0  0  0  0  0  0  0
  -31.3067    2.5175   26.7573 C   0  0  0  0  0  0  0  0  0  0  0  0
  -31.9679    4.8645   26.5757 C   0  0  0  0  0  0  0  0  0  0  0  0
  -32.3352    3.5712   26.8327 C   0  0  0  0  0  0  0  0  0  0  0  0
  -33.6271    3.3198   27.1781 O   0  0  0  0  0  0  0  0  0  0  0  0
  3  7  1  0
  7  8  1  0
  2 14  1  0
 14 15  1  0
 14 16  2  0
 15 17  1  0
 11 18  1  0
 18 19  1  0
 24 25  1  0
 19 20  2  0
 20 23  1  0
 23 24  2  0
 24 22  1  0
 22 21  2  0
 21 19  1  0
  8  9  2  0
  9 12  1  0
 12 13  2  0
 13 11  1  0
 11 10  2  0
 10  8  1  0
  1  2  2  0
  2  5  1  0
  5  6  2  0
  6  4  1  0
  4  3  2  0
  3  1  1  0
M  END

$$$$
