No_198-gen_results/8p0m/2024-11-26-14-13-15/
     RDKit          3D

 16 17  0  0  0  0  0  0  0  0999 V2000
  -28.0162   -0.8135   28.8779 C   0  0  0  0  0  0  0  0  0  0  0  0
  -27.0636   -0.1189   28.6079 C   0  0  0  0  0  0  0  0  0  0  0  0
  -25.7647   -0.3897   29.0360 C   0  0  0  0  0  0  0  0  0  0  0  0
  -25.5296   -1.5302   29.9014 C   0  0  0  0  0  0  0  0  0  0  0  0
  -26.6577   -2.2915   30.2035 C   0  0  0  0  0  0  0  0  0  0  0  0
  -27.8432   -1.9747   29.7510 C   0  0  0  0  0  0  0  0  0  0  0  0
  -24.5451    0.4095   28.7440 C   0  0  0  0  0  0  0  0  0  0  0  0
  -24.4773    1.1989   27.7085 C   0  0  0  0  0  0  0  0  0  0  0  0
  -23.2689    1.9096   27.3924 C   0  0  0  0  0  0  0  0  0  0  0  0
  -22.1028    1.7113   28.0514 C   0  0  0  0  0  0  0  0  0  0  0  0
  -23.3095    0.1707   29.4784 C   0  0  0  0  0  0  0  0  0  0  0  0
  -22.1063    0.8383   29.1121 C   0  0  0  0  0  0  0  0  0  0  0  0
  -29.0001   -2.8150   30.1761 C   0  0  0  0  0  0  0  0  0  0  0  0
  -28.8083   -4.0414   29.9124 F   0  0  0  0  0  0  0  0  0  0  0  0
  -29.1396   -2.6773   31.5497 F   0  0  0  0  0  0  0  0  0  0  0  0
  -30.1245   -2.4843   29.6645 F   0  0  0  0  0  0  0  0  0  0  0  0
  3  7  1  0
  6 13  1  0
 13 14  1  0
 13 15  1  0
 13 16  1  0
  7  8  2  0
  8  9  1  0
  9 10  2  0
 10 12  1  0
 12 11  2  0
 11  7  1  0
  1  2  2  0
  2  3  1  0
  3  4  2  0
  4  5  1  0
  5  6  2  0
  6  1  1  0
M  END

$$$$
