No_1753-gen_results/8p0m/2024-11-26-14-13-15/
     RDKit          3D

 15 16  0  0  0  0  0  0  0  0999 V2000
  -28.0162   -0.8135   28.8779 C   0  0  0  0  0  0  0  0  0  0  0  0
  -27.0636   -0.1189   28.6079 C   0  0  0  0  0  0  0  0  0  0  0  0
  -26.8756    1.1325   28.9134 C   0  0  0  0  0  0  0  0  0  0  0  0
  -25.6883    1.9515   28.5672 C   0  0  0  0  0  0  0  0  0  0  0  0
  -24.6394    1.2834   27.8753 C   0  0  0  0  0  0  0  0  0  0  0  0
  -24.8068   -0.0513   27.6040 C   0  0  0  0  0  0  0  0  0  0  0  0
  -25.9019   -0.7670   27.9511 C   0  0  0  0  0  0  0  0  0  0  0  0
  -28.0611   -1.4288   30.2827 C   0  0  0  0  0  0  0  0  0  0  0  0
  -28.9549   -2.3242   30.5042 O   0  0  0  0  0  0  0  0  0  0  0  0
  -27.1823   -1.1701   31.1151 O   0  0  0  0  0  0  0  0  0  0  0  0
  -23.4155    1.9705   27.5080 C   0  0  0  0  0  0  0  0  0  0  0  0
  -23.0631    2.6919   26.7011 N   0  0  0  0  0  0  0  0  0  0  0  0
  -22.1690    1.5774   28.3845 C   0  0  0  0  0  0  0  0  0  0  0  0
  -21.1348    2.1471   27.6182 N   0  0  0  0  0  0  0  0  0  0  0  0
  -21.6974    2.6089   26.5177 C   0  0  0  0  0  0  0  0  0  0  0  0
  1  2  2  3
  2  3  1  0
  3  4  1  0
  4  5  1  0
  5  6  1  0
  2  7  1  0
  6  7  1  0
  1  8  1  0
  8  9  2  0
  8 10  1  0
  5 11  1  0
 11 12  2  0
 11 13  1  0
 13 14  2  0
 12 15  1  0
 14 15  1  0
M  END

$$$$
