No_1758-gen_results/8p0m/2024-11-26-14-13-15/
     RDKit          3D

 13 13  0  0  0  0  0  0  0  0999 V2000
  -28.0162   -0.8135   28.8779 C   0  0  0  0  0  0  0  0  0  0  0  0
  -28.4690   -0.7850   29.8287 C   0  0  0  0  0  0  0  0  0  0  0  0
  -26.5455   -0.8762   28.8500 C   0  0  0  0  0  0  0  0  0  0  0  0
  -25.8041   -1.0324   30.0571 C   0  0  0  0  0  0  0  0  0  0  0  0
  -26.5373   -1.0386   31.2171 C   0  0  0  0  0  0  0  0  0  0  0  0
  -27.8929   -0.9601   31.1743 C   0  0  0  0  0  0  0  0  0  0  0  0
  -25.8272   -0.8507   27.7418 F   0  0  0  0  0  0  0  0  0  0  0  0
  -28.6209   -0.9354   32.3468 O   0  0  0  0  0  0  0  0  0  0  0  0
  -29.3026   -1.9617   32.7088 C   0  0  0  0  0  0  0  0  0  0  0  0
  -24.3745   -1.3075   30.1357 C   0  0  0  0  0  0  0  0  0  0  0  0
  -23.5275   -1.1127   30.7579 C   0  0  0  0  0  0  0  0  0  0  0  0
  -23.8448   -0.1456   31.9305 C   0  0  0  0  0  0  0  0  0  0  0  0
  -23.9811   -1.8126   28.8493 C   0  0  0  0  0  0  0  0  0  0  0  0
  3  7  1  0
  6  8  1  0
  8  9  1  0
  4 10  1  0
 10 11  2  3
 11 12  1  0
 10 13  1  0
  1  2  2  0
  2  6  1  0
  6  5  2  0
  5  4  1  0
  4  3  2  0
  3  1  1  0
M  END

$$$$
