No_1925-gen_results/8p0m/2024-11-26-14-13-15/
     RDKit          3D

 19 21  0  0  0  0  0  0  0  0999 V2000
  -28.0162   -0.8135   28.8779 C   0  0  0  0  0  0  0  0  0  0  0  0
  -27.0636   -0.1189   28.6079 C   0  0  0  0  0  0  0  0  0  0  0  0
  -27.0010    0.6913   27.4910 C   0  0  0  0  0  0  0  0  0  0  0  0
  -25.8548    1.4825   27.0830 C   0  0  0  0  0  0  0  0  0  0  0  0
  -24.6901    1.4526   27.8807 C   0  0  0  0  0  0  0  0  0  0  0  0
  -23.4878    2.1451   27.6011 C   0  0  0  0  0  0  0  0  0  0  0  0
  -25.8122   -0.1656   29.4299 C   0  0  0  0  0  0  0  0  0  0  0  0
  -24.6457    0.5887   29.0806 C   0  0  0  0  0  0  0  0  0  0  0  0
  -27.9820   -1.4624   30.2355 C   0  0  0  0  0  0  0  0  0  0  0  0
  -26.8349   -1.6118   30.9888 C   0  0  0  0  0  0  0  0  0  0  0  0
  -25.7326   -0.9095   30.6150 C   0  0  0  0  0  0  0  0  0  0  0  0
  -23.5074    3.0465   26.6349 N   0  0  0  0  0  0  0  0  0  0  0  0
  -22.2293    1.8722   28.1774 C   0  0  0  0  0  0  0  0  0  0  0  0
  -21.1378    2.2513   27.4853 O   0  0  0  0  0  0  0  0  0  0  0  0
  -22.1350    1.3115   29.3734 N   0  0  0  0  0  0  0  0  0  0  0  0
  -23.3607    0.5356   29.8059 C   0  0  0  0  0  0  0  0  0  0  0  0
  -28.1678    0.7851   26.5772 C   0  0  0  0  0  0  0  0  0  0  0  0
  -29.1966    1.1945   26.8977 O   0  0  0  0  0  0  0  0  0  0  0  0
  -27.9721    0.3444   25.3455 O   0  0  0  0  0  0  0  0  0  0  0  0
  5  6  1  0
  6 12  2  0
  6 13  1  0
 13 14  2  0
 13 15  1  0
  8 16  1  0
 15 16  1  0
  3 17  1  0
 17 18  1  0
 17 19  2  0
  1  2  2  0
  7 11  2  0
 11 10  1  0
 10  9  2  0
  9  1  1  0
  2  3  1  0
  3  4  2  0
  4  5  1  0
  5  8  2  0
  8  7  1  0
  7  2  1  0
M  END

$$$$
