No_1170-gen_results/8p0m/2024-11-26-14-13-15/
     RDKit          3D

 20 22  0  0  0  0  0  0  0  0999 V2000
  -28.0162   -0.8135   28.8779 C   0  0  0  0  0  0  0  0  0  0  0  0
  -28.4690   -0.7850   29.8287 C   0  0  0  0  0  0  0  0  0  0  0  0
  -27.0871    0.2903   28.6377 C   0  0  0  0  0  0  0  0  0  0  0  0
  -26.0239    0.3644   29.2526 C   0  0  0  0  0  0  0  0  0  0  0  0
  -26.2460    0.4334   30.7986 C   0  0  0  0  0  0  0  0  0  0  0  0
  -29.5736   -1.6268   30.3318 C   0  0  0  0  0  0  0  0  0  0  0  0
  -27.2659    0.3800   31.1362 C   0  0  0  0  0  0  0  0  0  0  0  0
  -28.1744   -0.6720   31.0312 C   0  0  0  0  0  0  0  0  0  0  0  0
  -30.8219   -2.0008   29.1846 Br  0  0  0  0  0  0  0  0  0  0  0  0
  -29.3147   -2.7702   31.2207 O   0  0  0  0  0  0  0  0  0  0  0  0
  -28.9076   -1.3744   32.1799 C   0  0  0  0  0  0  0  0  0  0  0  0
  -24.6817    0.7088   28.7021 C   0  0  0  0  0  0  0  0  0  0  0  0
  -24.5393    1.4818   27.6950 C   0  0  0  0  0  0  0  0  0  0  0  0
  -25.1199    2.0839   27.0653 C   0  0  0  0  0  0  0  0  0  0  0  0
  -24.6084    2.9829   25.9661 C   0  0  0  0  0  0  0  0  0  0  0  0
  -23.3874    3.0686   25.8547 C   0  0  0  0  0  0  0  0  0  0  0  0
  -22.9362    1.7564   27.4400 C   0  0  0  0  0  0  0  0  0  0  0  0
  -22.4732    2.4993   26.6001 C   0  0  0  0  0  0  0  0  0  0  0  0
  -23.5823   -0.2521   29.2942 C   0  0  0  0  0  0  0  0  0  0  0  0
  -22.6523    0.3022   30.0816 C   0  0  0  0  0  0  0  0  0  0  0  0
  1  2  1  0
  1  3  1  0
  3  4  1  0
  4  5  1  0
  2  6  1  0
  5  7  2  0
  2  8  1  0
  7  8  1  0
  6  9  1  0
  6 10  1  0
  8 11  1  0
 10 11  1  0
  4 12  1  0
 12 13  1  0
 12 19  1  0
 19 20  2  0
 13 14  2  0
 14 15  1  0
 15 16  2  0
 16 18  1  0
 18 17  2  0
 17 13  1  0
M  END

$$$$
