No_1019-gen_results/8p0m/2024-11-26-14-13-15/
     RDKit          3D

 27 30  0  0  0  0  0  0  0  0999 V2000
  -28.0162   -0.8135   28.8779 C   0  0  0  0  0  0  0  0  0  0  0  0
  -28.4690   -0.7850   29.8287 C   0  0  0  0  0  0  0  0  0  0  0  0
  -27.0871    0.2903   28.6377 C   0  0  0  0  0  0  0  0  0  0  0  0
  -26.2516    0.4114   27.4223 C   0  0  0  0  0  0  0  0  0  0  0  0
  -28.3913    0.1041   30.9805 C   0  0  0  0  0  0  0  0  0  0  0  0
  -27.5332    1.1666   30.7866 C   0  0  0  0  0  0  0  0  0  0  0  0
  -26.8281    1.2557   29.6454 C   0  0  0  0  0  0  0  0  0  0  0  0
  -25.1385    0.6748   27.2307 C   0  0  0  0  0  0  0  0  0  0  0  0
  -24.3158    0.8670   28.4418 C   0  0  0  0  0  0  0  0  0  0  0  0
  -24.4957    1.5112   29.5560 C   0  0  0  0  0  0  0  0  0  0  0  0
  -25.5260    1.8221   30.0101 C   0  0  0  0  0  0  0  0  0  0  0  0
  -22.8840    0.4487   28.2227 C   0  0  0  0  0  0  0  0  0  0  0  0
  -22.3859    0.0033   29.3104 F   0  0  0  0  0  0  0  0  0  0  0  0
  -22.7883   -0.5881   27.3874 F   0  0  0  0  0  0  0  0  0  0  0  0
  -22.1142    1.3903   27.6474 F   0  0  0  0  0  0  0  0  0  0  0  0
  -27.2174    1.2218   26.5148 C   0  0  0  0  0  0  0  0  0  0  0  0
  -27.4877    0.4715   25.3289 C   0  0  0  0  0  0  0  0  0  0  0  0
  -28.5843    0.7910   24.5082 C   0  0  0  0  0  0  0  0  0  0  0  0
  -29.1152   -0.0896   23.6709 C   0  0  0  0  0  0  0  0  0  0  0  0
  -30.4314    0.0621   23.3004 C   0  0  0  0  0  0  0  0  0  0  0  0
  -31.1291    1.2674   23.4737 C   0  0  0  0  0  0  0  0  0  0  0  0
  -30.4894    2.3352   24.1343 C   0  0  0  0  0  0  0  0  0  0  0  0
  -29.1743    2.0835   24.6412 C   0  0  0  0  0  0  0  0  0  0  0  0
  -27.7885    2.4473   26.7610 C   0  0  0  0  0  0  0  0  0  0  0  0
  -28.8887    2.9083   25.9040 C   0  0  0  0  0  0  0  0  0  0  0  0
  -25.6791    3.1560   30.4432 C   0  0  0  0  0  0  0  0  0  0  0  0
  -25.3700    3.3245   31.6145 O   0  0  0  0  0  0  0  0  0  0  0  0
  3  4  1  0
  4  8  2  0
  8  9  1  0
  9 10  2  0
  7 11  1  0
 10 11  1  0
  9 12  1  0
 12 13  1  0
 12 14  1  0
 12 15  1  0
  4 16  1  0
 11 26  1  0
 26 27  2  0
 18 19  2  0
 19 20  1  0
 20 21  2  0
 21 22  1  0
 22 23  2  0
  1  2  2  0
  2  5  1  0
  5  6  2  0
  6  7  1  0
  7  3  2  0
  3  1  1  0
 16 17  2  0
 17 18  1  0
 18 23  1  0
 23 25  1  0
 25 24  2  0
 24 16  1  0
M  END

$$$$
