No_1781-gen_results/8p0m/2024-11-26-14-13-15/
     RDKit          3D

 21 22  0  0  0  0  0  0  0  0999 V2000
  -28.0162   -0.8135   28.8779 C   0  0  0  0  0  0  0  0  0  0  0  0
  -28.4690   -0.7850   29.8287 C   0  0  0  0  0  0  0  0  0  0  0  0
  -28.1816    0.4277   28.1134 C   0  0  0  0  0  0  0  0  0  0  0  0
  -27.4498    0.6435   26.8500 C   0  0  0  0  0  0  0  0  0  0  0  0
  -26.1815    0.0357   26.7145 C   0  0  0  0  0  0  0  0  0  0  0  0
  -25.7800   -0.9326   27.6938 C   0  0  0  0  0  0  0  0  0  0  0  0
  -26.5568   -1.2134   28.7413 C   0  0  0  0  0  0  0  0  0  0  0  0
  -28.3810   -1.9990   30.6547 N   0  0  0  0  0  0  0  0  0  0  0  0
  -29.4468   -0.0838   30.3526 O   0  0  0  0  0  0  0  0  0  0  0  0
  -27.4825   -3.0102   30.3325 C   0  0  0  0  0  0  0  0  0  0  0  0
  -26.1706   -2.5133   29.4590 C   0  0  0  0  0  0  0  0  0  0  0  0
  -29.2576   -2.4483   31.7753 C   0  0  0  0  0  0  0  0  0  0  0  0
  -27.7643    1.6500   25.8765 C   0  0  0  0  0  0  0  0  0  0  0  0
  -27.2801    2.8753   26.2561 C   0  0  0  0  0  0  0  0  0  0  0  0
  -28.6066    1.3704   24.8352 C   0  0  0  0  0  0  0  0  0  0  0  0
  -29.9480    1.2207   25.0884 C   0  0  0  0  0  0  0  0  0  0  0  0
  -30.5438    1.5533   26.1257 C   0  0  0  0  0  0  0  0  0  0  0  0
  -31.7018    1.6449   26.5044 C   0  0  0  0  0  0  0  0  0  0  0  0
  -32.2227    2.0720   27.7720 C   0  0  0  0  0  0  0  0  0  0  0  0
  -31.2911    2.5253   28.7169 C   0  0  0  0  0  0  0  0  0  0  0  0
  -29.9836    2.6830   28.3630 C   0  0  0  0  0  0  0  0  0  0  0  0
  1  2  1  0
  2  8  1  0
  2  9  2  0
  8 10  1  0
  7 11  1  0
 10 11  1  0
  8 12  1  0
  4 13  1  0
 13 14  1  0
 13 15  1  0
 15 16  1  0
 16 17  2  3
 17 18  1  0
 18 19  2  3
 19 20  1  0
 20 21  2  0
  1  3  2  0
  3  4  1  0
  4  5  2  0
  5  6  1  0
  6  7  2  0
  7  1  1  0
M  END

$$$$
