No_185-gen_results/8p0m/2024-11-26-14-13-15/
     RDKit          3D

 15 17  0  0  0  0  0  0  0  0999 V2000
  -28.0162   -0.8135   28.8779 C   0  0  0  0  0  0  0  0  0  0  0  0
  -28.4690   -0.7850   29.8287 C   0  0  0  0  0  0  0  0  0  0  0  0
  -26.5042   -0.7777   28.8766 C   0  0  0  0  0  0  0  0  0  0  0  0
  -25.8103   -0.8531   30.1028 C   0  0  0  0  0  0  0  0  0  0  0  0
  -30.0136   -0.8410   29.8508 C   0  0  0  0  0  0  0  0  0  0  0  0
  -26.5670   -0.8850   31.2517 C   0  0  0  0  0  0  0  0  0  0  0  0
  -27.9411   -0.9069   31.1850 C   0  0  0  0  0  0  0  0  0  0  0  0
  -30.6563   -1.6921   30.1809 O   0  0  0  0  0  0  0  0  0  0  0  0
  -30.5701    0.1290   28.9124 N   0  0  0  0  0  0  0  0  0  0  0  0
  -31.5619    0.3552   28.6088 C   0  0  0  0  0  0  0  0  0  0  0  0
  -31.8531    1.0096   27.5368 C   0  0  0  0  0  0  0  0  0  0  0  0
  -30.7898    1.6490   26.8185 C   0  0  0  0  0  0  0  0  0  0  0  0
  -29.5041    1.4389   27.1736 C   0  0  0  0  0  0  0  0  0  0  0  0
  -29.3295    0.6182   28.1869 C   0  0  0  0  0  0  0  0  0  0  0  0
  -28.5275   -0.2230   27.7923 O   0  0  0  0  0  0  0  0  0  0  0  0
  2  5  1  0
  5  8  2  0
  5  9  1  0
  9 10  1  0
 11 12  1  0
  9 14  1  0
 13 14  1  0
  1 15  1  0
 14 15  1  0
 10 11  1  0
 12 13  1  0
  1  2  2  0
  2  7  1  0
  7  6  2  0
  6  4  1  0
  4  3  2  0
  3  1  1  0
M  END

$$$$
