No_1668-gen_results/8p0m/2024-11-26-14-13-15/
     RDKit          3D

 16 17  0  0  0  0  0  0  0  0999 V2000
  -28.0162   -0.8135   28.8779 C   0  0  0  0  0  0  0  0  0  0  0  0
  -28.4690   -0.7850   29.8287 C   0  0  0  0  0  0  0  0  0  0  0  0
  -28.1816    0.4277   28.1134 C   0  0  0  0  0  0  0  0  0  0  0  0
  -28.9841    1.4155   28.5154 C   0  0  0  0  0  0  0  0  0  0  0  0
  -28.3375   -2.0481   30.7873 C   0  0  0  0  0  0  0  0  0  0  0  0
  -29.5615    1.2930   29.7416 C   0  0  0  0  0  0  0  0  0  0  0  0
  -29.3196    0.1647   30.4451 C   0  0  0  0  0  0  0  0  0  0  0  0
  -28.9433   -3.0348   30.7309 O   0  0  0  0  0  0  0  0  0  0  0  0
  -27.2195   -2.0572   31.5946 O   0  0  0  0  0  0  0  0  0  0  0  0
  -27.4470    0.4995   26.7471 C   0  0  0  0  0  0  0  0  0  0  0  0
  -26.4012    0.9584   26.6137 C   0  0  0  0  0  0  0  0  0  0  0  0
  -25.5368    1.4917   27.7059 C   0  0  0  0  0  0  0  0  0  0  0  0
  -24.2160    1.9463   27.4472 C   0  0  0  0  0  0  0  0  0  0  0  0
  -23.8608    2.1136   26.0752 C   0  0  0  0  0  0  0  0  0  0  0  0
  -24.5687    1.6505   25.0743 C   0  0  0  0  0  0  0  0  0  0  0  0
  -25.7998    1.0714   25.3307 C   0  0  0  0  0  0  0  0  0  0  0  0
  2  5  1  0
  5  8  2  0
  5  9  1  0
  3 10  1  0
 10 11  1  0
 11 12  2  0
 12 13  1  0
 13 14  2  0
 14 15  1  0
 15 16  2  0
 16 11  1  0
  1  2  2  0
  2  7  1  0
  7  6  2  0
  6  4  1  0
  4  3  2  0
  3  1  1  0
M  END

$$$$
