No_1740-gen_results/8p0m/2024-11-26-14-13-15/
     RDKit          3D

 17 19  0  0  0  0  0  0  0  0999 V2000
  -28.0162   -0.8135   28.8779 C   0  0  0  0  0  0  0  0  0  0  0  0
  -27.0636   -0.1189   28.6079 C   0  0  0  0  0  0  0  0  0  0  0  0
  -26.9716    0.7139   27.5060 C   0  0  0  0  0  0  0  0  0  0  0  0
  -28.1053    0.7744   26.6421 C   0  0  0  0  0  0  0  0  0  0  0  0
  -29.2041    0.1179   27.0477 C   0  0  0  0  0  0  0  0  0  0  0  0
  -29.2127   -0.6088   28.1281 C   0  0  0  0  0  0  0  0  0  0  0  0
  -30.3709    0.2326   26.1381 C   0  0  0  0  0  0  0  0  0  0  0  0
  -30.9633    1.2270   26.0808 O   0  0  0  0  0  0  0  0  0  0  0  0
  -30.6998   -0.8629   25.4650 O   0  0  0  0  0  0  0  0  0  0  0  0
  -25.6699    1.4159   27.1307 C   0  0  0  0  0  0  0  0  0  0  0  0
  -24.5300    1.0575   27.7170 C   0  0  0  0  0  0  0  0  0  0  0  0
  -23.3113    1.8153   27.3581 C   0  0  0  0  0  0  0  0  0  0  0  0
  -22.0799    1.5908   28.0259 C   0  0  0  0  0  0  0  0  0  0  0  0
  -21.9930    0.5601   28.9741 C   0  0  0  0  0  0  0  0  0  0  0  0
  -23.1072   -0.2427   29.3090 C   0  0  0  0  0  0  0  0  0  0  0  0
  -24.3000    0.0246   28.6589 C   0  0  0  0  0  0  0  0  0  0  0  0
  -25.6571   -0.4336   29.3066 C   0  0  0  0  0  0  0  0  0  0  0  0
  5  7  1  0
  7  8  2  0
  7  9  1  0
 11 12  1  0
 12 13  2  0
 13 14  1  0
 14 15  2  0
 15 16  1  0
  1  2  2  0
  3  4  2  0
  4  5  1  0
  5  6  2  0
  6  1  1  0
  2  3  1  0
  3 10  1  0
 10 11  2  0
 11 16  1  0
 16 17  2  0
 17  2  1  0
M  END

$$$$
