No_161-gen_results/8p0m/2024-11-26-14-13-15/
     RDKit          3D

 30 32  0  0  0  0  0  0  0  0999 V2000
  -28.0162   -0.8135   28.8779 C   0  0  0  0  0  0  0  0  0  0  0  0
  -28.4690   -0.7850   29.8287 C   0  0  0  0  0  0  0  0  0  0  0  0
  -28.1960    0.3478   28.0550 C   0  0  0  0  0  0  0  0  0  0  0  0
  -29.0191    1.3501   28.3782 C   0  0  0  0  0  0  0  0  0  0  0  0
  -29.4107    0.1803   30.3782 C   0  0  0  0  0  0  0  0  0  0  0  0
  -29.6059    1.2495   29.6193 C   0  0  0  0  0  0  0  0  0  0  0  0
  -27.4597    0.3802   26.7091 C   0  0  0  0  0  0  0  0  0  0  0  0
  -27.9298    0.5836   25.6804 C   0  0  0  0  0  0  0  0  0  0  0  0
  -27.1251    0.5285   24.4261 C   0  0  0  0  0  0  0  0  0  0  0  0
  -26.0345    0.1369   26.7811 C   0  0  0  0  0  0  0  0  0  0  0  0
  -25.1681    0.2141   25.7256 C   0  0  0  0  0  0  0  0  0  0  0  0
  -25.7623    0.3526   24.5243 C   0  0  0  0  0  0  0  0  0  0  0  0
  -29.3652    0.7464   25.3554 C   0  0  0  0  0  0  0  0  0  0  0  0
  -30.2397    0.1672   25.8837 C   0  0  0  0  0  0  0  0  0  0  0  0
  -31.6524    0.2858   25.6535 C   0  0  0  0  0  0  0  0  0  0  0  0
  -29.7386    1.7812   24.4471 C   0  0  0  0  0  0  0  0  0  0  0  0
  -31.0919    2.0366   24.1273 C   0  0  0  0  0  0  0  0  0  0  0  0
  -32.0205    1.2982   24.7726 C   0  0  0  0  0  0  0  0  0  0  0  0
  -32.6118   -0.4014   26.3202 O   0  0  0  0  0  0  0  0  0  0  0  0
  -32.4422   -1.6568   26.6172 C   0  0  0  0  0  0  0  0  0  0  0  0
  -30.5990    2.3458   30.0413 C   0  0  0  0  0  0  0  0  0  0  0  0
  -31.6113    2.5933   29.3565 O   0  0  0  0  0  0  0  0  0  0  0  0
  -30.4579    2.8758   31.2672 O   0  0  0  0  0  0  0  0  0  0  0  0
  -32.5302   -1.9906   27.9909 C   0  0  0  0  0  0  0  0  0  0  0  0
  -31.9433   -3.0922   28.3863 O   0  0  0  0  0  0  0  0  0  0  0  0
  -32.9852   -1.1858   28.8126 O   0  0  0  0  0  0  0  0  0  0  0  0
  -32.2820   -2.4785   25.7453 O   0  0  0  0  0  0  0  0  0  0  0  0
  -28.3754   -2.0269   30.8653 C   0  0  0  0  0  0  0  0  0  0  0  0
  -28.1775   -3.1336   30.4171 O   0  0  0  0  0  0  0  0  0  0  0  0
  -28.7665   -1.8397   32.0858 O   0  0  0  0  0  0  0  0  0  0  0  0
  3  7  1  0
  8 13  1  0
 15 19  1  0
 19 20  1  0
  6 21  1  0
 21 22  2  0
 21 23  1  0
 20 24  1  0
 24 25  1  0
 24 26  2  0
 20 27  2  0
  2 28  1  0
 28 29  2  0
 28 30  1  0
 13 14  2  0
 14 15  1  0
 15 18  2  0
 18 17  1  0
 17 16  2  0
 16 13  1  0
  1  2  2  0
  2  5  1  0
  5  6  2  0
  6  4  1  0
  4  3  2  0
  3  1  1  0
  7  8  1  0
  8  9  2  0
  9 12  1  0
 12 11  2  0
 11 10  1  0
 10  7  2  0
M  END

$$$$
