No_1962-gen_results/8p0m/2024-11-26-14-13-15/
     RDKit          3D

 17 18  0  0  0  0  0  0  0  0999 V2000
  -28.0162   -0.8135   28.8779 C   0  0  0  0  0  0  0  0  0  0  0  0
  -28.4690   -0.7850   29.8287 C   0  0  0  0  0  0  0  0  0  0  0  0
  -27.0871    0.2903   28.6377 C   0  0  0  0  0  0  0  0  0  0  0  0
  -26.2516    0.4114   27.4223 C   0  0  0  0  0  0  0  0  0  0  0  0
  -28.3141   -0.1267   30.7102 C   0  0  0  0  0  0  0  0  0  0  0  0
  -27.4825    1.0076   30.8097 C   0  0  0  0  0  0  0  0  0  0  0  0
  -26.7770    1.1718   29.6871 C   0  0  0  0  0  0  0  0  0  0  0  0
  -25.0454    0.2584   27.5853 N   0  0  0  0  0  0  0  0  0  0  0  0
  -24.0868    1.1603   27.0311 C   0  0  0  0  0  0  0  0  0  0  0  0
  -22.7254    1.1273   27.5607 C   0  0  0  0  0  0  0  0  0  0  0  0
  -22.4078    0.0981   28.4594 C   0  0  0  0  0  0  0  0  0  0  0  0
  -23.3722   -0.7894   28.9243 C   0  0  0  0  0  0  0  0  0  0  0  0
  -24.6199   -0.7067   28.5125 C   0  0  0  0  0  0  0  0  0  0  0  0
  -26.8667    0.5914   26.1640 C   0  0  0  0  0  0  0  0  0  0  0  0
  -25.7065    2.4470   29.5201 Cl  0  0  0  0  0  0  0  0  0  0  0  0
  -24.4092    2.1947   26.1433 C   0  0  0  0  0  0  0  0  0  0  0  0
  -27.7760    0.2446   25.8275 C   0  0  0  0  0  0  0  0  0  0  0  0
  3  4  1  0
  4  8  1  0
  8  9  1  0
 10 11  1  0
  8 13  1  0
 12 13  1  0
  4 14  1  0
  7 15  1  0
  9 16  1  0
 14 17  2  0
  9 10  1  0
 11 12  1  0
  1  2  2  0
  2  5  1  0
  5  6  2  0
  6  7  1  0
  7  3  2  0
  3  1  1  0
M  END

$$$$
