No_1287-gen_results/8p0m/2024-11-26-14-13-15/
     RDKit          3D

 21 24  0  0  0  0  0  0  0  0999 V2000
  -28.0162   -0.8135   28.8779 C   0  0  0  0  0  0  0  0  0  0  0  0
  -27.0636   -0.1189   28.6079 C   0  0  0  0  0  0  0  0  0  0  0  0
  -25.7923   -0.4302   29.0761 C   0  0  0  0  0  0  0  0  0  0  0  0
  -24.5456    0.3494   28.8225 C   0  0  0  0  0  0  0  0  0  0  0  0
  -24.6586    1.4196   27.8878 C   0  0  0  0  0  0  0  0  0  0  0  0
  -25.9471    1.6811   27.3792 C   0  0  0  0  0  0  0  0  0  0  0  0
  -27.0439    0.9739   27.6871 C   0  0  0  0  0  0  0  0  0  0  0  0
  -29.1882   -0.1472   29.0918 N   0  0  0  0  0  0  0  0  0  0  0  0
  -30.2017   -0.7833   29.7303 C   0  0  0  0  0  0  0  0  0  0  0  0
  -23.4507    2.1524   27.6005 C   0  0  0  0  0  0  0  0  0  0  0  0
  -22.2617    1.7464   28.0912 N   0  0  0  0  0  0  0  0  0  0  0  0
  -23.4953    3.0279   26.6797 O   0  0  0  0  0  0  0  0  0  0  0  0
  -29.9356   -1.9807   30.3446 C   0  0  0  0  0  0  0  0  0  0  0  0
  -28.6819   -2.5800   30.3326 C   0  0  0  0  0  0  0  0  0  0  0  0
  -27.6822   -1.9035   29.7855 C   0  0  0  0  0  0  0  0  0  0  0  0
  -26.3774   -2.2591   29.9312 N   0  0  0  0  0  0  0  0  0  0  0  0
  -25.4962   -1.5591   29.8466 C   0  0  0  0  0  0  0  0  0  0  0  0
  -31.3772   -0.3258   29.6266 O   0  0  0  0  0  0  0  0  0  0  0  0
  -24.3008   -1.9445   30.1119 O   0  0  0  0  0  0  0  0  0  0  0  0
  -22.0388    0.7853   28.9845 C   0  0  0  0  0  0  0  0  0  0  0  0
  -23.2637    0.0146   29.3053 C   0  0  0  0  0  0  0  0  0  0  0  0
  1  2  1  0
  1  8  1  0
  8  9  1  0
  5 10  1  0
 10 11  1  0
 10 12  2  0
  9 13  1  0
  1 15  1  0
 14 15  1  0
  3 17  1  0
 16 17  1  0
  9 18  2  0
 17 19  2  0
 11 20  1  0
  4 21  1  0
 15 16  1  0
 21 20  1  0
 14 13  1  0
  2  7  1  0
  7  6  2  0
  6  5  1  0
  5  4  2  0
  4  3  1  0
  3  2  2  0
M  END

$$$$
