No_1639-gen_results/8p0m/2024-11-26-14-13-15/
     RDKit          3D

 22 24  0  0  0  0  0  0  0  0999 V2000
  -28.0162   -0.8135   28.8779 C   0  0  0  0  0  0  0  0  0  0  0  0
  -27.0636   -0.1190   28.6079 C   0  0  0  0  0  0  0  0  0  0  0  0
  -25.7923   -0.4302   29.0761 C   0  0  0  0  0  0  0  0  0  0  0  0
  -25.5681   -1.2411   29.7572 C   0  0  0  0  0  0  0  0  0  0  0  0
  -26.6114   -2.1840   30.2439 C   0  0  0  0  0  0  0  0  0  0  0  0
  -27.8191   -1.9189   29.8034 C   0  0  0  0  0  0  0  0  0  0  0  0
  -28.8528   -2.7193   30.2109 O   0  0  0  0  0  0  0  0  0  0  0  0
  -29.1753   -2.8477   31.5232 C   0  0  0  0  0  0  0  0  0  0  0  0
  -29.8608   -1.8299   32.0483 C   0  0  0  0  0  0  0  0  0  0  0  0
  -30.5908   -0.8878   31.1844 Cl  0  0  0  0  0  0  0  0  0  0  0  0
  -28.9650   -0.9890   32.8157 O   0  0  0  0  0  0  0  0  0  0  0  0
  -27.2437    1.0360   27.6130 C   0  0  0  0  0  0  0  0  0  0  0  0
  -28.2230    1.3344   27.2711 O   0  0  0  0  0  0  0  0  0  0  0  0
  -26.1125    1.6808   27.1693 N   0  0  0  0  0  0  0  0  0  0  0  0
  -26.2111    2.7469   26.1891 C   0  0  0  0  0  0  0  0  0  0  0  0
  -24.9386    3.3227   25.9912 C   0  0  0  0  0  0  0  0  0  0  0  0
  -23.6969    2.5654   26.2043 C   0  0  0  0  0  0  0  0  0  0  0  0
  -23.7707    1.4993   27.0969 C   0  0  0  0  0  0  0  0  0  0  0  0
  -24.8707    1.0997   27.4870 C   0  0  0  0  0  0  0  0  0  0  0  0
  -24.6919    0.2716   28.4310 C   0  0  0  0  0  0  0  0  0  0  0  0
  -29.0851   -4.2515   32.0201 C   0  0  0  0  0  0  0  0  0  0  0  0
  -28.8837   -5.2137   31.3355 O   0  0  0  0  0  0  0  0  0  0  0  0
  6  7  1  0
  7  8  1  0
  8  9  1  0
  9 10  1  0
  9 11  1  0
  2 12  1  0
 12 13  2  0
 12 14  1  0
 14 15  1  0
 16 17  1  0
 14 19  1  0
 18 19  1  0
  3 20  1  0
 19 20  1  0
  8 21  1  0
 21 22  2  0
 15 16  1  0
 17 18  1  0
  1  2  2  0
  2  3  1  0
  3  4  2  0
  4  5  1  0
  5  6  2  0
  6  1  1  0
M  END

$$$$
