No_193-gen_results/8p0m/2024-11-26-14-13-15/
     RDKit          3D

 32 35  0  0  0  0  0  0  0  0999 V2000
  -28.0162   -0.8135   28.8779 C   0  0  0  0  0  0  0  0  0  0  0  0
  -28.4690   -0.7850   29.8287 C   0  0  0  0  0  0  0  0  0  0  0  0
  -28.1960    0.3478   28.0550 C   0  0  0  0  0  0  0  0  0  0  0  0
  -29.0191    1.3501   28.3782 C   0  0  0  0  0  0  0  0  0  0  0  0
  -29.4107    0.1803   30.3782 C   0  0  0  0  0  0  0  0  0  0  0  0
  -29.6059    1.2495   29.6193 C   0  0  0  0  0  0  0  0  0  0  0  0
  -27.4597    0.3802   26.7091 C   0  0  0  0  0  0  0  0  0  0  0  0
  -26.0094    0.3317   26.7236 C   0  0  0  0  0  0  0  0  0  0  0  0
  -25.2816    0.9146   25.7613 C   0  0  0  0  0  0  0  0  0  0  0  0
  -23.8913    0.9368   25.8455 C   0  0  0  0  0  0  0  0  0  0  0  0
  -23.3864    1.4021   27.0425 C   0  0  0  0  0  0  0  0  0  0  0  0
  -24.0974    0.8527   28.2256 C   0  0  0  0  0  0  0  0  0  0  0  0
  -25.3973    0.4655   28.1028 C   0  0  0  0  0  0  0  0  0  0  0  0
  -28.1532    0.2596   25.5382 C   0  0  0  0  0  0  0  0  0  0  0  0
  -28.4973    1.1134   24.7472 N   0  0  0  0  0  0  0  0  0  0  0  0
  -29.3545    1.0059   23.7316 C   0  0  0  0  0  0  0  0  0  0  0  0
  -30.4507    0.2604   24.0612 C   0  0  0  0  0  0  0  0  0  0  0  0
  -30.2075   -0.9165   24.8012 C   0  0  0  0  0  0  0  0  0  0  0  0
  -29.1980   -0.8000   25.7970 C   0  0  0  0  0  0  0  0  0  0  0  0
  -21.7378    1.7123   27.2773 Cl  0  0  0  0  0  0  0  0  0  0  0  0
  -29.2974    2.5322   27.5494 C   0  0  0  0  0  0  0  0  0  0  0  0
  -30.2255    2.5715   26.7200 O   0  0  0  0  0  0  0  0  0  0  0  0
  -28.4386    3.6253   27.7044 N   0  0  0  0  0  0  0  0  0  0  0  0
  -28.5488    4.8147   26.9090 C   0  0  0  0  0  0  0  0  0  0  0  0
  -27.3861    3.6706   28.7026 C   0  0  0  0  0  0  0  0  0  0  0  0
  -27.6051    4.5414   29.8096 C   0  0  0  0  0  0  0  0  0  0  0  0
  -26.8533    4.2286   30.8725 C   0  0  0  0  0  0  0  0  0  0  0  0
  -26.9979    4.9617   32.1641 C   0  0  0  0  0  0  0  0  0  0  0  0
  -26.2688    4.6102   33.3413 C   0  0  0  0  0  0  0  0  0  0  0  0
  -25.4473    3.4629   33.2414 C   0  0  0  0  0  0  0  0  0  0  0  0
  -25.2628    2.7921   32.0631 C   0  0  0  0  0  0  0  0  0  0  0  0
  -25.9753    3.1428   30.9590 C   0  0  0  0  0  0  0  0  0  0  0  0
  3  7  1  0
  7  8  1  0
  7 14  1  0
 11 20  1  0
  4 21  1  0
 21 22  2  0
 21 23  1  0
 23 24  1  0
 23 25  1  0
 25 26  1  0
 26 27  1  0
 14 15  2  0
 15 16  1  0
 16 17  2  0
 17 18  1  0
 18 19  2  0
 19 14  1  0
 27 28  2  0
 28 29  1  0
 29 30  2  0
 30 31  1  0
 31 32  2  0
 32 27  1  0
  8  9  2  0
  9 10  1  0
 10 11  2  0
 11 12  1  0
 12 13  2  0
 13  8  1  0
  1  2  2  0
  2  5  1  0
  5  6  2  0
  6  4  1  0
  4  3  2  0
  3  1  1  0
M  END

$$$$
