No_1963-gen_results/8p0m/2024-11-26-14-13-15/
     RDKit          3D

 22 24  0  0  0  0  0  0  0  0999 V2000
  -28.0162   -0.8135   28.8779 C   0  0  0  0  0  0  0  0  0  0  0  0
  -28.4690   -0.7850   29.8287 C   0  0  0  0  0  0  0  0  0  0  0  0
  -28.1816    0.4277   28.1134 C   0  0  0  0  0  0  0  0  0  0  0  0
  -27.4498    0.6435   26.8500 C   0  0  0  0  0  0  0  0  0  0  0  0
  -26.4529    0.9939   26.6681 C   0  0  0  0  0  0  0  0  0  0  0  0
  -25.5854    1.7326   27.3469 C   0  0  0  0  0  0  0  0  0  0  0  0
  -24.5653    1.6483   27.8436 C   0  0  0  0  0  0  0  0  0  0  0  0
  -23.8425    0.4741   28.0655 C   0  0  0  0  0  0  0  0  0  0  0  0
  -22.5577    0.3692   28.6730 C   0  0  0  0  0  0  0  0  0  0  0  0
  -28.2448   -1.9656   30.8564 C   0  0  0  0  0  0  0  0  0  0  0  0
  -27.4993   -2.9793   30.3292 C   0  0  0  0  0  0  0  0  0  0  0  0
  -26.6409   -2.8341   29.3229 C   0  0  0  0  0  0  0  0  0  0  0  0
  -26.8618   -1.6423   28.5711 C   0  0  0  0  0  0  0  0  0  0  0  0
  -28.4156    0.3515   25.7150 C   0  0  0  0  0  0  0  0  0  0  0  0
  -29.5535    0.1197   25.8037 O   0  0  0  0  0  0  0  0  0  0  0  0
  -27.9339    0.6798   24.4551 N   0  0  0  0  0  0  0  0  0  0  0  0
  -22.3269   -0.5865   29.6146 C   0  0  0  0  0  0  0  0  0  0  0  0
  -23.2649   -1.6723   29.6906 C   0  0  0  0  0  0  0  0  0  0  0  0
  -24.1224   -1.9661   28.7319 C   0  0  0  0  0  0  0  0  0  0  0  0
  -24.6634   -0.7043   28.1857 C   0  0  0  0  0  0  0  0  0  0  0  0
  -26.0233   -0.7928   28.0538 C   0  0  0  0  0  0  0  0  0  0  0  0
  -26.1154   -0.4551   26.9808 O   0  0  0  0  0  0  0  0  0  0  0  0
  3  4  1  0
  4  5  2  0
  5  6  1  0
  6  7  2  3
  7  8  1  0
  4 14  1  0
 14 15  2  0
 14 16  1  0
 13 21  1  0
  5 22  1  0
 21 22  1  0
  3  1  1  0
  1  2  2  0
  2 10  1  0
 10 11  2  0
 11 12  1  0
 12 13  2  0
 13  1  1  0
  8  9  2  0
  9 17  1  0
 17 18  2  0
 18 19  1  0
 19 20  2  0
 20  8  1  0
M  END

$$$$
