No_1543-gen_results/8p0m/2024-11-26-14-13-15/
     RDKit          3D

 13 14  0  0  0  0  0  0  0  0999 V2000
  -28.1229   -1.3353   28.4874 O   0  0  0  0  0  0  0  0  0  0  0  0
  -27.4806   -0.4044   28.7094 C   0  0  0  0  0  0  0  0  0  0  0  0
  -26.3804   -0.0867   27.9394 C   0  0  0  0  0  0  0  0  0  0  0  0
  -27.4232    0.1749   30.0549 N   0  0  0  0  0  0  0  0  0  0  0  0
  -25.4065    0.7421   28.2860 C   0  0  0  0  0  0  0  0  0  0  0  0
  -25.5698    1.4353   29.5751 C   0  0  0  0  0  0  0  0  0  0  0  0
  -26.5341    1.0730   30.4232 C   0  0  0  0  0  0  0  0  0  0  0  0
  -24.3196    1.2375   27.4567 C   0  0  0  0  0  0  0  0  0  0  0  0
  -24.4101    2.2692   26.6475 C   0  0  0  0  0  0  0  0  0  0  0  0
  -23.2450    2.6842   25.8500 C   0  0  0  0  0  0  0  0  0  0  0  0
  -22.0362    2.2151   26.2074 C   0  0  0  0  0  0  0  0  0  0  0  0
  -22.9170    0.8883   27.7155 C   0  0  0  0  0  0  0  0  0  0  0  0
  -21.8500    1.3630   27.1918 C   0  0  0  0  0  0  0  0  0  0  0  0
  1  2  2  0
  2  3  1  0
  2  4  1  0
  5  6  1  0
  5  8  1  0
  3  5  1  0
  6  7  1  0
  7  4  1  0
  8  9  2  0
  9 10  1  0
 10 11  2  0
 11 13  1  0
 13 12  2  0
 12  8  1  0
M  END

$$$$
