No_1603-gen_results/8p0m/2024-11-26-14-13-15/
     RDKit          3D

 16 17  0  0  0  0  0  0  0  0999 V2000
  -28.0162   -0.8135   28.8779 C   0  0  0  0  0  0  0  0  0  0  0  0
  -28.4690   -0.7850   29.8287 C   0  0  0  0  0  0  0  0  0  0  0  0
  -27.1356    0.2359   28.5352 C   0  0  0  0  0  0  0  0  0  0  0  0
  -26.3351    0.2900   27.2835 C   0  0  0  0  0  0  0  0  0  0  0  0
  -28.3692    0.1957   30.9236 C   0  0  0  0  0  0  0  0  0  0  0  0
  -27.5158    1.2655   30.6540 C   0  0  0  0  0  0  0  0  0  0  0  0
  -26.8411    1.2942   29.4761 C   0  0  0  0  0  0  0  0  0  0  0  0
  -25.3573    0.4805   26.9831 N   0  0  0  0  0  0  0  0  0  0  0  0
  -27.2233    0.1766   26.0950 N   0  0  0  0  0  0  0  0  0  0  0  0
  -24.2153    0.6452   27.8852 C   0  0  0  0  0  0  0  0  0  0  0  0
  -23.2446    1.6753   27.7199 C   0  0  0  0  0  0  0  0  0  0  0  0
  -22.3370    1.9525   28.7274 C   0  0  0  0  0  0  0  0  0  0  0  0
  -23.9904   -0.1061   29.1090 C   0  0  0  0  0  0  0  0  0  0  0  0
  -22.9986    0.0655   30.0081 C   0  0  0  0  0  0  0  0  0  0  0  0
  -22.1456    1.2015   29.7608 C   0  0  0  0  0  0  0  0  0  0  0  0
  -26.3713    0.2495   25.0528 C   0  0  0  0  0  0  0  0  0  0  0  0
  3  4  1  0
  4  8  2  3
  4  9  1  0
  8 10  1  0
  9 16  2  0
  1  2  2  0
  2  5  1  0
  5  6  2  0
  6  7  1  0
  7  3  2  0
  3  1  1  0
 10 11  2  0
 11 12  1  0
 12 15  2  0
 15 14  1  0
 14 13  2  0
 13 10  1  0
M  END

$$$$
