No_1091-gen_results/8p0m/2024-11-26-14-13-15/
     RDKit          3D

 33 37  0  0  0  0  0  0  0  0999 V2000
  -28.0162   -0.8135   28.8779 C   0  0  0  0  0  0  0  0  0  0  0  0
  -27.0636   -0.1189   28.6079 C   0  0  0  0  0  0  0  0  0  0  0  0
  -25.7923   -0.4302   29.0761 C   0  0  0  0  0  0  0  0  0  0  0  0
  -25.5756   -1.5654   29.9363 C   0  0  0  0  0  0  0  0  0  0  0  0
  -26.7354   -2.3004   30.2173 C   0  0  0  0  0  0  0  0  0  0  0  0
  -27.9184   -1.9537   29.7629 C   0  0  0  0  0  0  0  0  0  0  0  0
  -29.0732   -2.7835   30.1783 C   0  0  0  0  0  0  0  0  0  0  0  0
  -30.1487   -2.3834   30.0722 O   0  0  0  0  0  0  0  0  0  0  0  0
  -28.7657   -4.0371   30.6695 N   0  0  0  0  0  0  0  0  0  0  0  0
  -29.8448   -4.9661   31.0133 C   0  0  0  0  0  0  0  0  0  0  0  0
  -29.6623   -5.5690   32.1752 C   0  0  0  0  0  0  0  0  0  0  0  0
  -30.5586   -6.6989   32.4822 C   0  0  0  0  0  0  0  0  0  0  0  0
  -31.5473   -7.0376   31.5482 C   0  0  0  0  0  0  0  0  0  0  0  0
  -31.6055   -6.3114   30.3462 C   0  0  0  0  0  0  0  0  0  0  0  0
  -30.6835   -5.3093   30.0705 C   0  0  0  0  0  0  0  0  0  0  0  0
  -24.5353    0.3528   28.7076 C   0  0  0  0  0  0  0  0  0  0  0  0
  -24.5194    1.1757   27.6473 C   0  0  0  0  0  0  0  0  0  0  0  0
  -23.2908    1.8528   27.3288 C   0  0  0  0  0  0  0  0  0  0  0  0
  -23.2031    2.7701   26.2632 C   0  0  0  0  0  0  0  0  0  0  0  0
  -23.2876    0.1199   29.4027 C   0  0  0  0  0  0  0  0  0  0  0  0
  -22.0550    1.6177   28.0336 C   0  0  0  0  0  0  0  0  0  0  0  0
  -22.0699    0.7635   29.0651 C   0  0  0  0  0  0  0  0  0  0  0  0
  -32.5974   -6.6933   29.3253 C   0  0  0  0  0  0  0  0  0  0  0  0
  -32.3243   -6.8304   28.1789 N   0  0  0  0  0  0  0  0  0  0  0  0
  -31.5021   -5.9418   27.6414 C   0  0  0  0  0  0  0  0  0  0  0  0
  -30.5076   -5.3600   28.6045 N   0  0  0  0  0  0  0  0  0  0  0  0
  -33.1081   -7.3834   27.1070 C   0  0  0  0  0  0  0  0  0  0  0  0
  -33.0344   -8.5573   27.1658 C   0  0  0  0  0  0  0  0  0  0  0  0
  -32.2896   -9.2000   26.4368 C   0  0  0  0  0  0  0  0  0  0  0  0
  -31.7365   -8.6489   25.3545 C   0  0  0  0  0  0  0  0  0  0  0  0
  -32.2873   -7.4028   24.9273 C   0  0  0  0  0  0  0  0  0  0  0  0
  -33.0680   -6.7358   25.8349 C   0  0  0  0  0  0  0  0  0  0  0  0
  -33.7379   -7.1000   29.7935 O   0  0  0  0  0  0  0  0  0  0  0  0
  6  7  1  0
  7  8  2  0
  7  9  1  0
  9 10  1  0
  3 16  1  0
 14 23  1  0
 23 24  1  0
 24 25  1  0
 15 26  1  0
 24 27  1  0
 23 33  2  0
 19 18  1  0
 26 25  1  0
  1  2  2  0
  2  3  1  0
  3  4  2  0
  4  5  1  0
  5  6  2  0
  6  1  1  0
 16 17  2  0
 17 18  1  0
 18 21  2  0
 21 22  1  0
 22 20  2  0
 20 16  1  0
 27 28  2  0
 28 29  1  0
 29 30  2  0
 30 31  1  0
 31 32  2  0
 32 27  1  0
 10 11  2  0
 11 12  1  0
 12 13  2  0
 13 14  1  0
 14 15  2  0
 15 10  1  0
M  END

$$$$
