No_1295-gen_results/8p0m/2024-11-26-14-13-15/
     RDKit          3D

 28 30  0  0  0  0  0  0  0  0999 V2000
  -28.0162   -0.8135   28.8779 C   0  0  0  0  0  0  0  0  0  0  0  0
  -28.4690   -0.7850   29.8287 C   0  0  0  0  0  0  0  0  0  0  0  0
  -26.5455   -0.8762   28.8500 C   0  0  0  0  0  0  0  0  0  0  0  0
  -25.8041   -1.0324   30.0571 C   0  0  0  0  0  0  0  0  0  0  0  0
  -24.3697   -1.0998   30.0718 C   0  0  0  0  0  0  0  0  0  0  0  0
  -27.9902   -1.0051   31.2092 C   0  0  0  0  0  0  0  0  0  0  0  0
  -26.5616   -1.1368   31.2600 C   0  0  0  0  0  0  0  0  0  0  0  0
  -23.7274    0.1713   30.0259 C   0  0  0  0  0  0  0  0  0  0  0  0
  -22.4546    0.3063   29.4122 C   0  0  0  0  0  0  0  0  0  0  0  0
  -21.8762    1.5340   29.1375 C   0  0  0  0  0  0  0  0  0  0  0  0
  -24.2555    1.3416   30.6665 C   0  0  0  0  0  0  0  0  0  0  0  0
  -23.7440    2.6268   30.3563 C   0  0  0  0  0  0  0  0  0  0  0  0
  -24.3347    3.6995   30.9130 N   0  0  0  0  0  0  0  0  0  0  0  0
  -22.5436    2.6715   29.6114 C   0  0  0  0  0  0  0  0  0  0  0  0
  -25.7928   -0.7766   27.6946 N   0  0  0  0  0  0  0  0  0  0  0  0
  -26.0776    0.1086   26.6488 C   0  0  0  0  0  0  0  0  0  0  0  0
  -25.1620    0.2276   25.6510 C   0  0  0  0  0  0  0  0  0  0  0  0
  -27.3255    0.7073   26.4878 C   0  0  0  0  0  0  0  0  0  0  0  0
  -27.5667    1.4614   25.3781 C   0  0  0  0  0  0  0  0  0  0  0  0
  -28.7635    2.1447   25.2726 C   0  0  0  0  0  0  0  0  0  0  0  0
  -29.7297    1.9703   26.1829 C   0  0  0  0  0  0  0  0  0  0  0  0
  -29.4603    1.2536   27.3432 C   0  0  0  0  0  0  0  0  0  0  0  0
  -28.2980    0.6725   27.5605 C   0  0  0  0  0  0  0  0  0  0  0  0
  -27.6153    1.6747   28.4338 O   0  0  0  0  0  0  0  0  0  0  0  0
  -28.4525   -1.6343   28.1765 F   0  0  0  0  0  0  0  0  0  0  0  0
  -25.7088    3.8677   31.0736 C   0  0  0  0  0  0  0  0  0  0  0  0
  -26.4593    3.4537   31.6389 C   0  0  0  0  0  0  0  0  0  0  0  0
  -27.9155    3.7158   31.6242 C   0  0  0  0  0  0  0  0  0  0  0  0
  4  5  1  0
  5  8  1  0
 12 13  1  0
  3 15  1  0
 15 16  1  0
 16 17  2  0
 16 18  1  0
 23 24  1  0
  1 25  1  0
 13 26  1  0
 26 27  2  3
 27 28  1  0
 18 19  2  0
 19 20  1  0
 20 21  2  0
 21 22  1  0
 22 23  2  0
 23 18  1  0
  1  2  2  0
  2  6  1  0
  6  7  2  0
  7  4  1  0
  4  3  2  0
  3  1  1  0
  8  9  2  0
  9 10  1  0
 10 14  2  0
 14 12  1  0
 12 11  2  0
 11  8  1  0
M  END

$$$$
