No_1539-gen_results/8p0m/2024-11-26-14-13-15/
     RDKit          3D

 13 14  0  0  0  0  0  0  0  0999 V2000
  -28.0162   -0.8135   28.8779 C   0  0  0  0  0  0  0  0  0  0  0  0
  -28.4690   -0.7850   29.8287 C   0  0  0  0  0  0  0  0  0  0  0  0
  -28.1960    0.3478   28.0550 C   0  0  0  0  0  0  0  0  0  0  0  0
  -29.0191    1.3501   28.3782 C   0  0  0  0  0  0  0  0  0  0  0  0
  -29.4107    0.1803   30.3782 C   0  0  0  0  0  0  0  0  0  0  0  0
  -29.6059    1.2495   29.6193 C   0  0  0  0  0  0  0  0  0  0  0  0
  -27.3479    0.2333   26.8118 C   0  0  0  0  0  0  0  0  0  0  0  0
  -27.7788    0.6087   25.7042 C   0  0  0  0  0  0  0  0  0  0  0  0
  -25.9481   -0.0670   26.9132 C   0  0  0  0  0  0  0  0  0  0  0  0
  -27.0357    0.4267   24.5010 C   0  0  0  0  0  0  0  0  0  0  0  0
  -25.0932   -0.0692   25.8464 C   0  0  0  0  0  0  0  0  0  0  0  0
  -25.6769    0.1297   24.6161 C   0  0  0  0  0  0  0  0  0  0  0  0
  -25.1890   -0.4054   28.4470 Cl  0  0  0  0  0  0  0  0  0  0  0  0
  3  7  1  0
  9 13  1  0
  1  2  2  0
  2  5  1  0
  5  6  2  0
  6  4  1  0
  4  3  2  0
  3  1  1  0
  7  8  2  0
  8 10  1  0
 10 12  2  0
 12 11  1  0
 11  9  2  0
  9  7  1  0
M  END

$$$$
