No_1311-gen_results/8p0m/2024-11-26-14-13-15/
     RDKit          3D

 10 10  0  0  0  0  0  0  0  0999 V2000
  -28.0162   -0.8135   28.8779 C   0  0  0  0  0  0  0  0  0  0  0  0
  -27.0636   -0.1190   28.6079 C   0  0  0  0  0  0  0  0  0  0  0  0
  -27.0010    0.6913   27.4910 C   0  0  0  0  0  0  0  0  0  0  0  0
  -28.1373    0.7363   26.6350 C   0  0  0  0  0  0  0  0  0  0  0  0
  -28.1438    1.4323   25.4880 C   0  0  0  0  0  0  0  0  0  0  0  0
  -29.2800   -0.5524   28.2479 C   0  0  0  0  0  0  0  0  0  0  0  0
  -29.2552    0.0950   27.0446 C   0  0  0  0  0  0  0  0  0  0  0  0
  -28.5317    2.6153   25.4770 C   0  0  0  0  0  0  0  0  0  0  0  0
  -27.6373    0.8030   24.2694 C   0  0  0  0  0  0  0  0  0  0  0  0
  -28.9605    3.3076   24.2146 C   0  0  0  0  0  0  0  0  0  0  0  0
  4  5  1  0
  5  8  2  3
  5  9  1  0
  8 10  1  0
  1  2  2  0
  2  3  1  0
  3  4  2  0
  4  7  1  0
  7  6  2  0
  6  1  1  0
M  END

$$$$
