No_1041-gen_results/8p0m/2024-11-26-14-13-15/
     RDKit          3D

 32 36  0  0  0  0  0  0  0  0999 V2000
  -28.0162   -0.8135   28.8779 C   0  0  0  0  0  0  0  0  0  0  0  0
  -27.0636   -0.1190   28.6079 C   0  0  0  0  0  0  0  0  0  0  0  0
  -25.7923   -0.4302   29.0761 C   0  0  0  0  0  0  0  0  0  0  0  0
  -25.5756   -1.5654   29.9363 C   0  0  0  0  0  0  0  0  0  0  0  0
  -26.7354   -2.3004   30.2173 C   0  0  0  0  0  0  0  0  0  0  0  0
  -27.9184   -1.9537   29.7629 C   0  0  0  0  0  0  0  0  0  0  0  0
  -29.0001   -2.7012   30.1151 O   0  0  0  0  0  0  0  0  0  0  0  0
  -24.5290    0.3490   28.7998 C   0  0  0  0  0  0  0  0  0  0  0  0
  -24.4808    1.2113   27.7998 C   0  0  0  0  0  0  0  0  0  0  0  0
  -23.2478    1.8974   27.4951 C   0  0  0  0  0  0  0  0  0  0  0  0
  -22.0497    1.5890   28.1642 C   0  0  0  0  0  0  0  0  0  0  0  0
  -23.3072    0.0149   29.4618 C   0  0  0  0  0  0  0  0  0  0  0  0
  -22.0852    0.6899   29.1374 C   0  0  0  0  0  0  0  0  0  0  0  0
  -30.1270   -2.1323   30.5815 C   0  0  0  0  0  0  0  0  0  0  0  0
  -30.2256   -1.1430   31.0416 C   0  0  0  0  0  0  0  0  0  0  0  0
  -29.0459   -0.3943   31.5016 C   0  0  0  0  0  0  0  0  0  0  0  0
  -29.2756    1.0283   31.9596 C   0  0  0  0  0  0  0  0  0  0  0  0
  -28.2060    1.6229   32.6508 C   0  0  0  0  0  0  0  0  0  0  0  0
  -26.9058    1.0166   32.7464 C   0  0  0  0  0  0  0  0  0  0  0  0
  -26.8269   -0.3198   32.3724 C   0  0  0  0  0  0  0  0  0  0  0  0
  -27.8501   -0.9206   31.8238 C   0  0  0  0  0  0  0  0  0  0  0  0
  -27.9119   -2.2831   32.4668 C   0  0  0  0  0  0  0  0  0  0  0  0
  -31.2913   -2.9784   30.1298 C   0  0  0  0  0  0  0  0  0  0  0  0
  -32.2839   -2.5403   29.8021 N   0  0  0  0  0  0  0  0  0  0  0  0
  -30.9961   -4.3145   29.7328 N   0  0  0  0  0  0  0  0  0  0  0  0
  -31.9376   -5.1192   29.2072 C   0  0  0  0  0  0  0  0  0  0  0  0
  -33.3812   -3.2416   29.2921 C   0  0  0  0  0  0  0  0  0  0  0  0
  -33.1909   -4.5783   28.9671 C   0  0  0  0  0  0  0  0  0  0  0  0
  -34.2627   -5.3605   28.3792 C   0  0  0  0  0  0  0  0  0  0  0  0
  -34.1057   -6.3495   27.9145 C   0  0  0  0  0  0  0  0  0  0  0  0
  -32.7267   -7.0659   28.0245 C   0  0  0  0  0  0  0  0  0  0  0  0
  -31.6684   -6.3914   28.7307 C   0  0  0  0  0  0  0  0  0  0  0  0
  6  7  1  0
  3  8  1  0
  7 14  1  0
 14 15  2  3
 15 16  1  0
 21 22  1  0
 14 23  1  0
  1  2  2  0
  2  3  1  0
  3  4  2  0
  4  5  1  0
  5  6  2  0
  6  1  1  0
 23 24  2  0
 24 27  1  0
 27 28  2  0
 26 25  2  0
 25 23  1  0
  8  9  2  0
  9 10  1  0
 10 11  2  0
 11 13  1  0
 13 12  2  0
 12  8  1  0
 26 28  1  0
 28 29  1  0
 29 30  2  0
 30 31  1  0
 31 32  2  0
 32 26  1  0
 16 17  2  0
 17 18  1  0
 18 19  2  0
 19 20  1  0
 20 21  2  0
 21 16  1  0
M  END

$$$$
