No_1596-gen_results/8p0m/2024-11-26-14-13-15/
     RDKit          3D

 24 26  0  0  0  0  0  0  0  0999 V2000
  -28.0162   -0.8135   28.8779 C   0  0  0  0  0  0  0  0  0  0  0  0
  -27.0636   -0.1189   28.6079 C   0  0  0  0  0  0  0  0  0  0  0  0
  -25.7923   -0.4302   29.0761 C   0  0  0  0  0  0  0  0  0  0  0  0
  -24.5456    0.3494   28.8225 C   0  0  0  0  0  0  0  0  0  0  0  0
  -23.2409    0.0217   29.3323 C   0  0  0  0  0  0  0  0  0  0  0  0
  -27.8820   -1.8995   29.8633 C   0  0  0  0  0  0  0  0  0  0  0  0
  -26.6706   -2.3272   30.3212 C   0  0  0  0  0  0  0  0  0  0  0  0
  -25.5433   -1.5852   29.9316 C   0  0  0  0  0  0  0  0  0  0  0  0
  -22.1884    0.8224   28.9928 C   0  0  0  0  0  0  0  0  0  0  0  0
  -22.1616    1.7773   28.0238 C   0  0  0  0  0  0  0  0  0  0  0  0
  -24.5484    1.3977   27.8309 C   0  0  0  0  0  0  0  0  0  0  0  0
  -23.3870    2.0761   27.4709 C   0  0  0  0  0  0  0  0  0  0  0  0
  -29.0677   -2.7194   30.2969 C   0  0  0  0  0  0  0  0  0  0  0  0
  -28.9704   -3.9227   30.3116 O   0  0  0  0  0  0  0  0  0  0  0  0
  -30.1300   -2.1346   30.6658 O   0  0  0  0  0  0  0  0  0  0  0  0
  -23.5167    3.0347   26.5168 O   0  0  0  0  0  0  0  0  0  0  0  0
  -24.7278    2.8661   25.7828 C   0  0  0  0  0  0  0  0  0  0  0  0
  -25.5315    1.7119   26.8805 C   0  0  0  0  0  0  0  0  0  0  0  0
  -26.6248    2.6267   27.5568 C   0  0  0  0  0  0  0  0  0  0  0  0
  -26.0732    0.7185   25.9856 C   0  0  0  0  0  0  0  0  0  0  0  0
  -26.9334    3.8613   27.0282 C   0  0  0  0  0  0  0  0  0  0  0  0
  -27.8953    4.6388   27.7045 C   0  0  0  0  0  0  0  0  0  0  0  0
  -27.2518    0.9214   25.3097 C   0  0  0  0  0  0  0  0  0  0  0  0
  -25.2791   -0.4027   25.6671 C   0  0  0  0  0  0  0  0  0  0  0  0
  3  4  1  0
  6 13  1  0
 13 14  2  0
 13 15  1  0
 12 16  1  0
 16 17  1  0
 11 18  1  0
 17 18  1  0
 18 19  1  0
 18 20  1  0
 19 21  2  3
 21 22  1  0
 20 23  2  0
 20 24  1  0
  1  2  2  0
  2  3  1  0
  3  8  2  0
  8  7  1  0
  7  6  2  0
  6  1  1  0
  4  5  2  0
  5  9  1  0
  9 10  2  0
 10 12  1  0
 12 11  2  0
 11  4  1  0
M  END

$$$$
