No_1973-gen_results/8p0m/2024-11-26-14-13-15/
     RDKit          3D

 35 36  0  0  0  0  0  0  0  0999 V2000
  -28.0162   -0.8135   28.8779 C   0  0  0  0  0  0  0  0  0  0  0  0
  -28.4690   -0.7850   29.8287 C   0  0  0  0  0  0  0  0  0  0  0  0
  -26.5455   -0.8762   28.8500 C   0  0  0  0  0  0  0  0  0  0  0  0
  -25.8041   -1.0324   30.0571 C   0  0  0  0  0  0  0  0  0  0  0  0
  -27.9437   -0.9869   31.2075 C   0  0  0  0  0  0  0  0  0  0  0  0
  -24.4008   -1.0969   30.0965 C   0  0  0  0  0  0  0  0  0  0  0  0
  -26.5612   -1.0746   31.2270 C   0  0  0  0  0  0  0  0  0  0  0  0
  -23.7186    0.1121   29.8577 C   0  0  0  0  0  0  0  0  0  0  0  0
  -23.3042    0.5338   28.6704 C   0  0  0  0  0  0  0  0  0  0  0  0
  -22.9714    1.3624   28.1344 C   0  0  0  0  0  0  0  0  0  0  0  0
  -22.4483    1.4990   26.7820 C   0  0  0  0  0  0  0  0  0  0  0  0
  -22.0689    2.6827   26.2312 C   0  0  0  0  0  0  0  0  0  0  0  0
  -23.2160    3.1409   25.5099 C   0  0  0  0  0  0  0  0  0  0  0  0
  -30.0904   -0.6784   29.8815 C   0  0  0  0  0  0  0  0  0  0  0  0
  -30.6240    0.2205   30.6188 O   0  0  0  0  0  0  0  0  0  0  0  0
  -30.7266   -1.6336   29.4353 O   0  0  0  0  0  0  0  0  0  0  0  0
  -23.6681    1.0534   31.0320 C   0  0  0  0  0  0  0  0  0  0  0  0
  -24.1418    2.6733   30.7172 P   0  0  0  0  0  0  0  0  0  0  0  0
  -25.6095    2.7181   30.8496 O   0  0  0  0  0  0  0  0  0  0  0  0
  -23.4831    3.1792   29.5858 O   0  0  0  0  0  0  0  0  0  0  0  0
  -23.6597    3.4158   32.0303 O   0  0  0  0  0  0  0  0  0  0  0  0
  -26.3468    3.8282   30.8165 C   0  0  0  0  0  0  0  0  0  0  0  0
  -27.0727    4.1335   31.9400 C   0  0  0  0  0  0  0  0  0  0  0  0
  -27.0527    3.3911   32.8761 O   0  0  0  0  0  0  0  0  0  0  0  0
  -27.3591    3.6660   29.5707 C   0  0  0  0  0  0  0  0  0  0  0  0
  -27.4044    4.7213   28.7278 C   0  0  0  0  0  0  0  0  0  0  0  0
  -27.9336    4.4644   27.5535 C   0  0  0  0  0  0  0  0  0  0  0  0
  -28.4664    3.2535   27.2924 C   0  0  0  0  0  0  0  0  0  0  0  0
  -28.4196    2.2032   28.2044 C   0  0  0  0  0  0  0  0  0  0  0  0
  -27.8398    2.4302   29.3731 C   0  0  0  0  0  0  0  0  0  0  0  0
  -27.8395    3.5691   34.0598 C   0  0  0  0  0  0  0  0  0  0  0  0
  -27.5543    2.8343   35.1589 C   0  0  0  0  0  0  0  0  0  0  0  0
  -26.3658    3.0249   35.4524 F   0  0  0  0  0  0  0  0  0  0  0  0
  -27.8909    1.5477   35.2172 F   0  0  0  0  0  0  0  0  0  0  0  0
  -28.1589    3.4029   36.2418 F   0  0  0  0  0  0  0  0  0  0  0  0
  4  6  1  0
  6  8  1  0
  8  9  1  0
  9 10  2  3
 10 11  1  0
 11 12  1  0
 12 13  1  0
  2 14  1  0
 14 15  1  0
 14 16  2  0
  8 17  1  0
 17 18  1  0
 18 19  1  0
 18 20  2  0
 18 21  1  0
 19 22  1  0
 22 23  1  0
 23 24  1  0
 22 25  1  0
 24 31  1  0
 31 32  1  0
 32 33  1  0
 32 34  1  0
 32 35  1  0
 25 26  2  0
 26 27  1  0
 27 28  2  0
 28 29  1  0
 29 30  2  0
 30 25  1  0
  1  2  2  0
  2  5  1  0
  5  7  2  0
  7  4  1  0
  4  3  2  0
  3  1  1  0
M  END

$$$$
