No_1739-gen_results/8p0m/2024-11-26-14-13-15/
     RDKit          3D

 24 26  0  0  0  0  0  0  0  0999 V2000
  -28.0162   -0.8135   28.8779 C   0  0  0  0  0  0  0  0  0  0  0  0
  -27.0636   -0.1189   28.6079 C   0  0  0  0  0  0  0  0  0  0  0  0
  -26.9287    1.1713   29.0083 C   0  0  0  0  0  0  0  0  0  0  0  0
  -27.9560    1.7411   29.7840 C   0  0  0  0  0  0  0  0  0  0  0  0
  -29.0569   -0.3271   29.7466 C   0  0  0  0  0  0  0  0  0  0  0  0
  -28.9828    0.9722   30.1516 C   0  0  0  0  0  0  0  0  0  0  0  0
  -25.8815   -0.6260   27.7945 C   0  0  0  0  0  0  0  0  0  0  0  0
  -24.6972   -1.0572   28.6241 C   0  0  0  0  0  0  0  0  0  0  0  0
  -23.5810   -0.2730   28.8246 C   0  0  0  0  0  0  0  0  0  0  0  0
  -22.4967   -0.7887   29.5688 C   0  0  0  0  0  0  0  0  0  0  0  0
  -24.7363   -2.3397   29.2314 C   0  0  0  0  0  0  0  0  0  0  0  0
  -25.8662   -3.2130   29.0660 C   0  0  0  0  0  0  0  0  0  0  0  0
  -22.6020   -2.0268   30.1569 C   0  0  0  0  0  0  0  0  0  0  0  0
  -23.6784   -2.7722   29.9538 C   0  0  0  0  0  0  0  0  0  0  0  0
  -26.7179   -3.3171   30.3700 C   0  0  0  0  0  0  0  0  0  0  0  0
  -27.6706   -4.3761   30.3597 C   0  0  0  0  0  0  0  0  0  0  0  0
  -29.0262   -3.9784   30.5290 C   0  0  0  0  0  0  0  0  0  0  0  0
  -29.3808   -3.3888   31.7605 C   0  0  0  0  0  0  0  0  0  0  0  0
  -28.3283   -2.4848   32.1438 C   0  0  0  0  0  0  0  0  0  0  0  0
  -27.0319   -2.2462   31.2748 C   0  0  0  0  0  0  0  0  0  0  0  0
  -30.1463    1.5003   31.0083 C   0  0  0  0  0  0  0  0  0  0  0  0
  -30.0328    1.8767   32.0016 O   0  0  0  0  0  0  0  0  0  0  0  0
  -31.3864    1.0889   30.4823 O   0  0  0  0  0  0  0  0  0  0  0  0
  -25.8474   -0.5405   26.5816 O   0  0  0  0  0  0  0  0  0  0  0  0
  2  7  1  0
  7  8  1  0
 11 12  1  0
 12 15  1  0
  6 21  1  0
 21 22  2  0
 21 23  1  0
  7 24  2  0
 15 16  2  0
 16 17  1  0
 17 18  2  0
 18 19  1  0
 19 20  2  0
 20 15  1  0
  8  9  2  0
  9 10  1  0
 10 13  2  0
 13 14  1  0
 14 11  2  0
 11  8  1  0
  1  2  2  0
  2  3  1  0
  3  4  2  0
  4  6  1  0
  6  5  2  0
  5  1  1  0
M  END

$$$$
