No_1810-gen_results/8p0m/2024-11-26-14-13-15/
     RDKit          3D

 19 20  0  0  0  0  0  0  0  0999 V2000
  -28.0162   -0.8135   28.8779 C   0  0  0  0  0  0  0  0  0  0  0  0
  -28.4690   -0.7850   29.8287 C   0  0  0  0  0  0  0  0  0  0  0  0
  -28.1960    0.3478   28.0550 C   0  0  0  0  0  0  0  0  0  0  0  0
  -29.0191    1.3501   28.3782 C   0  0  0  0  0  0  0  0  0  0  0  0
  -28.3170   -1.9812   30.8560 C   0  0  0  0  0  0  0  0  0  0  0  0
  -29.5950    1.2859   29.6049 C   0  0  0  0  0  0  0  0  0  0  0  0
  -29.3465    0.2093   30.3749 C   0  0  0  0  0  0  0  0  0  0  0  0
  -27.6425   -1.7250   31.6976 F   0  0  0  0  0  0  0  0  0  0  0  0
  -29.5781   -2.4357   31.2523 F   0  0  0  0  0  0  0  0  0  0  0  0
  -27.7667   -3.0404   30.1323 F   0  0  0  0  0  0  0  0  0  0  0  0
  -27.4492    0.3791   26.6653 C   0  0  0  0  0  0  0  0  0  0  0  0
  -26.0308    0.3931   26.6696 C   0  0  0  0  0  0  0  0  0  0  0  0
  -25.2267    0.0428   27.6958 C   0  0  0  0  0  0  0  0  0  0  0  0
  -24.2044    0.6844   28.2509 C   0  0  0  0  0  0  0  0  0  0  0  0
  -23.5120    1.5433   27.3250 C   0  0  0  0  0  0  0  0  0  0  0  0
  -24.1165    1.8750   26.0963 C   0  0  0  0  0  0  0  0  0  0  0  0
  -25.2471    0.6317   25.5113 C   0  0  0  0  0  0  0  0  0  0  0  0
  -28.0682    0.0388   25.6357 O   0  0  0  0  0  0  0  0  0  0  0  0
  -22.4459    2.1533   27.6068 F   0  0  0  0  0  0  0  0  0  0  0  0
  2  5  1  0
  5  8  1  0
  5  9  1  0
  5 10  1  0
  3 11  1  0
 11 12  1  0
 11 18  2  0
 15 19  1  0
 12 13  2  0
 13 14  1  0
 14 15  2  0
 15 16  1  0
 16 17  2  0
 17 12  1  0
  1  2  2  0
  2  7  1  0
  7  6  2  0
  6  4  1  0
  4  3  2  0
  3  1  1  0
M  END

$$$$
