No_129-gen_results/8p0m/2024-11-26-14-13-15/
     RDKit          3D

 25 30  0  0  0  0  0  0  0  0999 V2000
  -28.0162   -0.8135   28.8779 C   0  0  0  0  0  0  0  0  0  0  0  0
  -27.0636   -0.1190   28.6079 C   0  0  0  0  0  0  0  0  0  0  0  0
  -25.7923   -0.4302   29.0761 C   0  0  0  0  0  0  0  0  0  0  0  0
  -24.5456    0.3494   28.8225 C   0  0  0  0  0  0  0  0  0  0  0  0
  -23.2409    0.0217   29.3323 C   0  0  0  0  0  0  0  0  0  0  0  0
  -27.8820   -1.8995   29.8633 C   0  0  0  0  0  0  0  0  0  0  0  0
  -26.6706   -2.3272   30.3212 C   0  0  0  0  0  0  0  0  0  0  0  0
  -25.5433   -1.5852   29.9316 C   0  0  0  0  0  0  0  0  0  0  0  0
  -22.1918    0.8302   29.0004 C   0  0  0  0  0  0  0  0  0  0  0  0
  -22.1472    1.7783   28.0287 C   0  0  0  0  0  0  0  0  0  0  0  0
  -24.6254    1.6458   28.1951 C   0  0  0  0  0  0  0  0  0  0  0  0
  -23.4130    2.2586   27.6822 C   0  0  0  0  0  0  0  0  0  0  0  0
  -28.9440   -2.6511   30.2002 F   0  0  0  0  0  0  0  0  0  0  0  0
  -23.5537    3.3180   26.8526 O   0  0  0  0  0  0  0  0  0  0  0  0
  -24.7365    3.9675   26.8493 C   0  0  0  0  0  0  0  0  0  0  0  0
  -25.8489    2.1712   27.7374 C   0  0  0  0  0  0  0  0  0  0  0  0
  -25.8776    3.5079   27.2183 C   0  0  0  0  0  0  0  0  0  0  0  0
  -27.0809    1.3948   28.1237 C   0  0  0  0  0  0  0  0  0  0  0  0
  -28.4065    1.8264   27.6902 C   0  0  0  0  0  0  0  0  0  0  0  0
  -28.6927    2.7131   26.8618 C   0  0  0  0  0  0  0  0  0  0  0  0
  -29.9834    3.1172   26.5266 C   0  0  0  0  0  0  0  0  0  0  0  0
  -31.0169    2.3984   27.0192 C   0  0  0  0  0  0  0  0  0  0  0  0
  -30.7586    1.3278   27.9006 C   0  0  0  0  0  0  0  0  0  0  0  0
  -29.5367    1.0959   28.2558 C   0  0  0  0  0  0  0  0  0  0  0  0
  -29.2033   -0.2292   28.9876 C   0  0  0  0  0  0  0  0  0  0  0  0
  1  2  1  0
  1  6  1  0
  6  7  1  0
  3  8  1  0
  7  8  1  0
  6 13  1  0
 12 14  1  0
 14 15  1  0
 15 17  2  0
 16 17  1  0
 18 19  1  0
  1 25  1  0
 24 25  1  0
  2  3  2  0
  3  4  1  0
 11 16  1  0
 16 18  2  0
 18  2  1  0
 19 20  2  0
 20 21  1  0
 21 22  2  0
 22 23  1  0
 23 24  2  0
 24 19  1  0
  4  5  2  0
  5  9  1  0
  9 10  2  0
 10 12  1  0
 12 11  2  0
 11  4  1  0
M  END

$$$$
