No_1212-gen_results/8p0m/2024-11-26-14-13-15/
     RDKit          3D

 22 23  0  0  0  0  0  0  0  0999 V2000
  -28.0162   -0.8135   28.8779 C   0  0  0  0  0  0  0  0  0  0  0  0
  -27.0636   -0.1189   28.6079 C   0  0  0  0  0  0  0  0  0  0  0  0
  -25.7647   -0.3897   29.0360 C   0  0  0  0  0  0  0  0  0  0  0  0
  -24.5516    0.4058   28.7646 C   0  0  0  0  0  0  0  0  0  0  0  0
  -24.6957    1.4480   27.7988 C   0  0  0  0  0  0  0  0  0  0  0  0
  -25.9755    1.7250   27.3077 C   0  0  0  0  0  0  0  0  0  0  0  0
  -27.0718    1.0134   27.6535 C   0  0  0  0  0  0  0  0  0  0  0  0
  -28.4697   -0.5996   30.0599 O   0  0  0  0  0  0  0  0  0  0  0  0
  -23.4909    2.1771   27.4817 C   0  0  0  0  0  0  0  0  0  0  0  0
  -22.2254    1.6283   27.8340 C   0  0  0  0  0  0  0  0  0  0  0  0
  -22.1578    0.6269   28.8107 C   0  0  0  0  0  0  0  0  0  0  0  0
  -23.2866   -0.1043   29.1958 C   0  0  0  0  0  0  0  0  0  0  0  0
  -29.3246   -1.4092   30.7213 C   0  0  0  0  0  0  0  0  0  0  0  0
  -26.1422    2.9012   26.4129 C   0  0  0  0  0  0  0  0  0  0  0  0
  -28.2870    1.2430   27.1741 O   0  0  0  0  0  0  0  0  0  0  0  0
  -29.3349   -1.4662   31.8756 C   0  0  0  0  0  0  0  0  0  0  0  0
  -28.3939   -0.9387   32.4370 O   0  0  0  0  0  0  0  0  0  0  0  0
  -30.8977   -1.1597   30.0435 Cl  0  0  0  0  0  0  0  0  0  0  0  0
  -28.4433   -0.4761   33.8133 C   0  0  0  0  0  0  0  0  0  0  0  0
  -27.1663   -0.0663   34.1980 C   0  0  0  0  0  0  0  0  0  0  0  0
  -26.5523    0.8779   33.2071 C   0  0  0  0  0  0  0  0  0  0  0  0
  -26.5837    0.3848   31.8749 C   0  0  0  0  0  0  0  0  0  0  0  0
  1  2  2  3
  2  3  1  0
  3  4  1  0
  5  6  1  0
  2  7  1  0
  6  7  1  0
  1  8  1  0
  8 13  1  0
  6 14  1  0
  7 15  2  0
 13 16  1  0
 16 17  1  0
 13 18  1  0
 17 19  1  0
 19 20  2  3
 20 21  1  0
 21 22  1  0
  4  5  2  0
  5  9  1  0
  9 10  2  0
 10 11  1  0
 11 12  2  0
 12  4  1  0
M  END

$$$$
