No_1816-gen_results/8p0m/2024-11-26-14-13-15/
     RDKit          3D

 23 25  0  0  0  0  0  0  0  0999 V2000
  -28.0162   -0.8135   28.8779 C   0  0  0  0  0  0  0  0  0  0  0  0
  -27.0636   -0.1189   28.6079 C   0  0  0  0  0  0  0  0  0  0  0  0
  -25.7923   -0.4302   29.0761 C   0  0  0  0  0  0  0  0  0  0  0  0
  -25.5756   -1.5654   29.9363 C   0  0  0  0  0  0  0  0  0  0  0  0
  -26.7354   -2.3004   30.2173 C   0  0  0  0  0  0  0  0  0  0  0  0
  -27.9184   -1.9537   29.7629 C   0  0  0  0  0  0  0  0  0  0  0  0
  -27.1057    1.1023   27.7593 C   0  0  0  0  0  0  0  0  0  0  0  0
  -26.7157    2.2350   27.9945 C   0  0  0  0  0  0  0  0  0  0  0  0
  -26.0688    2.4770   29.3567 C   0  0  0  0  0  0  0  0  0  0  0  0
  -25.4405    3.7637   29.5605 C   0  0  0  0  0  0  0  0  0  0  0  0
  -25.5223    4.7219   28.6224 C   0  0  0  0  0  0  0  0  0  0  0  0
  -26.0122    4.4992   27.3532 C   0  0  0  0  0  0  0  0  0  0  0  0
  -26.5923    3.2654   27.0520 C   0  0  0  0  0  0  0  0  0  0  0  0
  -27.7989    0.8276   26.4673 C   0  0  0  0  0  0  0  0  0  0  0  0
  -29.1095    1.0778   26.3266 C   0  0  0  0  0  0  0  0  0  0  0  0
  -27.0644    0.3285   25.4032 C   0  0  0  0  0  0  0  0  0  0  0  0
  -29.7744    0.8028   25.1803 C   0  0  0  0  0  0  0  0  0  0  0  0
  -25.6424   -0.0040   25.5322 C   0  0  0  0  0  0  0  0  0  0  0  0
  -29.0489    0.3294   24.0915 C   0  0  0  0  0  0  0  0  0  0  0  0
  -27.7383    0.0917   24.2021 C   0  0  0  0  0  0  0  0  0  0  0  0
  -29.9833    1.6631   27.4767 C   0  0  0  0  0  0  0  0  0  0  0  0
  -29.8106    2.6238   28.0526 O   0  0  0  0  0  0  0  0  0  0  0  0
  -30.9890    0.8523   27.8209 O   0  0  0  0  0  0  0  0  0  0  0  0
  2  7  1  0
  7 14  1  0
 16 18  1  0
 15 21  1  0
 21 22  1  0
 21 23  2  0
  7  8  1  0
  1  2  2  0
  2  3  1  0
  3  4  2  0
  4  5  1  0
  5  6  2  0
  6  1  1  0
 14 15  2  0
 15 17  1  0
 17 19  2  0
 19 20  1  0
 20 16  2  0
 16 14  1  0
  8  9  2  0
  9 10  1  0
 10 11  2  0
 11 12  1  0
 12 13  2  0
 13  8  1  0
M  END

$$$$
