No_1188-gen_results/8p0m/2024-11-26-14-13-15/
     RDKit          3D

 16 18  0  0  0  0  0  0  0  0999 V2000
  -28.0162   -0.8135   28.8779 C   0  0  0  0  0  0  0  0  0  0  0  0
  -27.0636   -0.1189   28.6079 C   0  0  0  0  0  0  0  0  0  0  0  0
  -25.7923   -0.4302   29.0761 C   0  0  0  0  0  0  0  0  0  0  0  0
  -24.5456    0.3494   28.8225 C   0  0  0  0  0  0  0  0  0  0  0  0
  -24.6586    1.4196   27.8878 C   0  0  0  0  0  0  0  0  0  0  0  0
  -25.9471    1.6811   27.3792 C   0  0  0  0  0  0  0  0  0  0  0  0
  -27.0439    0.9739   27.6871 C   0  0  0  0  0  0  0  0  0  0  0  0
  -29.2364   -0.0611   29.2668 C   0  0  0  0  0  0  0  0  0  0  0  0
  -29.4997    0.9915   28.3427 C   0  0  0  0  0  0  0  0  0  0  0  0
  -28.3797    1.6784   27.7428 C   0  0  0  0  0  0  0  0  0  0  0  0
  -23.4303    2.0858   27.4977 C   0  0  0  0  0  0  0  0  0  0  0  0
  -22.2453    1.6928   28.0304 N   0  0  0  0  0  0  0  0  0  0  0  0
  -22.1489    0.6728   28.8903 C   0  0  0  0  0  0  0  0  0  0  0  0
  -23.2704   -0.0865   29.2817 C   0  0  0  0  0  0  0  0  0  0  0  0
  -23.4346    3.1040   26.7533 O   0  0  0  0  0  0  0  0  0  0  0  0
  -31.0387    1.7010   28.2279 Cl  0  0  0  0  0  0  0  0  0  0  0  0
  5 11  1  0
 11 12  1  0
  4 14  1  0
 13 14  1  0
 11 15  2  0
  9 16  1  0
 13 12  1  0
  2  3  1  0
  3  4  2  0
  4  5  1  0
  5  6  2  0
  6  7  1  0
  1  2  2  0
  2  7  1  0
  7 10  2  0
 10  9  1  0
  9  8  2  0
  8  1  1  0
M  END

$$$$
