No_1942-gen_results/8p0m/2024-11-26-14-13-15/
     RDKit          3D

 20 21  0  0  0  0  0  0  0  0999 V2000
  -28.0162   -0.8135   28.8779 C   0  0  0  0  0  0  0  0  0  0  0  0
  -28.4690   -0.7850   29.8287 C   0  0  0  0  0  0  0  0  0  0  0  0
  -26.5042   -0.7777   28.8766 C   0  0  0  0  0  0  0  0  0  0  0  0
  -25.8103   -0.8531   30.1028 C   0  0  0  0  0  0  0  0  0  0  0  0
  -27.9906   -0.8916   31.2257 C   0  0  0  0  0  0  0  0  0  0  0  0
  -26.6042   -0.8676   31.2652 C   0  0  0  0  0  0  0  0  0  0  0  0
  -29.9203   -0.8331   29.8239 F   0  0  0  0  0  0  0  0  0  0  0  0
  -24.3796   -0.8022   30.1424 C   0  0  0  0  0  0  0  0  0  0  0  0
  -23.8075    0.5641   30.1478 C   0  0  0  0  0  0  0  0  0  0  0  0
  -23.2709    1.1039   28.9795 C   0  0  0  0  0  0  0  0  0  0  0  0
  -23.8628    2.2224   28.3154 C   0  0  0  0  0  0  0  0  0  0  0  0
  -24.9545    2.8087   28.8219 C   0  0  0  0  0  0  0  0  0  0  0  0
  -25.5515    3.8872   28.1294 C   0  0  0  0  0  0  0  0  0  0  0  0
  -25.0039    4.2136   26.9004 C   0  0  0  0  0  0  0  0  0  0  0  0
  -24.0550    3.4960   26.2209 C   0  0  0  0  0  0  0  0  0  0  0  0
  -23.4189    2.5219   26.9792 C   0  0  0  0  0  0  0  0  0  0  0  0
  -21.7313    1.3167   29.3284 C   0  0  0  0  0  0  0  0  0  0  0  0
  -25.6951   -0.5441   27.3829 Cl  0  0  0  0  0  0  0  0  0  0  0  0
  -23.9748    1.3276   31.3613 C   0  0  0  0  0  0  0  0  0  0  0  0
  -23.1252    0.0652   27.9519 O   0  0  0  0  0  0  0  0  0  0  0  0
  2  7  1  0
  4  8  1  0
  8  9  1  0
  9 10  1  0
 10 11  1  0
 10 17  1  0
  3 18  1  0
  9 19  1  0
 10 20  1  0
 11 12  2  0
 12 13  1  0
 13 14  2  0
 14 15  1  0
 15 16  2  0
 16 11  1  0
  1  2  2  0
  2  5  1  0
  5  6  2  0
  6  4  1  0
  4  3  2  0
  3  1  1  0
M  END

$$$$
