No_1361-gen_results/8p0m/2024-11-26-14-13-15/
     RDKit          3D

 13 13  0  0  0  0  0  0  0  0999 V2000
  -28.0162   -0.8135   28.8779 C   0  0  0  0  0  0  0  0  0  0  0  0
  -28.4690   -0.7850   29.8287 C   0  0  0  0  0  0  0  0  0  0  0  0
  -28.1816    0.4277   28.1134 C   0  0  0  0  0  0  0  0  0  0  0  0
  -29.3519    0.6041   27.4037 C   0  0  0  0  0  0  0  0  0  0  0  0
  -30.4853    0.3937   28.3041 C   0  0  0  0  0  0  0  0  0  0  0  0
  -29.9642   -1.0433   30.1728 C   0  0  0  0  0  0  0  0  0  0  0  0
  -30.8033   -0.6516   29.0762 C   0  0  0  0  0  0  0  0  0  0  0  0
  -29.3643    0.9634   26.1150 C   0  0  0  0  0  0  0  0  0  0  0  0
  -28.7933    1.6136   25.4571 C   0  0  0  0  0  0  0  0  0  0  0  0
  -28.1618    1.8647   24.7077 C   0  0  0  0  0  0  0  0  0  0  0  0
  -26.7358    1.9539   24.8583 C   0  0  0  0  0  0  0  0  0  0  0  0
  -26.1701    2.6237   25.9325 C   0  0  0  0  0  0  0  0  0  0  0  0
  -27.1119    3.2423   26.7794 C   0  0  0  0  0  0  0  0  0  0  0  0
  1  2  1  0
  1  3  1  0
  3  4  1  0
  4  5  1  0
  2  6  1  0
  5  7  1  0
  6  7  2  0
  4  8  1  0
  8  9  2  3
  9 10  1  0
 10 11  1  0
 11 12  2  3
 12 13  1  0
M  END

$$$$
