No_1425-gen_results/8p0m/2024-11-26-14-13-15/
     RDKit          3D

 19 19  0  0  0  0  0  0  0  0999 V2000
  -28.0544   -1.0498   28.7246 N   0  0  0  0  0  0  0  0  0  0  0  0
  -27.7460   -0.0733   29.0098 C   0  0  0  0  0  0  0  0  0  0  0  0
  -27.1071    0.7906   29.1050 C   0  0  0  0  0  0  0  0  0  0  0  0
  -26.1327    1.7993   29.1277 C   0  0  0  0  0  0  0  0  0  0  0  0
  -25.1090    2.2087   28.6384 C   0  0  0  0  0  0  0  0  0  0  0  0
  -23.8674    1.6184   28.9024 C   0  0  0  0  0  0  0  0  0  0  0  0
  -23.2113    0.9203   28.1670 C   0  0  0  0  0  0  0  0  0  0  0  0
  -21.8972    0.3621   28.5337 C   0  0  0  0  0  0  0  0  0  0  0  0
  -24.0982    0.0771   27.4639 C   0  0  0  0  0  0  0  0  0  0  0  0
  -26.6464    2.8425   30.2994 C   0  0  0  0  0  0  0  0  0  0  0  0
  -25.1096    3.2175   27.5666 C   0  0  0  0  0  0  0  0  0  0  0  0
  -26.0775    2.7641   31.3924 C   0  0  0  0  0  0  0  0  0  0  0  0
  -26.4259    3.6896   32.4980 C   0  0  0  0  0  0  0  0  0  0  0  0
  -26.0161    3.5412   33.7864 C   0  0  0  0  0  0  0  0  0  0  0  0
  -25.7508    2.2083   34.1001 C   0  0  0  0  0  0  0  0  0  0  0  0
  -25.5707    1.1927   33.1689 C   0  0  0  0  0  0  0  0  0  0  0  0
  -25.7672    1.4195   31.8663 C   0  0  0  0  0  0  0  0  0  0  0  0
  -26.0440    3.7358   26.9213 Cl  0  0  0  0  0  0  0  0  0  0  0  0
  -23.8158    3.6763   27.3235 O   0  0  0  0  0  0  0  0  0  0  0  0
  1  2  3  0
  2  3  1  0
  3  4  1  0
  4  5  2  3
  5  6  1  0
  6  7  2  3
  7  8  1  0
  7  9  1  0
  4 10  1  0
  5 11  1  0
 11 18  1  0
 11 19  2  0
 10 12  1  0
 12 13  2  0
 13 14  1  0
 14 15  2  0
 15 16  1  0
 16 17  2  0
 17 12  1  0
M  END

$$$$
