No_1923-gen_results/8p0m/2024-11-26-14-13-15/
     RDKit          3D

 31 33  0  0  0  0  0  0  0  0999 V2000
  -28.0162   -0.8135   28.8779 C   0  0  0  0  0  0  0  0  0  0  0  0
  -28.4690   -0.7850   29.8287 C   0  0  0  0  0  0  0  0  0  0  0  0
  -28.1816    0.4277   28.1134 C   0  0  0  0  0  0  0  0  0  0  0  0
  -27.4498    0.6435   26.8500 C   0  0  0  0  0  0  0  0  0  0  0  0
  -26.4529    0.9939   26.6681 C   0  0  0  0  0  0  0  0  0  0  0  0
  -25.1811    0.8624   26.8164 C   0  0  0  0  0  0  0  0  0  0  0  0
  -24.5151    0.1164   27.8117 C   0  0  0  0  0  0  0  0  0  0  0  0
  -23.1976    0.2649   28.2065 C   0  0  0  0  0  0  0  0  0  0  0  0
  -29.4518    0.0736   30.4366 C   0  0  0  0  0  0  0  0  0  0  0  0
  -29.6891    1.1851   29.7172 C   0  0  0  0  0  0  0  0  0  0  0  0
  -29.0627    1.3964   28.5468 C   0  0  0  0  0  0  0  0  0  0  0  0
  -22.4153    1.2588   27.6068 C   0  0  0  0  0  0  0  0  0  0  0  0
  -22.9728    2.1026   26.6347 C   0  0  0  0  0  0  0  0  0  0  0  0
  -24.3078    1.9821   26.3195 C   0  0  0  0  0  0  0  0  0  0  0  0
  -28.4549    0.2581   25.9140 C   0  0  0  0  0  0  0  0  0  0  0  0
  -29.3890   -0.0094   25.6330 C   0  0  0  0  0  0  0  0  0  0  0  0
  -30.1301   -0.1314   24.4505 C   0  0  0  0  0  0  0  0  0  0  0  0
  -29.2706   -0.1529   23.3921 C   0  0  0  0  0  0  0  0  0  0  0  0
  -27.8360    0.3438   24.3740 C   0  0  0  0  0  0  0  0  0  0  0  0
  -26.4288    2.1987   25.7790 F   0  0  0  0  0  0  0  0  0  0  0  0
  -22.6163   -0.5841   29.2383 C   0  0  0  0  0  0  0  0  0  0  0  0
  -23.3065   -1.1469   30.1480 N   0  0  0  0  0  0  0  0  0  0  0  0
  -21.3236   -0.7256   29.2055 O   0  0  0  0  0  0  0  0  0  0  0  0
  -24.1347   -0.8440   30.9036 C   0  0  0  0  0  0  0  0  0  0  0  0
  -25.4838   -1.3765   30.9421 C   0  0  0  0  0  0  0  0  0  0  0  0
  -23.8553    0.0399   32.1010 C   0  0  0  0  0  0  0  0  0  0  0  0
  -31.4878   -0.6168   24.1987 C   0  0  0  0  0  0  0  0  0  0  0  0
  -31.7186   -1.8091   24.4580 F   0  0  0  0  0  0  0  0  0  0  0  0
  -31.8672   -0.2782   22.9042 F   0  0  0  0  0  0  0  0  0  0  0  0
  -32.3720    0.1171   24.9830 F   0  0  0  0  0  0  0  0  0  0  0  0
  -26.3451   -1.0919   31.9070 N   0  0  0  0  0  0  0  0  0  0  0  0
  3  4  1  0
  4  5  2  3
  5  6  1  0
  4 15  1  0
 15 16  2  0
 16 17  1  0
 17 18  2  0
 15 19  1  0
 18 19  1  0
  5 20  1  0
  8 21  1  0
 21 22  1  0
 21 23  2  0
 22 24  1  0
 24 25  1  0
 24 26  1  0
 17 27  1  0
 27 28  1  0
 27 29  1  0
 27 30  1  0
 25 31  2  0
  6  7  2  0
  7  8  1  0
  8 12  2  0
 12 13  1  0
 13 14  2  0
 14  6  1  0
  1  2  2  0
  2  9  1  0
  9 10  2  0
 10 11  1  0
 11  3  2  0
  3  1  1  0
M  END

$$$$
