No_1148-gen_results/8p0m/2024-11-26-14-13-15/
     RDKit          3D

 35 37  0  0  0  0  0  0  0  0999 V2000
  -28.0162   -0.8135   28.8779 C   0  0  0  0  0  0  0  0  0  0  0  0
  -28.4690   -0.7850   29.8287 C   0  0  0  0  0  0  0  0  0  0  0  0
  -28.1816    0.4277   28.1134 C   0  0  0  0  0  0  0  0  0  0  0  0
  -27.4498    0.6435   26.8500 C   0  0  0  0  0  0  0  0  0  0  0  0
  -26.4529    0.9939   26.6681 C   0  0  0  0  0  0  0  0  0  0  0  0
  -25.1813    0.8625   26.8165 C   0  0  0  0  0  0  0  0  0  0  0  0
  -24.2037    1.0465   27.4866 C   0  0  0  0  0  0  0  0  0  0  0  0
  -29.4367    0.0780   30.4436 C   0  0  0  0  0  0  0  0  0  0  0  0
  -23.2068    1.1721   27.8981 C   0  0  0  0  0  0  0  0  0  0  0  0
  -29.6775    1.1885   29.7341 C   0  0  0  0  0  0  0  0  0  0  0  0
  -29.0585    1.3972   28.5508 C   0  0  0  0  0  0  0  0  0  0  0  0
  -21.9512    1.0728   28.5269 C   0  0  0  0  0  0  0  0  0  0  0  0
  -28.4952    0.5784   25.8292 C   0  0  0  0  0  0  0  0  0  0  0  0
  -28.0031    1.0881   24.6863 C   0  0  0  0  0  0  0  0  0  0  0  0
  -26.6994    2.2331   25.7628 C   0  0  0  0  0  0  0  0  0  0  0  0
  -27.1914    2.0851   24.6294 C   0  0  0  0  0  0  0  0  0  0  0  0
  -29.5804   -0.1509   25.9186 O   0  0  0  0  0  0  0  0  0  0  0  0
  -30.6908    0.1784   25.1674 C   0  0  0  0  0  0  0  0  0  0  0  0
  -31.8297    0.3081   26.0872 C   0  0  0  0  0  0  0  0  0  0  0  0
  -32.7788    0.8455   25.6647 O   0  0  0  0  0  0  0  0  0  0  0  0
  -31.6963    0.1614   27.3625 O   0  0  0  0  0  0  0  0  0  0  0  0
  -30.9507   -0.9272   24.2261 C   0  0  0  0  0  0  0  0  0  0  0  0
  -28.2813   -2.0010   30.6616 O   0  0  0  0  0  0  0  0  0  0  0  0
  -27.8510   -3.0093   30.3875 C   0  0  0  0  0  0  0  0  0  0  0  0
  -28.6265   -4.2727   30.4995 C   0  0  0  0  0  0  0  0  0  0  0  0
  -29.8169   -4.2070   30.3702 O   0  0  0  0  0  0  0  0  0  0  0  0
  -30.5826   -5.0417   30.8704 C   0  0  0  0  0  0  0  0  0  0  0  0
  -31.6364   -5.5682   30.0740 C   0  0  0  0  0  0  0  0  0  0  0  0
  -31.9333   -6.7560   29.9771 C   0  0  0  0  0  0  0  0  0  0  0  0
  -31.6395   -7.7090   31.0641 C   0  0  0  0  0  0  0  0  0  0  0  0
  -30.6918   -7.2576   32.0047 C   0  0  0  0  0  0  0  0  0  0  0  0
  -30.1273   -5.9813   31.8847 C   0  0  0  0  0  0  0  0  0  0  0  0
  -26.3750   -3.0804   30.9771 C   0  0  0  0  0  0  0  0  0  0  0  0
  -25.8383   -1.7582   30.7163 C   0  0  0  0  0  0  0  0  0  0  0  0
  -24.3618   -1.8263   30.2521 C   0  0  0  0  0  0  0  0  0  0  0  0
  3  4  1  0
  5  6  1  0
  6  7  2  3
  7  9  1  0
  9 12  3  0
 13 17  1  0
 17 18  1  0
 18 19  1  0
 19 20  2  0
 19 21  1  0
 18 22  1  0
  2 23  1  0
 23 24  1  0
 24 25  1  0
 25 26  1  0
 26 27  1  0
 24 33  1  0
 33 34  1  0
 34 35  1  0
  4  5  2  0
  5 15  1  0
 15 16  2  0
 16 14  1  0
 14 13  2  0
 13  4  1  0
 27 28  2  0
 28 29  1  0
 29 30  2  0
 30 31  1  0
 31 32  2  0
 32 27  1  0
  1  2  2  0
  2  8  1  0
  8 10  2  0
 10 11  1  0
 11  3  2  0
  3  1  1  0
M  END

$$$$
