No_1882-gen_results/8p0m/2024-11-26-14-13-15/
     RDKit          3D

 27 30  0  0  0  0  0  0  0  0999 V2000
  -28.0162   -0.8135   28.8779 C   0  0  0  0  0  0  0  0  0  0  0  0
  -28.4690   -0.7850   29.8287 C   0  0  0  0  0  0  0  0  0  0  0  0
  -27.1356    0.2359   28.5352 C   0  0  0  0  0  0  0  0  0  0  0  0
  -26.8745    1.2825   29.3982 C   0  0  0  0  0  0  0  0  0  0  0  0
  -28.3613    0.1987   30.9244 C   0  0  0  0  0  0  0  0  0  0  0  0
  -27.5277    1.2234   30.6356 C   0  0  0  0  0  0  0  0  0  0  0  0
  -26.3987    0.2949   27.2279 C   0  0  0  0  0  0  0  0  0  0  0  0
  -26.9022    0.7280   26.2134 C   0  0  0  0  0  0  0  0  0  0  0  0
  -28.2290    1.2592   26.1972 C   0  0  0  0  0  0  0  0  0  0  0  0
  -28.8634    1.6436   27.2292 C   0  0  0  0  0  0  0  0  0  0  0  0
  -29.9721    2.3747   27.1573 C   0  0  0  0  0  0  0  0  0  0  0  0
  -30.5415    2.6163   25.8350 C   0  0  0  0  0  0  0  0  0  0  0  0
  -29.8312    2.2855   24.6878 C   0  0  0  0  0  0  0  0  0  0  0  0
  -28.6318    1.7328   24.8246 C   0  0  0  0  0  0  0  0  0  0  0  0
  -26.1475    0.5060   24.9324 C   0  0  0  0  0  0  0  0  0  0  0  0
  -24.8628   -0.4789   27.4679 Cl  0  0  0  0  0  0  0  0  0  0  0  0
  -29.3234   -1.8822   30.2576 F   0  0  0  0  0  0  0  0  0  0  0  0
  -30.9133    2.7110   28.3130 C   0  0  0  0  0  0  0  0  0  0  0  0
  -30.4992    3.6366   29.1315 C   0  0  0  0  0  0  0  0  0  0  0  0
  -31.2672    3.9457   30.3425 C   0  0  0  0  0  0  0  0  0  0  0  0
  -32.4450    3.2022   30.5294 C   0  0  0  0  0  0  0  0  0  0  0  0
  -32.0409    2.0027   28.5785 C   0  0  0  0  0  0  0  0  0  0  0  0
  -32.7976    2.2171   29.6804 C   0  0  0  0  0  0  0  0  0  0  0  0
  -29.2992    4.5118   29.0110 C   0  0  0  0  0  0  0  0  0  0  0  0
  -28.8207    5.1468   30.0367 C   0  0  0  0  0  0  0  0  0  0  0  0
  -29.7071    5.3748   31.1820 C   0  0  0  0  0  0  0  0  0  0  0  0
  -30.8241    4.7790   31.3991 C   0  0  0  0  0  0  0  0  0  0  0  0
  3  7  1  0
  7  8  2  3
  8  9  1  0
  8 15  1  0
  7 16  1  0
  2 17  1  0
 11 18  1  0
  9 10  2  0
 10 11  1  0
 11 12  2  0
 12 13  1  0
 13 14  2  0
 14  9  1  0
 18 19  2  0
 20 21  2  0
 21 23  1  0
 23 22  2  0
 22 18  1  0
 19 20  1  0
 20 27  1  0
 27 26  2  0
 26 25  1  0
 25 24  2  0
 24 19  1  0
  1  2  2  0
  2  5  1  0
  5  6  2  0
  6  4  1  0
  4  3  2  0
  3  1  1  0
M  END

$$$$
