No_1637-gen_results/8p0m/2024-11-26-14-13-15/
     RDKit          3D

 22 24  0  0  0  0  0  0  0  0999 V2000
  -28.0162   -0.8135   28.8779 C   0  0  0  0  0  0  0  0  0  0  0  0
  -27.0636   -0.1189   28.6079 C   0  0  0  0  0  0  0  0  0  0  0  0
  -27.0010    0.6913   27.4910 C   0  0  0  0  0  0  0  0  0  0  0  0
  -25.8548    1.4825   27.0830 C   0  0  0  0  0  0  0  0  0  0  0  0
  -24.6901    1.4526   27.8807 C   0  0  0  0  0  0  0  0  0  0  0  0
  -24.7379    0.6010   29.0416 C   0  0  0  0  0  0  0  0  0  0  0  0
  -25.8234   -0.1688   29.3887 C   0  0  0  0  0  0  0  0  0  0  0  0
  -28.7568   -0.5479   30.0191 N   0  0  0  0  0  0  0  0  0  0  0  0
  -29.7597   -1.3260   30.5171 C   0  0  0  0  0  0  0  0  0  0  0  0
  -30.3964   -0.9170   31.6880 C   0  0  0  0  0  0  0  0  0  0  0  0
  -28.5369    0.6053   30.8302 C   0  0  0  0  0  0  0  0  0  0  0  0
  -29.1462    0.9775   31.9134 C   0  0  0  0  0  0  0  0  0  0  0  0
  -30.1143    0.2013   32.3866 C   0  0  0  0  0  0  0  0  0  0  0  0
  -23.4890    2.1544   27.5405 C   0  0  0  0  0  0  0  0  0  0  0  0
  -23.3273    2.6232   26.2969 N   0  0  0  0  0  0  0  0  0  0  0  0
  -22.3412    2.0330   28.2759 N   0  0  0  0  0  0  0  0  0  0  0  0
  -28.0479    0.7852   26.6250 N   0  0  0  0  0  0  0  0  0  0  0  0
  -29.0597    1.4777   26.8542 C   0  0  0  0  0  0  0  0  0  0  0  0
  -30.2091    1.3906   26.0190 C   0  0  0  0  0  0  0  0  0  0  0  0
  -28.0259    0.1830   25.3616 C   0  0  0  0  0  0  0  0  0  0  0  0
  -29.0189    0.0846   24.4638 C   0  0  0  0  0  0  0  0  0  0  0  0
  -30.1493    0.8080   24.8073 C   0  0  0  0  0  0  0  0  0  0  0  0
  1  2  1  0
  1  8  1  0
  8  9  1  0
  8 11  1  0
 10 13  1  0
 12 13  1  0
  5 14  1  0
 14 15  2  0
 14 16  1  0
  3 17  1  0
 17 18  1  0
 17 20  1  0
 19 22  1  0
 21 22  1  0
 18 19  1  0
 21 20  1  0
  9 10  1  0
 12 11  1  0
  2  3  1  0
  3  4  2  0
  4  5  1  0
  5  6  2  0
  6  7  1  0
  7  2  2  0
M  END

$$$$
