No_1835-gen_results/8p0m/2024-11-26-14-13-15/
     RDKit          3D

 10 10  0  0  0  0  0  0  0  0999 V2000
  -28.1229   -1.3353   28.4874 O   0  0  0  0  0  0  0  0  0  0  0  0
  -27.4806   -0.4044   28.7094 C   0  0  0  0  0  0  0  0  0  0  0  0
  -27.1904    0.2460   29.5268 C   0  0  0  0  0  0  0  0  0  0  0  0
  -26.6871   -0.0001   27.4423 N   0  0  0  0  0  0  0  0  0  0  0  0
  -26.3501    1.4331   29.7418 C   0  0  0  0  0  0  0  0  0  0  0  0
  -25.8648    1.0936   27.4148 C   0  0  0  0  0  0  0  0  0  0  0  0
  -25.6589    1.8314   28.5720 C   0  0  0  0  0  0  0  0  0  0  0  0
  -27.8165    0.0697   31.0102 C   0  0  0  0  0  0  0  0  0  0  0  0
  -27.3244    0.2700   31.9997 C   0  0  0  0  0  0  0  0  0  0  0  0
  -26.4114    1.5032   32.0905 C   0  0  0  0  0  0  0  0  0  0  0  0
  1  2  2  0
  2  3  1  0
  2  4  1  0
  4  6  1  0
  5  7  1  0
  3  8  1  0
  8  9  2  3
  9 10  1  0
  3  5  1  0
  7  6  1  0
M  END

$$$$
