No_1867-gen_results/8p0m/2024-11-26-14-13-15/
     RDKit          3D

 23 25  0  0  0  0  0  0  0  0999 V2000
  -28.0162   -0.8135   28.8779 C   0  0  0  0  0  0  0  0  0  0  0  0
  -28.4690   -0.7850   29.8287 C   0  0  0  0  0  0  0  0  0  0  0  0
  -27.0871    0.2903   28.6377 C   0  0  0  0  0  0  0  0  0  0  0  0
  -26.2516    0.4114   27.4223 C   0  0  0  0  0  0  0  0  0  0  0  0
  -28.3913    0.1041   30.9805 C   0  0  0  0  0  0  0  0  0  0  0  0
  -27.5332    1.1666   30.7866 C   0  0  0  0  0  0  0  0  0  0  0  0
  -26.8281    1.2557   29.6454 C   0  0  0  0  0  0  0  0  0  0  0  0
  -24.9667    0.4106   27.5253 C   0  0  0  0  0  0  0  0  0  0  0  0
  -24.1553   -0.0215   28.5814 C   0  0  0  0  0  0  0  0  0  0  0  0
  -22.7568    0.1661   28.5744 C   0  0  0  0  0  0  0  0  0  0  0  0
  -22.1664    1.1279   27.7234 C   0  0  0  0  0  0  0  0  0  0  0  0
  -22.9588    1.7437   26.7303 C   0  0  0  0  0  0  0  0  0  0  0  0
  -24.3581    1.4338   26.6335 C   0  0  0  0  0  0  0  0  0  0  0  0
  -26.9178    0.1980   26.1874 C   0  0  0  0  0  0  0  0  0  0  0  0
  -27.5875    1.2822   25.7987 N   0  0  0  0  0  0  0  0  0  0  0  0
  -28.3826    1.2547   24.7073 C   0  0  0  0  0  0  0  0  0  0  0  0
  -29.7707    1.1950   24.9285 C   0  0  0  0  0  0  0  0  0  0  0  0
  -30.6060    1.1398   23.9138 C   0  0  0  0  0  0  0  0  0  0  0  0
  -31.9881    1.0312   24.0607 C   0  0  0  0  0  0  0  0  0  0  0  0
  -32.5353    0.9878   25.3381 C   0  0  0  0  0  0  0  0  0  0  0  0
  -31.7059    0.9811   26.4241 C   0  0  0  0  0  0  0  0  0  0  0  0
  -30.3244    1.0884   26.2550 C   0  0  0  0  0  0  0  0  0  0  0  0
  -27.8704    1.2280   23.6350 O   0  0  0  0  0  0  0  0  0  0  0  0
  3  4  1  0
  4  8  1  0
  4 14  1  0
 14 15  2  3
 15 16  1  0
 16 17  1  0
 16 23  2  0
 17 18  2  0
 18 19  1  0
 19 20  2  0
 20 21  1  0
 21 22  2  0
 22 17  1  0
  8  9  2  0
  9 10  1  0
 10 11  2  0
 11 12  1  0
 12 13  2  0
 13  8  1  0
  1  2  2  0
  2  5  1  0
  5  6  2  0
  6  7  1  0
  7  3  2  0
  3  1  1  0
M  END

$$$$
