No_148-gen_results/8p0m/2024-11-26-14-13-15/
     RDKit          3D

 14 15  0  0  0  0  0  0  0  0999 V2000
  -28.0162   -0.8135   28.8779 C   0  0  0  0  0  0  0  0  0  0  0  0
  -27.0636   -0.1189   28.6079 C   0  0  0  0  0  0  0  0  0  0  0  0
  -25.7923   -0.4302   29.0761 C   0  0  0  0  0  0  0  0  0  0  0  0
  -25.5756   -1.5654   29.9363 C   0  0  0  0  0  0  0  0  0  0  0  0
  -26.7354   -2.3004   30.2173 C   0  0  0  0  0  0  0  0  0  0  0  0
  -27.9184   -1.9537   29.7629 C   0  0  0  0  0  0  0  0  0  0  0  0
  -27.1057    1.1023   27.7593 C   0  0  0  0  0  0  0  0  0  0  0  0
  -27.8512    1.5044   27.1726 N   0  0  0  0  0  0  0  0  0  0  0  0
  -25.9292    1.8108   27.6220 F   0  0  0  0  0  0  0  0  0  0  0  0
  -29.1581    1.2128   27.3745 C   0  0  0  0  0  0  0  0  0  0  0  0
  -30.0971    1.6494   26.2942 C   0  0  0  0  0  0  0  0  0  0  0  0
  -27.7566    2.3317   25.9472 C   0  0  0  0  0  0  0  0  0  0  0  0
  -28.7084    2.6214   25.0746 C   0  0  0  0  0  0  0  0  0  0  0  0
  -29.9685    2.3945   25.3440 C   0  0  0  0  0  0  0  0  0  0  0  0
  2  7  1  0
  7  8  1  0
  7  9  1  0
  8 10  1  0
  8 12  1  0
 11 14  1  0
 13 14  1  0
 10 11  1  0
 13 12  1  0
  1  2  2  0
  2  3  1  0
  3  4  2  0
  4  5  1  0
  5  6  2  0
  6  1  1  0
M  END

$$$$
