No_1813-gen_results/8p0m/2024-11-26-14-13-15/
     RDKit          3D

 15 16  0  0  0  0  0  0  0  0999 V2000
  -28.0162   -0.8135   28.8779 C   0  0  0  0  0  0  0  0  0  0  0  0
  -27.0636   -0.1189   28.6079 C   0  0  0  0  0  0  0  0  0  0  0  0
  -25.7923   -0.4302   29.0761 C   0  0  0  0  0  0  0  0  0  0  0  0
  -25.5756   -1.5654   29.9363 C   0  0  0  0  0  0  0  0  0  0  0  0
  -26.7354   -2.3004   30.2173 C   0  0  0  0  0  0  0  0  0  0  0  0
  -27.9184   -1.9537   29.7629 C   0  0  0  0  0  0  0  0  0  0  0  0
  -27.1463    1.2916   27.6407 Cl  0  0  0  0  0  0  0  0  0  0  0  0
  -28.9655   -2.7040   30.0730 F   0  0  0  0  0  0  0  0  0  0  0  0
  -24.5144    0.3687   28.7731 C   0  0  0  0  0  0  0  0  0  0  0  0
  -23.3883   -0.1106   28.9382 C   0  0  0  0  0  0  0  0  0  0  0  0
  -22.1697    0.6358   28.7571 C   0  0  0  0  0  0  0  0  0  0  0  0
  -22.2191    1.7076   27.9095 C   0  0  0  0  0  0  0  0  0  0  0  0
  -23.4871    2.2594   27.5972 C   0  0  0  0  0  0  0  0  0  0  0  0
  -24.6327    1.5622   27.9861 C   0  0  0  0  0  0  0  0  0  0  0  0
  -21.0061    0.0263   28.9721 F   0  0  0  0  0  0  0  0  0  0  0  0
  2  7  1  0
  6  8  1  0
  3  9  1  0
 11 15  1  0
  1  2  2  0
  2  3  1  0
  3  4  2  0
  4  5  1  0
  5  6  2  0
  6  1  1  0
  9 10  2  0
 10 11  1  0
 11 12  2  0
 12 13  1  0
 13 14  2  0
 14  9  1  0
M  END

$$$$
