No_1333-gen_results/8p0m/2024-11-26-14-13-15/
     RDKit          3D

 17 19  0  0  0  0  0  0  0  0999 V2000
  -28.0162   -0.8135   28.8779 C   0  0  0  0  0  0  0  0  0  0  0  0
  -27.0636   -0.1189   28.6079 C   0  0  0  0  0  0  0  0  0  0  0  0
  -26.9716    0.7139   27.5060 C   0  0  0  0  0  0  0  0  0  0  0  0
  -28.1053    0.7744   26.6421 C   0  0  0  0  0  0  0  0  0  0  0  0
  -29.2041    0.1179   27.0477 C   0  0  0  0  0  0  0  0  0  0  0  0
  -29.2127   -0.6088   28.1281 C   0  0  0  0  0  0  0  0  0  0  0  0
  -30.3709    0.2326   26.1381 C   0  0  0  0  0  0  0  0  0  0  0  0
  -30.3086    0.1051   24.9412 O   0  0  0  0  0  0  0  0  0  0  0  0
  -31.5786    0.2663   26.6747 O   0  0  0  0  0  0  0  0  0  0  0  0
  -25.6671    1.4055   27.1237 C   0  0  0  0  0  0  0  0  0  0  0  0
  -24.5337    1.0352   27.7283 C   0  0  0  0  0  0  0  0  0  0  0  0
  -24.2986    0.1217   28.7151 C   0  0  0  0  0  0  0  0  0  0  0  0
  -25.5993   -0.4857   29.1694 C   0  0  0  0  0  0  0  0  0  0  0  0
  -23.2272    1.7891   27.3817 C   0  0  0  0  0  0  0  0  0  0  0  0
  -22.0447    1.3650   27.8245 N   0  0  0  0  0  0  0  0  0  0  0  0
  -21.9862    0.4222   28.8323 C   0  0  0  0  0  0  0  0  0  0  0  0
  -23.1167   -0.2302   29.2701 C   0  0  0  0  0  0  0  0  0  0  0  0
  5  7  1  0
  7  8  2  0
  7  9  1  0
  3 10  1  0
 10 11  2  0
 12 13  2  0
 13  2  1  0
  1  2  2  0
  2  3  1  0
  3  4  2  0
  4  5  1  0
  5  6  2  0
  6  1  1  0
 11 12  1  0
 12 17  1  0
 17 16  2  0
 16 15  1  0
 15 14  2  0
 14 11  1  0
M  END

$$$$
