No_1772-gen_results/8p0m/2024-11-26-14-13-15/
     RDKit          3D

 32 35  0  0  0  0  0  0  0  0999 V2000
  -28.0162   -0.8135   28.8779 C   0  0  0  0  0  0  0  0  0  0  0  0
  -28.4690   -0.7850   29.8287 C   0  0  0  0  0  0  0  0  0  0  0  0
  -26.5042   -0.7777   28.8766 C   0  0  0  0  0  0  0  0  0  0  0  0
  -25.8103   -0.8531   30.1028 C   0  0  0  0  0  0  0  0  0  0  0  0
  -27.9906   -0.8916   31.2257 C   0  0  0  0  0  0  0  0  0  0  0  0
  -26.6042   -0.8676   31.2652 C   0  0  0  0  0  0  0  0  0  0  0  0
  -24.3894   -0.8049   30.1638 C   0  0  0  0  0  0  0  0  0  0  0  0
  -23.7660   -0.9500   31.0679 C   0  0  0  0  0  0  0  0  0  0  0  0
  -22.2665   -0.8379   31.2250 C   0  0  0  0  0  0  0  0  0  0  0  0
  -21.6701   -0.5264   30.0648 C   0  0  0  0  0  0  0  0  0  0  0  0
  -23.6437   -0.4433   28.9621 C   0  0  0  0  0  0  0  0  0  0  0  0
  -22.3479   -0.3035   28.9177 C   0  0  0  0  0  0  0  0  0  0  0  0
  -30.0912   -0.7849   29.8442 C   0  0  0  0  0  0  0  0  0  0  0  0
  -30.4954   -0.3206   28.8800 O   0  0  0  0  0  0  0  0  0  0  0  0
  -30.7879   -1.6440   30.6780 N   0  0  0  0  0  0  0  0  0  0  0  0
  -32.2056   -1.7168   30.5460 C   0  0  0  0  0  0  0  0  0  0  0  0
  -32.6935   -2.7925   30.8491 C   0  0  0  0  0  0  0  0  0  0  0  0
  -32.0156   -3.7898   31.6290 C   0  0  0  0  0  0  0  0  0  0  0  0
  -30.5565   -3.7334   31.7069 C   0  0  0  0  0  0  0  0  0  0  0  0
  -30.0160   -2.7276   31.1752 C   0  0  0  0  0  0  0  0  0  0  0  0
  -29.8971   -4.8788   32.3525 C   0  0  0  0  0  0  0  0  0  0  0  0
  -30.2639   -5.9779   32.1358 O   0  0  0  0  0  0  0  0  0  0  0  0
  -28.7293   -4.6909   32.8995 O   0  0  0  0  0  0  0  0  0  0  0  0
  -34.2194   -2.9781   30.8739 C   0  0  0  0  0  0  0  0  0  0  0  0
  -34.8424   -3.5662   31.5104 O   0  0  0  0  0  0  0  0  0  0  0  0
  -34.7926   -2.0119   30.0235 N   0  0  0  0  0  0  0  0  0  0  0  0
  -36.2239   -2.0191   29.7966 C   0  0  0  0  0  0  0  0  0  0  0  0
  -36.6046   -1.2485   28.9075 C   0  0  0  0  0  0  0  0  0  0  0  0
  -37.8246   -0.9351   28.6170 C   0  0  0  0  0  0  0  0  0  0  0  0
  -38.8383   -1.6925   29.3908 C   0  0  0  0  0  0  0  0  0  0  0  0
  -38.4170   -2.5592   30.3436 C   0  0  0  0  0  0  0  0  0  0  0  0
  -37.0947   -2.6819   30.6442 C   0  0  0  0  0  0  0  0  0  0  0  0
  4  7  1  0
  2 13  1  0
 13 14  2  0
 13 15  1  0
 15 16  1  0
 17 18  1  0
 15 20  1  0
 19 20  1  0
 19 21  1  0
 21 22  1  0
 21 23  2  0
 17 24  1  0
 24 25  2  0
 24 26  1  0
 26 27  1  0
 16 17  1  0
 18 19  1  0
  7  8  2  0
  8  9  1  0
  9 10  2  0
 10 12  1  0
 12 11  2  0
 11  7  1  0
 27 28  2  0
 28 29  1  0
 29 30  2  0
 30 31  1  0
 31 32  2  0
 32 27  1  0
  1  2  2  0
  2  5  1  0
  5  6  2  0
  6  4  1  0
  4  3  2  0
  3  1  1  0
M  END

$$$$
