No_1388-gen_results/8p0m/2024-11-26-14-13-15/
     RDKit          3D

 30 32  0  0  0  0  0  0  0  0999 V2000
  -28.0162   -0.8135   28.8779 C   0  0  0  0  0  0  0  0  0  0  0  0
  -27.0636   -0.1190   28.6079 C   0  0  0  0  0  0  0  0  0  0  0  0
  -25.7923   -0.4302   29.0761 C   0  0  0  0  0  0  0  0  0  0  0  0
  -24.5456    0.3494   28.8225 C   0  0  0  0  0  0  0  0  0  0  0  0
  -23.2409    0.0217   29.3323 C   0  0  0  0  0  0  0  0  0  0  0  0
  -27.8820   -1.8995   29.8633 C   0  0  0  0  0  0  0  0  0  0  0  0
  -26.6526   -2.3142   30.3138 C   0  0  0  0  0  0  0  0  0  0  0  0
  -25.5153   -1.5607   29.9787 C   0  0  0  0  0  0  0  0  0  0  0  0
  -22.1645    0.7936   28.9524 C   0  0  0  0  0  0  0  0  0  0  0  0
  -22.1241    1.7484   27.9889 C   0  0  0  0  0  0  0  0  0  0  0  0
  -24.6142    1.5956   28.0605 C   0  0  0  0  0  0  0  0  0  0  0  0
  -23.3879    2.1737   27.5804 C   0  0  0  0  0  0  0  0  0  0  0  0
  -29.0413   -2.7360   30.2914 C   0  0  0  0  0  0  0  0  0  0  0  0
  -28.9671   -3.9567   30.3951 O   0  0  0  0  0  0  0  0  0  0  0  0
  -29.9747   -2.1406   30.9816 O   0  0  0  0  0  0  0  0  0  0  0  0
  -31.0466   -2.4820   31.2404 C   0  0  0  0  0  0  0  0  0  0  0  0
  -31.3572   -2.9033   32.4175 C   0  0  0  0  0  0  0  0  0  0  0  0
  -30.7665   -2.1956   33.4363 C   0  0  0  0  0  0  0  0  0  0  0  0
  -30.0153   -2.8750   34.3004 C   0  0  0  0  0  0  0  0  0  0  0  0
  -29.9111   -4.1611   34.3921 C   0  0  0  0  0  0  0  0  0  0  0  0
  -30.6504   -4.9281   33.4238 C   0  0  0  0  0  0  0  0  0  0  0  0
  -31.1908   -4.2414   32.3493 C   0  0  0  0  0  0  0  0  0  0  0  0
  -31.8164   -1.2108   30.9899 F   0  0  0  0  0  0  0  0  0  0  0  0
  -31.5997   -3.1018   30.1260 F   0  0  0  0  0  0  0  0  0  0  0  0
  -32.8931   -2.8288   32.7794 C   0  0  0  0  0  0  0  0  0  0  0  0
  -33.7089   -3.3198   32.0329 C   0  0  0  0  0  0  0  0  0  0  0  0
  -33.5367   -4.1651   31.0015 C   0  0  0  0  0  0  0  0  0  0  0  0
  -31.8021   -5.0984   31.4134 C   0  0  0  0  0  0  0  0  0  0  0  0
  -32.1168   -6.3276   31.8353 C   0  0  0  0  0  0  0  0  0  0  0  0
  -34.1062   -4.8971   30.0285 C   0  0  0  0  0  0  0  0  0  0  0  0
  3  4  1  0
  6 13  1  0
 13 14  2  0
 13 15  1  0
 15 16  1  0
 16 17  1  0
 17 18  1  0
 19 20  1  0
 17 22  1  0
 21 22  1  0
 16 23  1  0
 16 24  1  0
 17 25  1  0
 25 26  2  3
 26 27  1  0
 22 28  1  0
 28 29  1  0
 27 30  1  0
 18 19  1  0
 20 21  1  0
  1  2  2  0
  2  3  1  0
  3  8  2  0
  8  7  1  0
  7  6  2  0
  6  1  1  0
  4  5  2  0
  5  9  1  0
  9 10  2  0
 10 12  1  0
 12 11  2  0
 11  4  1  0
M  END

$$$$
