No_1897-gen_results/8p0m/2024-11-26-14-13-15/
     RDKit          3D

 15 16  0  0  0  0  0  0  0  0999 V2000
  -28.0162   -0.8135   28.8779 C   0  0  0  0  0  0  0  0  0  0  0  0
  -28.4690   -0.7850   29.8287 C   0  0  0  0  0  0  0  0  0  0  0  0
  -26.5042   -0.7777   28.8766 C   0  0  0  0  0  0  0  0  0  0  0  0
  -25.8103   -0.8531   30.1028 C   0  0  0  0  0  0  0  0  0  0  0  0
  -27.9906   -0.8916   31.2257 C   0  0  0  0  0  0  0  0  0  0  0  0
  -26.6042   -0.8676   31.2652 C   0  0  0  0  0  0  0  0  0  0  0  0
  -29.9203   -0.8331   29.8239 F   0  0  0  0  0  0  0  0  0  0  0  0
  -24.3796   -0.8022   30.1424 C   0  0  0  0  0  0  0  0  0  0  0  0
  -23.6617   -1.3645   30.7155 C   0  0  0  0  0  0  0  0  0  0  0  0
  -23.7616    0.2278   29.2222 C   0  0  0  0  0  0  0  0  0  0  0  0
  -22.3781    0.3257   29.1338 C   0  0  0  0  0  0  0  0  0  0  0  0
  -22.2140   -1.3186   30.8402 C   0  0  0  0  0  0  0  0  0  0  0  0
  -21.6206   -0.4670   29.8806 C   0  0  0  0  0  0  0  0  0  0  0  0
  -21.8041    1.2450   28.1115 C   0  0  0  0  0  0  0  0  0  0  0  0
  -22.0708    2.0604   27.4156 N   0  0  0  0  0  0  0  0  0  0  0  0
  2  7  1  0
  4  8  1  0
 11 14  1  0
 14 15  2  0
  8  9  2  0
  9 12  1  0
 12 13  2  0
 13 11  1  0
 11 10  2  0
 10  8  1  0
  1  2  2  0
  2  5  1  0
  5  6  2  0
  6  4  1  0
  4  3  2  0
  3  1  1  0
M  END

$$$$
