No_1991-gen_results/8p0m/2024-11-26-14-13-15/
     RDKit          3D

 35 39  0  0  0  0  0  0  0  0999 V2000
  -28.0162   -0.8135   28.8779 C   0  0  0  0  0  0  0  0  0  0  0  0
  -28.4690   -0.7850   29.8287 C   0  0  0  0  0  0  0  0  0  0  0  0
  -26.5042   -0.7777   28.8766 C   0  0  0  0  0  0  0  0  0  0  0  0
  -25.8103   -0.8531   30.1028 C   0  0  0  0  0  0  0  0  0  0  0  0
  -27.9906   -0.8916   31.2257 C   0  0  0  0  0  0  0  0  0  0  0  0
  -26.6042   -0.8676   31.2652 C   0  0  0  0  0  0  0  0  0  0  0  0
  -30.0739   -0.8360   29.8615 C   0  0  0  0  0  0  0  0  0  0  0  0
  -30.6529   -1.7943   30.2676 N   0  0  0  0  0  0  0  0  0  0  0  0
  -30.7551    0.2587   29.2375 C   0  0  0  0  0  0  0  0  0  0  0  0
  -30.2279    1.3868   28.9623 C   0  0  0  0  0  0  0  0  0  0  0  0
  -30.1523    2.2261   28.3786 C   0  0  0  0  0  0  0  0  0  0  0  0
  -29.7271    3.2680   27.8722 C   0  0  0  0  0  0  0  0  0  0  0  0
  -31.9635   -0.1622   28.6217 C   0  0  0  0  0  0  0  0  0  0  0  0
  -32.6824   -1.0766   29.2044 C   0  0  0  0  0  0  0  0  0  0  0  0
  -31.9494   -2.0536   29.9735 C   0  0  0  0  0  0  0  0  0  0  0  0
  -30.2095    3.9597   26.7954 C   0  0  0  0  0  0  0  0  0  0  0  0
  -29.6127    5.1855   26.2285 C   0  0  0  0  0  0  0  0  0  0  0  0
  -28.4394    5.6556   26.8052 C   0  0  0  0  0  0  0  0  0  0  0  0
  -28.4287    3.9948   28.2669 C   0  0  0  0  0  0  0  0  0  0  0  0
  -27.8547    5.0526   27.7979 C   0  0  0  0  0  0  0  0  0  0  0  0
  -25.7102   -0.6356   27.6369 C   0  0  0  0  0  0  0  0  0  0  0  0
  -25.3037    0.7296   27.3043 C   0  0  0  0  0  0  0  0  0  0  0  0
  -25.5087    1.1584   26.0346 C   0  0  0  0  0  0  0  0  0  0  0  0
  -25.1439    2.4936   25.7800 C   0  0  0  0  0  0  0  0  0  0  0  0
  -24.4883    3.3223   26.7151 C   0  0  0  0  0  0  0  0  0  0  0  0
  -24.1267    2.7601   27.9417 C   0  0  0  0  0  0  0  0  0  0  0  0
  -24.5725    1.5222   28.2713 C   0  0  0  0  0  0  0  0  0  0  0  0
  -32.5637   -3.1506   30.4809 N   0  0  0  0  0  0  0  0  0  0  0  0
  -32.4870   -4.2518   30.2732 C   0  0  0  0  0  0  0  0  0  0  0  0
  -33.1418   -5.2225   30.9387 C   0  0  0  0  0  0  0  0  0  0  0  0
  -31.6348   -4.7959   29.1666 C   0  0  0  0  0  0  0  0  0  0  0  0
  -31.4986   -6.1419   28.7874 C   0  0  0  0  0  0  0  0  0  0  0  0
  -33.0214   -6.6580   30.6040 C   0  0  0  0  0  0  0  0  0  0  0  0
  -32.1841   -7.0559   29.5657 C   0  0  0  0  0  0  0  0  0  0  0  0
  -33.4805   -2.7574   31.6496 C   0  0  0  0  0  0  0  0  0  0  0  0
  2  7  1  0
  9 10  1  0
 10 11  2  3
 11 12  1  0
  3 21  1  0
 21 22  1  0
 15 28  1  0
 28 29  1  0
 28 35  1  0
 29 30  2  0
 30 33  1  0
 33 34  2  0
 34 32  1  0
 32 31  2  0
 31 29  1  0
 22 23  2  0
 23 24  1  0
 24 25  2  0
 25 26  1  0
 26 27  2  0
 27 22  1  0
 12 16  2  0
 16 17  1  0
 17 18  2  0
 18 20  1  0
 20 19  2  0
 19 12  1  0
  7  8  2  0
  8 15  1  0
 15 14  2  0
 14 13  1  0
 13  9  2  0
  9  7  1  0
  1  2  2  0
  2  5  1  0
  5  6  2  0
  6  4  1  0
  4  3  2  0
  3  1  1  0
M  END

$$$$
