No_1398-gen_results/8p0m/2024-11-26-14-13-15/
     RDKit          3D

 10 10  0  0  0  0  0  0  0  0999 V2000
  -28.1493   -0.8198   28.9079 Cl  0  0  0  0  0  0  0  0  0  0  0  0
  -28.5324   -0.0471   29.7727 C   0  0  0  0  0  0  0  0  0  0  0  0
  -29.6682   -0.0995   30.1894 F   0  0  0  0  0  0  0  0  0  0  0  0
  -27.6716    0.9796   30.3307 C   0  0  0  0  0  0  0  0  0  0  0  0
  -26.5007    1.1766   29.7530 C   0  0  0  0  0  0  0  0  0  0  0  0
  -25.6772    2.1624   29.8405 C   0  0  0  0  0  0  0  0  0  0  0  0
  -24.3096    2.2487   29.2370 C   0  0  0  0  0  0  0  0  0  0  0  0
  -23.9620    1.1659   28.4368 C   0  0  0  0  0  0  0  0  0  0  0  0
  -24.8069    0.1127   28.3326 C   0  0  0  0  0  0  0  0  0  0  0  0
  -25.9649    0.0859   28.9437 C   0  0  0  0  0  0  0  0  0  0  0  0
  1  2  1  0
  2  3  1  0
  2  4  1  0
  4  5  1  0
  5  6  2  0
  6  7  1  0
  7  8  2  0
  8  9  1  0
  9 10  2  0
 10  5  1  0
M  END

$$$$
