No_1378-gen_results/8p0m/2024-11-26-14-13-15/
     RDKit          3D

 24 27  0  0  0  0  0  0  0  0999 V2000
  -28.0162   -0.8135   28.8779 C   0  0  0  0  0  0  0  0  0  0  0  0
  -28.4690   -0.7850   29.8287 C   0  0  0  0  0  0  0  0  0  0  0  0
  -27.1356    0.2359   28.5352 C   0  0  0  0  0  0  0  0  0  0  0  0
  -26.8745    1.2825   29.3982 C   0  0  0  0  0  0  0  0  0  0  0  0
  -28.3613    0.1987   30.9244 C   0  0  0  0  0  0  0  0  0  0  0  0
  -27.5277    1.2234   30.6356 C   0  0  0  0  0  0  0  0  0  0  0  0
  -26.3387    0.0638   27.0297 Cl  0  0  0  0  0  0  0  0  0  0  0  0
  -25.9673    2.3687   29.0678 C   0  0  0  0  0  0  0  0  0  0  0  0
  -25.2236    2.8353   29.9333 N   0  0  0  0  0  0  0  0  0  0  0  0
  -26.7063    3.5821   28.4920 C   0  0  0  0  0  0  0  0  0  0  0  0
  -24.8378    1.9664   27.9876 C   0  0  0  0  0  0  0  0  0  0  0  0
  -23.6385    1.6535   28.6104 C   0  0  0  0  0  0  0  0  0  0  0  0
  -23.8022    2.2776   30.0123 C   0  0  0  0  0  0  0  0  0  0  0  0
  -25.5813    3.4676   31.2628 C   0  0  0  0  0  0  0  0  0  0  0  0
  -25.3682    2.9952   32.4776 C   0  0  0  0  0  0  0  0  0  0  0  0
  -26.2080    4.8006   31.1127 C   0  0  0  0  0  0  0  0  0  0  0  0
  -25.7718    3.6989   33.6549 C   0  0  0  0  0  0  0  0  0  0  0  0
  -26.5828    5.4875   32.2331 C   0  0  0  0  0  0  0  0  0  0  0  0
  -26.3707    4.9465   33.5207 C   0  0  0  0  0  0  0  0  0  0  0  0
  -27.2417    3.6205   27.1966 C   0  0  0  0  0  0  0  0  0  0  0  0
  -28.1544    4.0130   27.0260 C   0  0  0  0  0  0  0  0  0  0  0  0
  -28.8851    5.0256   27.8433 C   0  0  0  0  0  0  0  0  0  0  0  0
  -28.3142    5.1924   29.0884 C   0  0  0  0  0  0  0  0  0  0  0  0
  -27.2983    4.4115   29.4768 C   0  0  0  0  0  0  0  0  0  0  0  0
  3  7  1  0
  4  8  1  0
  8  9  1  0
  8 10  1  0
  8 11  1  0
 11 12  2  0
  9 13  1  0
 12 13  1  0
  9 14  1  0
 14 15  2  0
 15 17  1  0
 17 19  2  0
 19 18  1  0
 18 16  2  0
 16 14  1  0
 10 20  2  0
 20 21  1  0
 21 22  2  0
 22 23  1  0
 23 24  2  0
 24 10  1  0
  1  2  2  0
  2  5  1  0
  5  6  2  0
  6  4  1  0
  4  3  2  0
  3  1  1  0
M  END

$$$$
