No_1300-gen_results/8p0m/2024-11-26-14-13-15/
     RDKit          3D

 21 23  0  0  0  0  0  0  0  0999 V2000
  -28.0162   -0.8135   28.8779 C   0  0  0  0  0  0  0  0  0  0  0  0
  -28.4690   -0.7850   29.8287 C   0  0  0  0  0  0  0  0  0  0  0  0
  -26.5042   -0.7777   28.8766 C   0  0  0  0  0  0  0  0  0  0  0  0
  -25.8552   -1.6534   29.6136 N   0  0  0  0  0  0  0  0  0  0  0  0
  -28.1381   -1.8885   30.9026 C   0  0  0  0  0  0  0  0  0  0  0  0
  -26.5964   -2.0371   30.8532 C   0  0  0  0  0  0  0  0  0  0  0  0
  -24.6190   -2.1182   29.4263 C   0  0  0  0  0  0  0  0  0  0  0  0
  -23.5726   -1.1912   29.3366 C   0  0  0  0  0  0  0  0  0  0  0  0
  -23.8359    0.1183   29.5623 C   0  0  0  0  0  0  0  0  0  0  0  0
  -22.7702    1.0557   29.2939 C   0  0  0  0  0  0  0  0  0  0  0  0
  -21.5886    0.6034   28.6633 C   0  0  0  0  0  0  0  0  0  0  0  0
  -21.3262   -0.8016   28.6321 C   0  0  0  0  0  0  0  0  0  0  0  0
  -22.3493   -1.6067   28.8441 C   0  0  0  0  0  0  0  0  0  0  0  0
  -24.4077   -3.3458   29.6336 O   0  0  0  0  0  0  0  0  0  0  0  0
  -28.8384   -2.5504   31.7190 N   0  0  0  0  0  0  0  0  0  0  0  0
  -29.2434   -3.8143   31.4385 C   0  0  0  0  0  0  0  0  0  0  0  0
  -29.3408   -1.9660   32.9212 C   0  0  0  0  0  0  0  0  0  0  0  0
  -30.0604   -2.7126   33.7828 C   0  0  0  0  0  0  0  0  0  0  0  0
  -29.9653   -4.6773   32.3349 C   0  0  0  0  0  0  0  0  0  0  0  0
  -30.3740   -4.0796   33.5184 C   0  0  0  0  0  0  0  0  0  0  0  0
  -25.9135   -0.3745   27.8232 O   0  0  0  0  0  0  0  0  0  0  0  0
  1  2  1  0
  1  3  1  0
  3  4  1  0
  2  5  1  0
  4  6  1  0
  5  6  1  0
  4  7  1  0
  7  8  1  0
  7 14  2  0
  5 15  1  0
 15 16  1  0
 15 17  1  0
 18 20  1  0
 19 20  1  0
  3 21  2  0
 16 19  1  0
 18 17  1  0
  8  9  2  0
  9 10  1  0
 10 11  2  0
 11 12  1  0
 12 13  2  0
 13  8  1  0
M  END

$$$$
