No_1663-gen_results/8p0m/2024-11-26-14-13-15/
     RDKit          3D

 30 33  0  0  0  0  0  0  0  0999 V2000
  -28.0162   -0.8135   28.8779 C   0  0  0  0  0  0  0  0  0  0  0  0
  -27.0636   -0.1189   28.6079 C   0  0  0  0  0  0  0  0  0  0  0  0
  -26.9287    1.1713   29.0083 C   0  0  0  0  0  0  0  0  0  0  0  0
  -27.9560    1.7411   29.7840 C   0  0  0  0  0  0  0  0  0  0  0  0
  -29.0569   -0.3271   29.7466 C   0  0  0  0  0  0  0  0  0  0  0  0
  -28.9828    0.9722   30.1516 C   0  0  0  0  0  0  0  0  0  0  0  0
  -25.9911   -0.6119   27.8566 O   0  0  0  0  0  0  0  0  0  0  0  0
  -24.9038   -1.1483   28.5775 C   0  0  0  0  0  0  0  0  0  0  0  0
  -23.7733   -0.9238   28.7488 C   0  0  0  0  0  0  0  0  0  0  0  0
  -25.2670   -2.5528   29.1249 C   0  0  0  0  0  0  0  0  0  0  0  0
  -22.7926   -1.5184   29.4729 C   0  0  0  0  0  0  0  0  0  0  0  0
  -24.3845   -3.2812   29.7863 C   0  0  0  0  0  0  0  0  0  0  0  0
  -23.1236   -2.7642   30.0154 C   0  0  0  0  0  0  0  0  0  0  0  0
  -30.3412   -1.3550   30.1753 Cl  0  0  0  0  0  0  0  0  0  0  0  0
  -23.2799    0.4784   28.1337 C   0  0  0  0  0  0  0  0  0  0  0  0
  -22.1629    1.1139   28.5809 C   0  0  0  0  0  0  0  0  0  0  0  0
  -21.7903    2.3356   27.8461 C   0  0  0  0  0  0  0  0  0  0  0  0
  -22.5906    2.4205   26.7067 C   0  0  0  0  0  0  0  0  0  0  0  0
  -23.7187    1.0438   26.9046 C   0  0  0  0  0  0  0  0  0  0  0  0
  -23.8847    1.0201   28.7487 O   0  0  0  0  0  0  0  0  0  0  0  0
  -24.6176    0.8899   25.9916 C   0  0  0  0  0  0  0  0  0  0  0  0
  -22.9759    0.4777   26.3874 O   0  0  0  0  0  0  0  0  0  0  0  0
  -22.5436    1.3716   25.7645 C   0  0  0  0  0  0  0  0  0  0  0  0
  -23.5897    1.4892   30.0287 C   0  0  0  0  0  0  0  0  0  0  0  0
  -21.9283    0.8829   29.7623 O   0  0  0  0  0  0  0  0  0  0  0  0
  -24.0925    0.8842   31.0972 N   0  0  0  0  0  0  0  0  0  0  0  0
  -23.6917    2.9428   30.2479 C   0  0  0  0  0  0  0  0  0  0  0  0
  -21.8770   -0.3681   30.2154 C   0  0  0  0  0  0  0  0  0  0  0  0
  -23.8371    2.4162   30.4511 Br  0  0  0  0  0  0  0  0  0  0  0  0
  -23.9453    0.0309   32.0910 C   0  0  0  0  0  0  0  0  0  0  0  0
  2  7  1  0
  7  8  1  0
  5 14  1  0
  9 15  1  0
 15 16  2  0
 16 17  1  0
 17 18  2  3
 18 19  1  0
 15 20  1  0
 19 21  1  0
 19 22  1  0
 18 23  1  0
 22 23  1  0
 20 24  1  0
 16 25  1  0
 24 26  1  0
 24 27  1  0
 11 28  1  0
 25 28  1  0
 24 29  1  0
 26 30  1  0
  8  9  2  0
  9 11  1  0
 11 13  2  0
 13 12  1  0
 12 10  2  0
 10  8  1  0
  1  2  2  0
  2  3  1  0
  3  4  2  0
  4  6  1  0
  6  5  2  0
  5  1  1  0
M  END

$$$$
