No_1893-gen_results/8p0m/2024-11-26-14-13-15/
     RDKit          3D

 20 22  0  0  0  0  0  0  0  0999 V2000
  -28.0162   -0.8135   28.8779 C   0  0  0  0  0  0  0  0  0  0  0  0
  -28.4690   -0.7850   29.8287 C   0  0  0  0  0  0  0  0  0  0  0  0
  -27.0871    0.2903   28.6377 C   0  0  0  0  0  0  0  0  0  0  0  0
  -26.8317    1.2487   29.5869 C   0  0  0  0  0  0  0  0  0  0  0  0
  -28.3914    0.0801   31.0065 C   0  0  0  0  0  0  0  0  0  0  0  0
  -27.4940    1.1521   30.7841 C   0  0  0  0  0  0  0  0  0  0  0  0
  -26.3172    0.3994   27.3653 C   0  0  0  0  0  0  0  0  0  0  0  0
  -24.9405    0.2550   27.5028 C   0  0  0  0  0  0  0  0  0  0  0  0
  -26.9129    0.5860   26.1397 C   0  0  0  0  0  0  0  0  0  0  0  0
  -26.1769    0.4192   24.9937 C   0  0  0  0  0  0  0  0  0  0  0  0
  -24.1284    0.4169   26.3366 C   0  0  0  0  0  0  0  0  0  0  0  0
  -24.7912    0.4642   25.1030 C   0  0  0  0  0  0  0  0  0  0  0  0
  -24.2095    0.2065   28.7355 C   0  0  0  0  0  0  0  0  0  0  0  0
  -23.4076   -0.3827   29.2225 C   0  0  0  0  0  0  0  0  0  0  0  0
  -22.6832   -0.2799   30.4802 C   0  0  0  0  0  0  0  0  0  0  0  0
  -23.3768    0.5351   31.3916 C   0  0  0  0  0  0  0  0  0  0  0  0
  -24.3478    1.4066   30.9985 C   0  0  0  0  0  0  0  0  0  0  0  0
  -24.8573    1.3152   29.6819 C   0  0  0  0  0  0  0  0  0  0  0  0
  -24.7169    2.8030   29.0550 C   0  0  0  0  0  0  0  0  0  0  0  0
  -27.2227    2.7163   29.0402 C   0  0  0  0  0  0  0  0  0  0  0  0
  3  7  1  0
  8 13  1  0
 18 19  1  0
  4 20  1  0
 13 14  2  0
 14 15  1  0
 15 16  2  0
 16 17  1  0
 17 18  2  0
 18 13  1  0
  7  8  2  0
  8 11  1  0
 11 12  2  0
 12 10  1  0
 10  9  2  0
  9  7  1  0
  1  2  2  0
  2  5  1  0
  5  6  2  0
  6  4  1  0
  4  3  2  0
  3  1  1  0
M  END

$$$$
