No_1320-gen_results/8p0m/2024-11-26-14-13-15/
     RDKit          3D

 31 35  0  0  0  0  0  0  0  0999 V2000
  -28.0162   -0.8135   28.8779 C   0  0  0  0  0  0  0  0  0  0  0  0
  -28.4690   -0.7850   29.8287 C   0  0  0  0  0  0  0  0  0  0  0  0
  -26.5042   -0.7777   28.8766 C   0  0  0  0  0  0  0  0  0  0  0  0
  -25.8103   -0.8531   30.1028 C   0  0  0  0  0  0  0  0  0  0  0  0
  -27.9906   -0.8916   31.2257 C   0  0  0  0  0  0  0  0  0  0  0  0
  -26.6042   -0.8676   31.2652 C   0  0  0  0  0  0  0  0  0  0  0  0
  -30.0739   -0.8360   29.8615 C   0  0  0  0  0  0  0  0  0  0  0  0
  -30.6825   -0.0696   30.6918 O   0  0  0  0  0  0  0  0  0  0  0  0
  -30.6226   -1.5289   29.0126 O   0  0  0  0  0  0  0  0  0  0  0  0
  -25.6461   -0.7243   27.6859 C   0  0  0  0  0  0  0  0  0  0  0  0
  -25.8831    0.3620   26.7812 C   0  0  0  0  0  0  0  0  0  0  0  0
  -25.5416    1.3420   26.6846 C   0  0  0  0  0  0  0  0  0  0  0  0
  -25.8197    2.2975   25.6330 C   0  0  0  0  0  0  0  0  0  0  0  0
  -26.6219   -0.0738   25.4549 C   0  0  0  0  0  0  0  0  0  0  0  0
  -27.2325    0.7571   24.9079 C   0  0  0  0  0  0  0  0  0  0  0  0
  -28.1524    0.3442   23.7618 C   0  0  0  0  0  0  0  0  0  0  0  0
  -26.7831    2.0790   24.7673 C   0  0  0  0  0  0  0  0  0  0  0  0
  -29.5426    0.2528   24.3042 C   0  0  0  0  0  0  0  0  0  0  0  0
  -30.3735   -0.7239   23.9721 C   0  0  0  0  0  0  0  0  0  0  0  0
  -31.6885   -0.9106   24.4931 C   0  0  0  0  0  0  0  0  0  0  0  0
  -32.0869   -0.0926   25.5618 C   0  0  0  0  0  0  0  0  0  0  0  0
  -31.2204    0.9371   25.9913 C   0  0  0  0  0  0  0  0  0  0  0  0
  -29.9435    1.1033   25.4373 C   0  0  0  0  0  0  0  0  0  0  0  0
  -31.6635    1.7984   27.1279 C   0  0  0  0  0  0  0  0  0  0  0  0
  -30.7792    2.6511   27.6580 C   0  0  0  0  0  0  0  0  0  0  0  0
  -31.1177    3.5613   28.7210 C   0  0  0  0  0  0  0  0  0  0  0  0
  -30.1768    4.4749   29.2696 C   0  0  0  0  0  0  0  0  0  0  0  0
  -28.8673    4.4448   28.7345 C   0  0  0  0  0  0  0  0  0  0  0  0
  -28.4971    3.5808   27.7285 C   0  0  0  0  0  0  0  0  0  0  0  0
  -29.4141    2.7066   27.2582 C   0  0  0  0  0  0  0  0  0  0  0  0
  -29.0262    1.9676   26.0564 C   0  0  0  0  0  0  0  0  0  0  0  0
  2  7  1  0
  7  8  1  0
  7  9  2  0
  3 10  1  0
 10 11  1  0
 15 16  1  0
 16 18  1  0
 18 19  2  0
 19 20  1  0
 20 21  2  0
 21 22  1  0
 23 18  1  0
 11 12  2  0
 12 13  1  0
 13 17  2  0
 17 15  1  0
 15 14  2  0
 14 11  1  0
 25 26  1  0
 26 27  2  0
 27 28  1  0
 28 29  2  0
 29 30  1  0
 22 23  2  0
 23 31  1  0
 31 30  2  0
 30 25  1  0
 25 24  2  0
 24 22  1  0
  1  2  2  0
  2  5  1  0
  5  6  2  0
  6  4  1  0
  4  3  2  0
  3  1  1  0
M  END

$$$$
