No_1987-gen_results/8p0m/2024-11-26-14-13-15/
     RDKit          3D

 22 23  0  0  0  0  0  0  0  0999 V2000
  -28.0162   -0.8135   28.8779 C   0  0  0  0  0  0  0  0  0  0  0  0
  -27.0636   -0.1190   28.6079 C   0  0  0  0  0  0  0  0  0  0  0  0
  -25.8176   -0.3427   29.0488 N   0  0  0  0  0  0  0  0  0  0  0  0
  -25.5552   -1.4726   29.7295 C   0  0  0  0  0  0  0  0  0  0  0  0
  -27.8546   -1.9289   29.8134 C   0  0  0  0  0  0  0  0  0  0  0  0
  -26.5522   -2.2469   30.2087 C   0  0  0  0  0  0  0  0  0  0  0  0
  -27.1946    1.0199   27.9250 F   0  0  0  0  0  0  0  0  0  0  0  0
  -24.6314    0.5020   28.6556 C   0  0  0  0  0  0  0  0  0  0  0  0
  -23.4635    0.1401   29.0762 C   0  0  0  0  0  0  0  0  0  0  0  0
  -22.3776    1.0532   28.8213 C   0  0  0  0  0  0  0  0  0  0  0  0
  -22.5235    2.0913   27.8373 C   0  0  0  0  0  0  0  0  0  0  0  0
  -24.7650    1.5730   27.7836 C   0  0  0  0  0  0  0  0  0  0  0  0
  -23.6934    2.3272   27.3779 C   0  0  0  0  0  0  0  0  0  0  0  0
  -28.9712   -2.7879   30.2206 C   0  0  0  0  0  0  0  0  0  0  0  0
  -30.0645   -2.3278   30.4938 N   0  0  0  0  0  0  0  0  0  0  0  0
  -28.7453   -4.0447   30.3936 O   0  0  0  0  0  0  0  0  0  0  0  0
  -31.2407   -3.1417   30.9258 C   0  0  0  0  0  0  0  0  0  0  0  0
  -32.2267   -3.1109   30.1159 C   0  0  0  0  0  0  0  0  0  0  0  0
  -32.4680   -2.0806   29.5101 F   0  0  0  0  0  0  0  0  0  0  0  0
  -33.4098   -3.4462   30.7715 F   0  0  0  0  0  0  0  0  0  0  0  0
  -32.0735   -4.1317   29.1583 F   0  0  0  0  0  0  0  0  0  0  0  0
  -24.3551   -1.7822   30.1721 O   0  0  0  0  0  0  0  0  0  0  0  0
  1  2  1  0
  2  3  1  0
  3  4  1  0
  4  6  1  0
  5  6  1  0
  2  7  1  0
  3  8  1  0
  5 14  1  0
 14 15  1  0
 14 16  2  0
 15 17  1  0
 17 18  1  0
 18 19  1  0
 18 20  1  0
 18 21  1  0
  4 22  2  0
  1  5  1  0
  8  9  2  0
  9 10  1  0
 10 11  2  0
 11 13  1  0
 13 12  2  0
 12  8  1  0
M  END

$$$$
