No_1624-gen_results/8p0m/2024-11-26-14-13-15/
     RDKit          3D

 17 19  0  0  0  0  0  0  0  0999 V2000
  -28.0727   -1.2542   28.5316 F   0  0  0  0  0  0  0  0  0  0  0  0
  -27.3591   -0.3792   28.7224 C   0  0  0  0  0  0  0  0  0  0  0  0
  -27.7014    0.7608   29.1249 C   0  0  0  0  0  0  0  0  0  0  0  0
  -25.8844   -0.6918   28.4374 C   0  0  0  0  0  0  0  0  0  0  0  0
  -25.1099    0.1164   28.6678 C   0  0  0  0  0  0  0  0  0  0  0  0
  -26.6815    1.8170   29.3203 C   0  0  0  0  0  0  0  0  0  0  0  0
  -25.3199    1.4887   29.0584 C   0  0  0  0  0  0  0  0  0  0  0  0
  -24.3192    2.3571   29.2380 O   0  0  0  0  0  0  0  0  0  0  0  0
  -23.1080    1.8520   28.7844 C   0  0  0  0  0  0  0  0  0  0  0  0
  -23.6200   -0.0525   28.3406 C   0  0  0  0  0  0  0  0  0  0  0  0
  -22.6301    0.8896   28.4850 C   0  0  0  0  0  0  0  0  0  0  0  0
  -26.9786    3.1613   29.8693 C   0  0  0  0  0  0  0  0  0  0  0  0
  -26.7640    4.1995   29.4601 C   0  0  0  0  0  0  0  0  0  0  0  0
  -27.0020    5.4944   30.0115 C   0  0  0  0  0  0  0  0  0  0  0  0
  -27.1507    3.1592   31.4050 C   0  0  0  0  0  0  0  0  0  0  0  0
  -27.4174    4.3002   32.0806 C   0  0  0  0  0  0  0  0  0  0  0  0
  -27.2784    5.5258   31.4086 C   0  0  0  0  0  0  0  0  0  0  0  0
  1  2  1  0
  7  8  1  0
  8  9  1  0
  5 10  1  0
  9 11  2  0
 10 11  2  0
  6 12  1  0
 12 13  2  0
 13 14  1  0
 14 17  2  0
 17 16  1  0
 16 15  2  0
 15 12  1  0
  2  3  2  0
  3  6  1  0
  6  7  2  0
  7  5  1  0
  5  4  2  0
  4  2  1  0
M  END

$$$$
