No_1236-gen_results/8p0m/2024-11-26-14-13-15/
     RDKit          3D

 19 20  0  0  0  0  0  0  0  0999 V2000
  -28.0162   -0.8135   28.8779 C   0  0  0  0  0  0  0  0  0  0  0  0
  -27.0636   -0.1190   28.6079 C   0  0  0  0  0  0  0  0  0  0  0  0
  -26.8756    1.1325   28.9134 C   0  0  0  0  0  0  0  0  0  0  0  0
  -25.6883    1.9515   28.5672 C   0  0  0  0  0  0  0  0  0  0  0  0
  -24.6394    1.2834   27.8753 C   0  0  0  0  0  0  0  0  0  0  0  0
  -24.8068   -0.0513   27.6040 C   0  0  0  0  0  0  0  0  0  0  0  0
  -25.9019   -0.7670   27.9511 C   0  0  0  0  0  0  0  0  0  0  0  0
  -28.6392   -0.5118   30.2403 C   0  0  0  0  0  0  0  0  0  0  0  0
  -29.6536   -1.1144   30.6354 C   0  0  0  0  0  0  0  0  0  0  0  0
  -23.4500    1.9911   27.4655 C   0  0  0  0  0  0  0  0  0  0  0  0
  -23.1429    2.6575   26.6254 N   0  0  0  0  0  0  0  0  0  0  0  0
  -22.2014    1.6231   28.3645 C   0  0  0  0  0  0  0  0  0  0  0  0
  -30.2319   -2.1536   29.8404 C   0  0  0  0  0  0  0  0  0  0  0  0
  -31.2972   -2.9465   30.4270 C   0  0  0  0  0  0  0  0  0  0  0  0
  -31.7480   -2.6837   31.3823 C   0  0  0  0  0  0  0  0  0  0  0  0
  -31.3694   -1.6865   32.3373 C   0  0  0  0  0  0  0  0  0  0  0  0
  -30.2729   -0.9409   31.9392 C   0  0  0  0  0  0  0  0  0  0  0  0
  -21.1666    1.3065   28.1150 N   0  0  0  0  0  0  0  0  0  0  0  0
  -22.5913    1.3041   29.6826 O   0  0  0  0  0  0  0  0  0  0  0  0
  1  8  1  0
  5 10  1  0
 10 11  2  0
 10 12  1  0
 12 18  1  0
 12 19  2  0
  1  2  1  0
  8  9  1  0
  2  3  2  0
  3  4  1  0
  4  5  2  0
  5  6  1  0
  6  7  2  0
  7  2  1  0
  9 13  2  0
 13 14  1  0
 14 15  2  0
 15 16  1  0
 16 17  2  0
 17  9  1  0
M  END

$$$$
