No_1528-gen_results/8p0m/2024-11-26-14-13-15/
     RDKit          3D

 29 32  0  0  0  0  0  0  0  0999 V2000
  -28.0162   -0.8135   28.8779 C   0  0  0  0  0  0  0  0  0  0  0  0
  -28.4690   -0.7850   29.8287 C   0  0  0  0  0  0  0  0  0  0  0  0
  -28.1960    0.3478   28.0550 C   0  0  0  0  0  0  0  0  0  0  0  0
  -29.0191    1.3501   28.3782 C   0  0  0  0  0  0  0  0  0  0  0  0
  -29.4107    0.1803   30.3782 C   0  0  0  0  0  0  0  0  0  0  0  0
  -29.6059    1.2495   29.6193 C   0  0  0  0  0  0  0  0  0  0  0  0
  -27.4597    0.3802   26.7091 C   0  0  0  0  0  0  0  0  0  0  0  0
  -26.0094    0.3317   26.7236 C   0  0  0  0  0  0  0  0  0  0  0  0
  -25.2366    0.2125   27.9051 C   0  0  0  0  0  0  0  0  0  0  0  0
  -23.8699    0.3041   27.8529 C   0  0  0  0  0  0  0  0  0  0  0  0
  -23.0809   -0.0097   29.0093 C   0  0  0  0  0  0  0  0  0  0  0  0
  -21.6954    0.1888   28.9397 C   0  0  0  0  0  0  0  0  0  0  0  0
  -21.1284    1.0316   28.0044 C   0  0  0  0  0  0  0  0  0  0  0  0
  -21.9816    1.6948   27.0666 C   0  0  0  0  0  0  0  0  0  0  0  0
  -23.3433    1.3900   27.1177 C   0  0  0  0  0  0  0  0  0  0  0  0
  -28.2044    0.3492   25.5561 C   0  0  0  0  0  0  0  0  0  0  0  0
  -29.4091   -0.0166   25.4818 C   0  0  0  0  0  0  0  0  0  0  0  0
  -30.0502   -0.0002   24.1620 C   0  0  0  0  0  0  0  0  0  0  0  0
  -31.3860   -0.4294   24.0467 C   0  0  0  0  0  0  0  0  0  0  0  0
  -31.9872   -1.0998   25.0985 C   0  0  0  0  0  0  0  0  0  0  0  0
  -31.4303   -1.0885   26.3855 C   0  0  0  0  0  0  0  0  0  0  0  0
  -30.1892   -0.5988   26.5947 C   0  0  0  0  0  0  0  0  0  0  0  0
  -27.4176    0.8325   24.4076 C   0  0  0  0  0  0  0  0  0  0  0  0
  -25.3699    0.5577   25.4833 C   0  0  0  0  0  0  0  0  0  0  0  0
  -26.0800    0.6755   24.3570 C   0  0  0  0  0  0  0  0  0  0  0  0
  -32.3666   -1.7334   27.6966 Cl  0  0  0  0  0  0  0  0  0  0  0  0
  -28.2807   -1.9938   30.8775 C   0  0  0  0  0  0  0  0  0  0  0  0
  -28.9360   -2.3986   31.6133 O   0  0  0  0  0  0  0  0  0  0  0  0
  -26.9492   -2.3715   30.8753 O   0  0  0  0  0  0  0  0  0  0  0  0
  3  7  1  0
  8  9  1  0
 21 26  1  0
  2 27  1  0
 27 28  2  0
 27 29  1  0
  9 10  1  0
 17 16  1  0
 17 18  2  0
 18 19  1  0
 19 20  2  0
 20 21  1  0
 21 22  2  0
 22 17  1  0
 10 11  2  0
 11 12  1  0
 12 13  2  0
 13 14  1  0
 14 15  2  0
 15 10  1  0
  1  2  2  0
  2  5  1  0
  5  6  2  0
  6  4  1  0
  4  3  2  0
  3  1  1  0
  7  8  1  0
  8 24  2  0
 24 25  1  0
 25 23  2  0
 23 16  1  0
 16  7  2  0
M  END

$$$$
