No_1023-gen_results/8p0m/2024-11-26-14-13-15/
     RDKit          3D

 23 25  0  0  0  0  0  0  0  0999 V2000
  -28.0162   -0.8135   28.8779 C   0  0  0  0  0  0  0  0  0  0  0  0
  -27.0636   -0.1189   28.6079 C   0  0  0  0  0  0  0  0  0  0  0  0
  -26.9849    0.5972   27.5218 N   0  0  0  0  0  0  0  0  0  0  0  0
  -27.9606   -1.5421   30.1660 C   0  0  0  0  0  0  0  0  0  0  0  0
  -26.8633   -1.6702   30.6613 C   0  0  0  0  0  0  0  0  0  0  0  0
  -25.6309   -1.1471   30.3294 C   0  0  0  0  0  0  0  0  0  0  0  0
  -25.7307   -0.3002   29.1969 C   0  0  0  0  0  0  0  0  0  0  0  0
  -26.6932    1.9442   27.4779 C   0  0  0  0  0  0  0  0  0  0  0  0
  -26.0521    2.6977   27.1006 C   0  0  0  0  0  0  0  0  0  0  0  0
  -24.7959    2.3870   26.2751 C   0  0  0  0  0  0  0  0  0  0  0  0
  -23.6622    2.0800   26.8396 C   0  0  0  0  0  0  0  0  0  0  0  0
  -23.4832    1.9647   28.2574 C   0  0  0  0  0  0  0  0  0  0  0  0
  -22.1516    1.5834   28.7450 C   0  0  0  0  0  0  0  0  0  0  0  0
  -21.1812    1.1787   27.8728 C   0  0  0  0  0  0  0  0  0  0  0  0
  -27.0835    0.0665   26.1607 C   0  0  0  0  0  0  0  0  0  0  0  0
  -27.7579    2.6314   28.5038 C   0  0  0  0  0  0  0  0  0  0  0  0
  -28.6164    2.3394   29.0241 C   0  0  0  0  0  0  0  0  0  0  0  0
  -29.4334    3.0989   29.9044 C   0  0  0  0  0  0  0  0  0  0  0  0
  -29.0703    4.3854   30.1012 C   0  0  0  0  0  0  0  0  0  0  0  0
  -27.4653    4.1453   28.8840 C   0  0  0  0  0  0  0  0  0  0  0  0
  -28.0845    4.9553   29.5883 C   0  0  0  0  0  0  0  0  0  0  0  0
  -26.2063    4.6893   28.1481 N   0  0  0  0  0  0  0  0  0  0  0  0
  -25.6606    4.1668   27.3544 C   0  0  0  0  0  0  0  0  0  0  0  0
  2  3  1  0
  3  8  1  0
  9 10  1  0
 10 11  2  3
 11 12  1  0
 12 13  2  3
 13 14  1  0
  3 15  1  0
  8  9  2  0
  9 23  1  0
 23 22  2  0
 22 20  1  0
 16  8  1  0
  1  2  2  0
  2  7  1  0
  7  6  2  0
  6  5  1  0
  5  4  2  0
  4  1  1  0
 16 17  2  0
 17 18  1  0
 18 19  2  0
 19 21  1  0
 21 20  2  0
 20 16  1  0
M  END

$$$$
