No_1345-gen_results/8p0m/2024-11-26-14-13-15/
     RDKit          3D

 11 11  0  0  0  0  0  0  0  0999 V2000
  -28.0727   -1.2542   28.5316 F   0  0  0  0  0  0  0  0  0  0  0  0
  -27.3591   -0.3792   28.7224 C   0  0  0  0  0  0  0  0  0  0  0  0
  -26.3323   -0.6441   29.4520 C   0  0  0  0  0  0  0  0  0  0  0  0
  -28.0071    0.6981   29.3340 F   0  0  0  0  0  0  0  0  0  0  0  0
  -25.2035    0.2178   29.5553 C   0  0  0  0  0  0  0  0  0  0  0  0
  -23.9810   -0.0040   30.2538 C   0  0  0  0  0  0  0  0  0  0  0  0
  -27.0636    0.1235   27.4711 F   0  0  0  0  0  0  0  0  0  0  0  0
  -23.8009   -1.2307   30.7765 C   0  0  0  0  0  0  0  0  0  0  0  0
  -25.7763   -1.9283   29.9438 C   0  0  0  0  0  0  0  0  0  0  0  0
  -24.6731   -2.1995   30.6428 C   0  0  0  0  0  0  0  0  0  0  0  0
  -26.7015   -2.9976   29.8533 O   0  0  0  0  0  0  0  0  0  0  0  0
  1  2  1  0
  2  3  1  0
  2  4  1  0
  2  7  1  0
  9 11  1  0
  3  5  2  0
  5  6  1  0
  6  8  2  0
  8 10  1  0
 10  9  2  0
  9  3  1  0
M  END

$$$$
