No_1401-gen_results/8p0m/2024-11-26-14-13-15/
     RDKit          3D

 35 37  0  0  0  0  0  0  0  0999 V2000
  -28.0162   -0.8135   28.8779 C   0  0  0  0  0  0  0  0  0  0  0  0
  -27.0636   -0.1189   28.6079 C   0  0  0  0  0  0  0  0  0  0  0  0
  -26.8756    1.1325   28.9134 C   0  0  0  0  0  0  0  0  0  0  0  0
  -25.6883    1.9515   28.5672 C   0  0  0  0  0  0  0  0  0  0  0  0
  -24.6394    1.2834   27.8753 C   0  0  0  0  0  0  0  0  0  0  0  0
  -24.8068   -0.0513   27.6040 C   0  0  0  0  0  0  0  0  0  0  0  0
  -25.9019   -0.7670   27.9511 C   0  0  0  0  0  0  0  0  0  0  0  0
  -28.7202   -0.6024   30.0461 N   0  0  0  0  0  0  0  0  0  0  0  0
  -23.4559    1.9816   27.4642 C   0  0  0  0  0  0  0  0  0  0  0  0
  -22.7376    2.4945   28.0880 O   0  0  0  0  0  0  0  0  0  0  0  0
  -23.2857    1.9966   26.1056 O   0  0  0  0  0  0  0  0  0  0  0  0
  -29.8557   -1.2933   30.4918 C   0  0  0  0  0  0  0  0  0  0  0  0
  -30.4444   -0.9735   31.7216 C   0  0  0  0  0  0  0  0  0  0  0  0
  -30.0571   -2.4381   30.0868 O   0  0  0  0  0  0  0  0  0  0  0  0
  -30.1284   -0.1124   32.4518 O   0  0  0  0  0  0  0  0  0  0  0  0
  -31.6492   -1.7002   32.0532 N   0  0  0  0  0  0  0  0  0  0  0  0
  -32.4572   -1.3275   33.2069 C   0  0  0  0  0  0  0  0  0  0  0  0
  -33.4104   -2.0078   33.3566 C   0  0  0  0  0  0  0  0  0  0  0  0
  -34.2340   -1.8459   34.4909 C   0  0  0  0  0  0  0  0  0  0  0  0
  -33.9027   -0.7505   35.4001 C   0  0  0  0  0  0  0  0  0  0  0  0
  -32.7792   -0.0103   35.1261 C   0  0  0  0  0  0  0  0  0  0  0  0
  -31.9865   -0.2697   34.0645 C   0  0  0  0  0  0  0  0  0  0  0  0
  -34.7748   -0.5185   36.5329 C   0  0  0  0  0  0  0  0  0  0  0  0
  -35.6753   -0.8644   36.8542 O   0  0  0  0  0  0  0  0  0  0  0  0
  -34.2715    0.6393   37.2583 O   0  0  0  0  0  0  0  0  0  0  0  0
  -25.5664    3.3834   28.9047 C   0  0  0  0  0  0  0  0  0  0  0  0
  -26.0871    4.2578   28.0550 N   0  0  0  0  0  0  0  0  0  0  0  0
  -27.1222    5.0524   28.4313 C   0  0  0  0  0  0  0  0  0  0  0  0
  -25.5423    4.3939   26.7738 C   0  0  0  0  0  0  0  0  0  0  0  0
  -27.9150    5.5890   27.5789 C   0  0  0  0  0  0  0  0  0  0  0  0
  -27.3810    5.2987   29.8390 C   0  0  0  0  0  0  0  0  0  0  0  0
  -26.5653    5.0816   30.7270 O   0  0  0  0  0  0  0  0  0  0  0  0
  -28.3302    6.1569   30.1618 N   0  0  0  0  0  0  0  0  0  0  0  0
  -29.2462    6.6606   29.2542 C   0  0  0  0  0  0  0  0  0  0  0  0
  -29.0655    6.3711   27.9067 C   0  0  0  0  0  0  0  0  0  0  0  0
  1  2  2  3
  2  3  1  0
  3  4  1  0
  4  5  1  0
  5  6  1  0
  2  7  1  0
  6  7  1  0
  1  8  1  0
  5  9  1  0
  9 10  1  0
  9 11  2  0
  8 12  1  0
 12 13  1  0
 12 14  2  0
 13 15  2  0
 13 16  1  0
 16 17  1  0
 20 23  1  0
 23 24  2  0
 23 25  1  0
  4 26  1  0
 26 27  1  0
 27 28  1  0
 27 29  1  0
 28 31  1  0
 31 32  2  0
 31 33  1  0
 30 35  1  0
 34 35  1  0
 28 30  1  0
 34 33  1  0
 17 18  2  0
 18 19  1  0
 19 20  2  0
 20 21  1  0
 21 22  2  0
 22 17  1  0
M  END

$$$$
