No_1905-gen_results/8p0m/2024-11-26-14-13-15/
     RDKit          3D

 21 22  0  0  0  0  0  0  0  0999 V2000
  -28.0162   -0.8135   28.8779 C   0  0  0  0  0  0  0  0  0  0  0  0
  -27.0636   -0.1189   28.6079 C   0  0  0  0  0  0  0  0  0  0  0  0
  -25.7647   -0.3897   29.0360 C   0  0  0  0  0  0  0  0  0  0  0  0
  -25.5296   -1.5302   29.9014 C   0  0  0  0  0  0  0  0  0  0  0  0
  -26.6577   -2.2915   30.2035 C   0  0  0  0  0  0  0  0  0  0  0  0
  -27.8548   -1.9555   29.7630 C   0  0  0  0  0  0  0  0  0  0  0  0
  -24.5441    0.4126   28.7379 C   0  0  0  0  0  0  0  0  0  0  0  0
  -24.0952    1.3785   29.5751 C   0  0  0  0  0  0  0  0  0  0  0  0
  -22.9715    2.1448   29.2493 C   0  0  0  0  0  0  0  0  0  0  0  0
  -22.2339    1.9126   28.0417 C   0  0  0  0  0  0  0  0  0  0  0  0
  -23.7826    0.2867   27.5524 C   0  0  0  0  0  0  0  0  0  0  0  0
  -22.6965    1.0118   27.2313 C   0  0  0  0  0  0  0  0  0  0  0  0
  -29.0078   -2.8045   30.1871 C   0  0  0  0  0  0  0  0  0  0  0  0
  -28.9189   -4.0305   30.2619 O   0  0  0  0  0  0  0  0  0  0  0  0
  -29.9667   -2.2135   30.9176 N   0  0  0  0  0  0  0  0  0  0  0  0
  -30.1949   -0.8138   31.0838 C   0  0  0  0  0  0  0  0  0  0  0  0
  -31.3435   -0.5369   31.7424 C   0  0  0  0  0  0  0  0  0  0  0  0
  -31.6499    0.7373   32.0337 C   0  0  0  0  0  0  0  0  0  0  0  0
  -32.8279    1.1450   32.7440 C   0  0  0  0  0  0  0  0  0  0  0  0
  -33.6599    0.0520   33.0834 C   0  0  0  0  0  0  0  0  0  0  0  0
  -33.3765   -1.2161   32.7861 C   0  0  0  0  0  0  0  0  0  0  0  0
  3  7  1  0
  6 13  1  0
 13 14  2  0
 13 15  1  0
 15 16  1  0
 16 17  2  3
 17 18  1  0
 18 19  2  3
 19 20  1  0
 20 21  2  0
  7  8  2  0
  8  9  1  0
  9 10  2  0
 10 12  1  0
 12 11  2  0
 11  7  1  0
  1  2  2  0
  2  3  1  0
  3  4  2  0
  4  5  1  0
  5  6  2  0
  6  1  1  0
M  END

$$$$
