No_1246-gen_results/8p0m/2024-11-26-14-13-15/
     RDKit          3D

 22 25  0  0  0  0  0  0  0  0999 V2000
  -28.0162   -0.8135   28.8779 C   0  0  0  0  0  0  0  0  0  0  0  0
  -27.0636   -0.1189   28.6079 C   0  0  0  0  0  0  0  0  0  0  0  0
  -25.7923   -0.4302   29.0761 C   0  0  0  0  0  0  0  0  0  0  0  0
  -24.5456    0.3494   28.8225 C   0  0  0  0  0  0  0  0  0  0  0  0
  -23.2409    0.0217   29.3323 C   0  0  0  0  0  0  0  0  0  0  0  0
  -23.1926   -1.2816   29.8967 C   0  0  0  0  0  0  0  0  0  0  0  0
  -27.8703   -1.9138   29.8642 C   0  0  0  0  0  0  0  0  0  0  0  0
  -26.6310   -2.3256   30.2990 C   0  0  0  0  0  0  0  0  0  0  0  0
  -25.5115   -1.5728   29.9655 C   0  0  0  0  0  0  0  0  0  0  0  0
  -24.2167   -1.9673   30.3246 C   0  0  0  0  0  0  0  0  0  0  0  0
  -24.5912    1.5912   27.9920 C   0  0  0  0  0  0  0  0  0  0  0  0
  -24.7905    2.6522   28.5272 N   0  0  0  0  0  0  0  0  0  0  0  0
  -24.4276    1.4859   26.7329 O   0  0  0  0  0  0  0  0  0  0  0  0
  -24.8881    3.9842   27.8586 C   0  0  0  0  0  0  0  0  0  0  0  0
  -25.0141    2.8662   30.0494 C   0  0  0  0  0  0  0  0  0  0  0  0
  -26.0024    3.8829   30.3908 C   0  0  0  0  0  0  0  0  0  0  0  0
  -26.3219    3.7915   31.7048 C   0  0  0  0  0  0  0  0  0  0  0  0
  -25.9736    2.7454   32.4347 C   0  0  0  0  0  0  0  0  0  0  0  0
  -25.0540    1.7826   32.0492 C   0  0  0  0  0  0  0  0  0  0  0  0
  -24.6341    1.8481   30.7927 C   0  0  0  0  0  0  0  0  0  0  0  0
  -26.3644    4.8647   29.5061 C   0  0  0  0  0  0  0  0  0  0  0  0
  -25.7638    4.9545   28.2403 C   0  0  0  0  0  0  0  0  0  0  0  0
  4 11  1  0
 11 12  1  0
 11 13  2  0
 12 14  1  0
 12 15  1  0
 16 21  1  0
 14 22  1  0
 21 22  1  0
 15 16  2  0
 16 17  1  0
 17 18  2  0
 18 19  1  0
 19 20  2  0
 20 15  1  0
  1  2  2  0
  2  3  1  0
  9  8  1  0
  8  7  2  0
  7  1  1  0
  3  4  2  0
  4  5  1  0
  5  6  2  0
  6 10  1  0
 10  9  2  0
  9  3  1  0
M  END

$$$$
