No_1933-gen_results/8p0m/2024-11-26-14-13-15/
     RDKit          3D

 35 38  0  0  0  0  0  0  0  0999 V2000
  -28.1229   -1.3353   28.4874 O   0  0  0  0  0  0  0  0  0  0  0  0
  -27.4806   -0.4044   28.7094 C   0  0  0  0  0  0  0  0  0  0  0  0
  -26.3804   -0.0867   27.9394 C   0  0  0  0  0  0  0  0  0  0  0  0
  -27.4232    0.1749   30.0549 N   0  0  0  0  0  0  0  0  0  0  0  0
  -25.4065    0.7421   28.2860 C   0  0  0  0  0  0  0  0  0  0  0  0
  -25.5698    1.4353   29.5751 C   0  0  0  0  0  0  0  0  0  0  0  0
  -24.5006    2.3964   30.0318 C   0  0  0  0  0  0  0  0  0  0  0  0
  -26.5649    1.0802   30.4853 C   0  0  0  0  0  0  0  0  0  0  0  0
  -23.4890    2.6193   29.3134 O   0  0  0  0  0  0  0  0  0  0  0  0
  -24.6527    3.0027   31.1699 O   0  0  0  0  0  0  0  0  0  0  0  0
  -28.5570   -0.2564   30.9047 C   0  0  0  0  0  0  0  0  0  0  0  0
  -28.4683   -0.7124   31.9369 C   0  0  0  0  0  0  0  0  0  0  0  0
  -29.5220   -1.0940   32.8860 C   0  0  0  0  0  0  0  0  0  0  0  0
  -30.8076   -0.8918   32.4067 C   0  0  0  0  0  0  0  0  0  0  0  0
  -30.9703   -0.3927   31.1190 C   0  0  0  0  0  0  0  0  0  0  0  0
  -29.9051   -0.0056   30.3520 C   0  0  0  0  0  0  0  0  0  0  0  0
  -26.7616    1.6476   31.6033 O   0  0  0  0  0  0  0  0  0  0  0  0
  -32.3404   -0.1043   30.6050 C   0  0  0  0  0  0  0  0  0  0  0  0
  -32.9126   -0.8079   29.8706 C   0  0  0  0  0  0  0  0  0  0  0  0
  -34.2517   -0.5420   29.2879 C   0  0  0  0  0  0  0  0  0  0  0  0
  -34.8409    0.6435   29.7324 C   0  0  0  0  0  0  0  0  0  0  0  0
  -34.2098    1.4665   30.5873 C   0  0  0  0  0  0  0  0  0  0  0  0
  -32.9138    1.1820   31.0828 C   0  0  0  0  0  0  0  0  0  0  0  0
  -34.9753    2.9170   31.1246 Cl  0  0  0  0  0  0  0  0  0  0  0  0
  -34.8696   -1.4512   28.4001 C   0  0  0  0  0  0  0  0  0  0  0  0
  -34.4332   -2.0832   27.5254 C   0  0  0  0  0  0  0  0  0  0  0  0
  -32.9498   -1.9499   27.2706 C   0  0  0  0  0  0  0  0  0  0  0  0
  -32.5303   -1.5341   26.4230 C   0  0  0  0  0  0  0  0  0  0  0  0
  -33.0753   -1.1579   25.2591 C   0  0  0  0  0  0  0  0  0  0  0  0
  -32.3997   -0.6147   24.1379 C   0  0  0  0  0  0  0  0  0  0  0  0
  -31.0247   -0.3324   24.2867 C   0  0  0  0  0  0  0  0  0  0  0  0
  -30.3396   -0.6171   25.4378 C   0  0  0  0  0  0  0  0  0  0  0  0
  -30.9733   -1.1164   26.4570 C   0  0  0  0  0  0  0  0  0  0  0  0
  -32.2802   -3.3283   27.8449 C   0  0  0  0  0  0  0  0  0  0  0  0
  -31.5584   -3.8636   27.1939 O   0  0  0  0  0  0  0  0  0  0  0  0
  1  2  2  0
  2  3  1  0
  2  4  1  0
  5  6  1  0
  6  7  1  0
  4  8  1  0
  6  8  1  0
  7  9  2  0
  7 10  1  0
  4 11  1  0
  8 17  2  0
 15 18  1  0
 22 24  1  0
 20 25  1  0
 25 26  2  3
 26 27  1  0
 27 28  1  0
 27 34  1  0
 34 35  2  0
  3  5  1  0
 11 12  2  0
 12 13  1  0
 13 14  2  0
 14 15  1  0
 15 16  2  0
 16 11  1  0
 18 19  2  0
 19 20  1  0
 20 21  2  0
 21 22  1  0
 22 23  2  0
 23 18  1  0
 28 29  2  0
 29 30  1  0
 30 31  2  0
 31 32  1  0
 32 33  2  0
 33 28  1  0
M  END

$$$$
