No_1351-gen_results/8p0m/2024-11-26-14-13-15/
     RDKit          3D

 14 15  0  0  0  0  0  0  0  0999 V2000
  -28.1146   -0.6256   29.0813 Br  0  0  0  0  0  0  0  0  0  0  0  0
  -26.9268    0.4545   28.6846 C   0  0  0  0  0  0  0  0  0  0  0  0
  -26.3163    0.3925   27.4205 C   0  0  0  0  0  0  0  0  0  0  0  0
  -26.8783    0.0210   26.4631 C   0  0  0  0  0  0  0  0  0  0  0  0
  -27.2589    0.7414   25.4408 C   0  0  0  0  0  0  0  0  0  0  0  0
  -28.1559    0.2471   24.4956 C   0  0  0  0  0  0  0  0  0  0  0  0
  -29.2480    0.7535   24.0441 C   0  0  0  0  0  0  0  0  0  0  0  0
  -29.2928    2.2575   24.3147 C   0  0  0  0  0  0  0  0  0  0  0  0
  -28.3445    2.9080   25.0907 C   0  0  0  0  0  0  0  0  0  0  0  0
  -27.4547    2.1670   25.6709 C   0  0  0  0  0  0  0  0  0  0  0  0
  -26.5254    1.5380   29.6675 C   0  0  0  0  0  0  0  0  0  0  0  0
  -25.3143    2.0826   29.5380 C   0  0  0  0  0  0  0  0  0  0  0  0
  -24.5531    1.9985   28.2830 C   0  0  0  0  0  0  0  0  0  0  0  0
  -25.0798    1.1945   27.2611 C   0  0  0  0  0  0  0  0  0  0  0  0
  1  2  1  0
  4  5  1  0
  4  3  1  0
  2  3  2  0
  3 14  1  0
 14 13  2  0
 13 12  1  0
 12 11  2  0
 11  2  1  0
  5  6  2  0
  6  7  1  0
  7  8  2  0
  8  9  1  0
  9 10  2  0
 10  5  1  0
M  END

$$$$
