No_1730-gen_results/8p0m/2024-11-26-14-13-15/
     RDKit          3D

 21 23  0  0  0  0  0  0  0  0999 V2000
  -28.0162   -0.8135   28.8779 C   0  0  0  0  0  0  0  0  0  0  0  0
  -27.0636   -0.1189   28.6079 C   0  0  0  0  0  0  0  0  0  0  0  0
  -26.9716    0.7139   27.5060 C   0  0  0  0  0  0  0  0  0  0  0  0
  -25.8205    1.4909   27.1160 C   0  0  0  0  0  0  0  0  0  0  0  0
  -24.6562    1.4242   27.9180 C   0  0  0  0  0  0  0  0  0  0  0  0
  -23.4598    2.1165   27.6160 C   0  0  0  0  0  0  0  0  0  0  0  0
  -23.5068    2.7076   26.2939 C   0  0  0  0  0  0  0  0  0  0  0  0
  -25.7733   -0.1953   29.4398 C   0  0  0  0  0  0  0  0  0  0  0  0
  -24.6392    0.5412   29.1339 C   0  0  0  0  0  0  0  0  0  0  0  0
  -29.1966   -0.0570   29.3805 C   0  0  0  0  0  0  0  0  0  0  0  0
  -30.3528   -0.7911   29.7721 C   0  0  0  0  0  0  0  0  0  0  0  0
  -30.9597   -0.2883   30.8675 F   0  0  0  0  0  0  0  0  0  0  0  0
  -31.3204   -0.8251   28.8493 F   0  0  0  0  0  0  0  0  0  0  0  0
  -30.1540   -2.1112   30.0719 F   0  0  0  0  0  0  0  0  0  0  0  0
  -22.1699    1.3084   27.7166 C   0  0  0  0  0  0  0  0  0  0  0  0
  -23.4193    0.3451   29.8988 C   0  0  0  0  0  0  0  0  0  0  0  0
  -22.1036    0.6644   29.1727 C   0  0  0  0  0  0  0  0  0  0  0  0
  -25.8209    2.2734   25.9748 C   0  0  0  0  0  0  0  0  0  0  0  0
  -24.8102    3.0421   25.8690 C   0  0  0  0  0  0  0  0  0  0  0  0
  -25.9346   -0.6706   30.6742 O   0  0  0  0  0  0  0  0  0  0  0  0
  -28.1184    0.9624   26.9131 O   0  0  0  0  0  0  0  0  0  0  0  0
  1  2  2  3
  2  3  1  0
  3  4  1  0
  2  8  1  0
  5  9  1  0
  8  9  1  0
  1 10  1  0
 10 11  1  0
 11 12  1  0
 11 13  1  0
 11 14  1  0
  6 15  1  0
  9 16  1  0
 15 17  1  0
 16 17  1  0
  8 20  2  0
  3 21  2  0
  4  5  2  0
  5  6  1  0
  6  7  2  0
  7 19  1  0
 19 18  2  0
 18  4  1  0
M  END

$$$$
