No_1266-gen_results/8p0m/2024-11-26-14-13-15/
     RDKit          3D

 28 31  0  0  0  0  0  0  0  0999 V2000
  -28.0162   -0.8135   28.8779 C   0  0  0  0  0  0  0  0  0  0  0  0
  -27.0636   -0.1189   28.6079 C   0  0  0  0  0  0  0  0  0  0  0  0
  -25.7923   -0.4302   29.0761 C   0  0  0  0  0  0  0  0  0  0  0  0
  -25.5756   -1.5654   29.9363 C   0  0  0  0  0  0  0  0  0  0  0  0
  -26.7354   -2.3004   30.2173 C   0  0  0  0  0  0  0  0  0  0  0  0
  -27.9184   -1.9537   29.7629 C   0  0  0  0  0  0  0  0  0  0  0  0
  -29.0732   -2.7835   30.1783 C   0  0  0  0  0  0  0  0  0  0  0  0
  -29.3220   -2.7952   31.3885 O   0  0  0  0  0  0  0  0  0  0  0  0
  -24.5220    0.3538   28.7440 C   0  0  0  0  0  0  0  0  0  0  0  0
  -24.0727    1.3472   29.5713 C   0  0  0  0  0  0  0  0  0  0  0  0
  -23.6592    2.3530   29.3116 C   0  0  0  0  0  0  0  0  0  0  0  0
  -23.1090    2.5840   27.9065 C   0  0  0  0  0  0  0  0  0  0  0  0
  -23.4243    1.5714   27.0014 C   0  0  0  0  0  0  0  0  0  0  0  0
  -24.2208    0.5263   27.3599 C   0  0  0  0  0  0  0  0  0  0  0  0
  -29.3569   -3.8347   29.5391 O   0  0  0  0  0  0  0  0  0  0  0  0
  -27.1386    1.1151   27.7234 C   0  0  0  0  0  0  0  0  0  0  0  0
  -27.7894    2.1721   28.4555 C   0  0  0  0  0  0  0  0  0  0  0  0
  -28.5117    2.1449   29.3489 C   0  0  0  0  0  0  0  0  0  0  0  0
  -29.0938    3.3395   29.9915 C   0  0  0  0  0  0  0  0  0  0  0  0
  -27.5573    3.5415   27.8024 C   0  0  0  0  0  0  0  0  0  0  0  0
  -26.6499    3.7268   26.6997 C   0  0  0  0  0  0  0  0  0  0  0  0
  -28.8887    4.5617   29.4483 C   0  0  0  0  0  0  0  0  0  0  0  0
  -28.0892    4.7407   28.4020 C   0  0  0  0  0  0  0  0  0  0  0  0
  -26.5667    1.0886   26.6337 C   0  0  0  0  0  0  0  0  0  0  0  0
  -26.3400    2.5071   25.9932 C   0  0  0  0  0  0  0  0  0  0  0  0
  -27.5567    0.5448   25.4970 C   0  0  0  0  0  0  0  0  0  0  0  0
  -28.8511    0.7154   25.4964 C   0  0  0  0  0  0  0  0  0  0  0  0
  -29.6662    0.0768   24.6659 C   0  0  0  0  0  0  0  0  0  0  0  0
  6  7  1  0
  7  8  1  0
  3  9  1  0
  7 15  2  0
  2 16  1  0
 24 26  1  0
 26 27  2  3
 27 28  1  0
  1  2  2  0
  2  3  1  0
  3  4  2  0
  4  5  1  0
  5  6  2  0
  6  1  1  0
 16 17  1  0
 20 21  1  0
 21 25  2  0
 25 24  1  0
 24 16  2  0
  9 10  2  0
 10 11  1  0
 11 12  2  0
 12 13  1  0
 13 14  2  0
 14  9  1  0
 17 18  2  0
 18 19  1  0
 19 22  2  0
 22 23  1  0
 23 20  2  0
 20 17  1  0
M  END

$$$$
