No_1114-gen_results/8p0m/2024-11-26-14-13-15/
     RDKit          3D

 19 20  0  0  0  0  0  0  0  0999 V2000
  -28.0162   -0.8135   28.8779 C   0  0  0  0  0  0  0  0  0  0  0  0
  -27.0636   -0.1189   28.6079 C   0  0  0  0  0  0  0  0  0  0  0  0
  -26.8756    1.1325   28.9134 C   0  0  0  0  0  0  0  0  0  0  0  0
  -27.9014    1.8066   29.6436 C   0  0  0  0  0  0  0  0  0  0  0  0
  -29.0458   -0.2316   29.7181 C   0  0  0  0  0  0  0  0  0  0  0  0
  -28.9402    1.0517   30.0597 C   0  0  0  0  0  0  0  0  0  0  0  0
  -25.8732   -0.7125   27.8045 C   0  0  0  0  0  0  0  0  0  0  0  0
  -24.7599   -1.1987   28.6570 C   0  0  0  0  0  0  0  0  0  0  0  0
  -24.2774   -0.5180   29.6587 C   0  0  0  0  0  0  0  0  0  0  0  0
  -23.1774   -1.0723   30.3873 C   0  0  0  0  0  0  0  0  0  0  0  0
  -22.6382   -0.3375   31.4597 C   0  0  0  0  0  0  0  0  0  0  0  0
  -23.4010    0.7600   31.8870 C   0  0  0  0  0  0  0  0  0  0  0  0
  -24.7044    0.6922   30.4413 C   0  0  0  0  0  0  0  0  0  0  0  0
  -30.2153   -1.1057   30.1245 C   0  0  0  0  0  0  0  0  0  0  0  0
  -31.0738   -1.3000   29.3130 O   0  0  0  0  0  0  0  0  0  0  0  0
  -30.4305   -1.3027   31.3857 O   0  0  0  0  0  0  0  0  0  0  0  0
  -24.5732   -2.5691   28.6009 C   0  0  0  0  0  0  0  0  0  0  0  0
  -24.8620   -3.7198   29.0139 N   0  0  0  0  0  0  0  0  0  0  0  0
  -24.3529   -4.8572   28.6102 C   0  0  0  0  0  0  0  0  0  0  0  0
  2  7  1  0
  7  8  1  0
  8  9  2  3
  9 10  1  0
 10 11  1  0
 11 12  2  0
  9 13  1  0
 12 13  1  0
  5 14  1  0
 14 15  2  0
 14 16  1  0
  8 17  1  0
 17 18  2  3
 18 19  1  0
  1  2  2  0
  2  3  1  0
  3  4  2  0
  4  6  1  0
  6  5  2  0
  5  1  1  0
M  END

$$$$
