No_1862-gen_results/8p0m/2024-11-26-14-13-15/
     RDKit          3D

 13 14  0  0  0  0  0  0  0  0999 V2000
  -28.0162   -0.8135   28.8779 C   0  0  0  0  0  0  0  0  0  0  0  0
  -27.0636   -0.1189   28.6079 C   0  0  0  0  0  0  0  0  0  0  0  0
  -25.7923   -0.4302   29.0761 C   0  0  0  0  0  0  0  0  0  0  0  0
  -25.5756   -1.5654   29.9363 C   0  0  0  0  0  0  0  0  0  0  0  0
  -26.7354   -2.3004   30.2173 C   0  0  0  0  0  0  0  0  0  0  0  0
  -27.9184   -1.9537   29.7629 C   0  0  0  0  0  0  0  0  0  0  0  0
  -27.1059    1.0338   27.8185 N   0  0  0  0  0  0  0  0  0  0  0  0
  -27.8211    1.6842   27.5015 C   0  0  0  0  0  0  0  0  0  0  0  0
  -29.1186    1.6494   28.0076 C   0  0  0  0  0  0  0  0  0  0  0  0
  -30.1542    2.5308   27.4351 C   0  0  0  0  0  0  0  0  0  0  0  0
  -29.7477    3.4765   26.4768 C   0  0  0  0  0  0  0  0  0  0  0  0
  -28.4692    3.5741   25.9233 C   0  0  0  0  0  0  0  0  0  0  0  0
  -27.5352    2.7387   26.3970 C   0  0  0  0  0  0  0  0  0  0  0  0
  2  7  1  0
  7  8  1  0
  1  2  2  0
  2  3  1  0
  3  4  2  0
  4  5  1  0
  5  6  2  0
  6  1  1  0
  8  9  2  0
  9 10  1  0
 10 11  2  0
 11 12  1  0
 12 13  2  0
 13  8  1  0
M  END

$$$$
