No_1385-gen_results/8p0m/2024-11-26-14-13-15/
     RDKit          3D

 12 13  0  0  0  0  0  0  0  0999 V2000
  -28.1229   -1.3353   28.4874 O   0  0  0  0  0  0  0  0  0  0  0  0
  -27.0637   -0.8242   28.8687 C   0  0  0  0  0  0  0  0  0  0  0  0
  -25.9464   -1.0396   28.8492 C   0  0  0  0  0  0  0  0  0  0  0  0
  -24.7602   -0.1562   29.1644 C   0  0  0  0  0  0  0  0  0  0  0  0
  -23.3890   -0.4551   29.0162 C   0  0  0  0  0  0  0  0  0  0  0  0
  -27.1818    0.7101   29.2928 N   0  0  0  0  0  0  0  0  0  0  0  0
  -26.3236    1.5579   29.6078 C   0  0  0  0  0  0  0  0  0  0  0  0
  -25.0029    1.2234   29.5206 C   0  0  0  0  0  0  0  0  0  0  0  0
  -22.7860   -1.6007   29.4548 C   0  0  0  0  0  0  0  0  0  0  0  0
  -22.5095    0.5652   28.4557 C   0  0  0  0  0  0  0  0  0  0  0  0
  -22.9297    1.7764   27.9108 C   0  0  0  0  0  0  0  0  0  0  0  0
  -24.2229    2.2807   28.5175 C   0  0  0  0  0  0  0  0  0  0  0  0
  1  2  2  0
  2  3  1  0
  3  4  1  0
  4  5  1  0
  2  6  1  0
  4  8  1  0
  7  8  1  0
  5  9  1  0
  5 10  1  0
 10 11  1  0
  8 12  1  0
 11 12  1  0
  7  6  1  0
M  END

$$$$
