No_1055-gen_results/8p0m/2024-11-26-14-13-15/
     RDKit          3D

 35 38  0  0  0  0  0  0  0  0999 V2000
  -28.0162   -0.8135   28.8779 C   0  0  0  0  0  0  0  0  0  0  0  0
  -28.4690   -0.7850   29.8287 C   0  0  0  0  0  0  0  0  0  0  0  0
  -28.1960    0.3478   28.0550 C   0  0  0  0  0  0  0  0  0  0  0  0
  -29.0191    1.3501   28.3782 C   0  0  0  0  0  0  0  0  0  0  0  0
  -29.4107    0.1803   30.3782 C   0  0  0  0  0  0  0  0  0  0  0  0
  -29.6059    1.2495   29.6193 C   0  0  0  0  0  0  0  0  0  0  0  0
  -27.5003    0.3576   26.8164 O   0  0  0  0  0  0  0  0  0  0  0  0
  -26.4976    1.3388   26.6595 C   0  0  0  0  0  0  0  0  0  0  0  0
  -25.2287    0.7278   26.6101 C   0  0  0  0  0  0  0  0  0  0  0  0
  -24.0880    1.5526   26.6229 C   0  0  0  0  0  0  0  0  0  0  0  0
  -22.7905    1.0979   26.8973 C   0  0  0  0  0  0  0  0  0  0  0  0
  -21.7701    2.1257   27.0157 C   0  0  0  0  0  0  0  0  0  0  0  0
  -21.4916    2.4658   28.0177 C   0  0  0  0  0  0  0  0  0  0  0  0
  -24.4405    2.9698   26.4064 C   0  0  0  0  0  0  0  0  0  0  0  0
  -25.7271    3.4457   26.3586 C   0  0  0  0  0  0  0  0  0  0  0  0
  -26.7836    2.5844   26.5190 C   0  0  0  0  0  0  0  0  0  0  0  0
  -21.5176    1.3896   29.2341 C   0  0  0  0  0  0  0  0  0  0  0  0
  -22.4306    0.2782   29.1254 C   0  0  0  0  0  0  0  0  0  0  0  0
  -22.9054    0.1960   27.8497 N   0  0  0  0  0  0  0  0  0  0  0  0
  -30.5468    2.3641   30.0264 C   0  0  0  0  0  0  0  0  0  0  0  0
  -30.3991    2.9364   31.0654 N   0  0  0  0  0  0  0  0  0  0  0  0
  -30.1741    3.9766   31.5049 C   0  0  0  0  0  0  0  0  0  0  0  0
  -30.1975    5.4535   30.3727 Br  0  0  0  0  0  0  0  0  0  0  0  0
  -29.6870    4.2950   32.6144 O   0  0  0  0  0  0  0  0  0  0  0  0
  -22.5423   -0.5762   30.0244 N   0  0  0  0  0  0  0  0  0  0  0  0
  -23.7052   -0.7515   30.8025 C   0  0  0  0  0  0  0  0  0  0  0  0
  -23.6530   -0.2156   32.0274 C   0  0  0  0  0  0  0  0  0  0  0  0
  -24.9069   -0.2623   32.8433 C   0  0  0  0  0  0  0  0  0  0  0  0
  -26.0594   -0.8293   32.2022 C   0  0  0  0  0  0  0  0  0  0  0  0
  -25.9936   -1.4667   31.0225 C   0  0  0  0  0  0  0  0  0  0  0  0
  -24.8024   -1.3378   30.2457 C   0  0  0  0  0  0  0  0  0  0  0  0
  -31.3977    2.7099   29.1796 O   0  0  0  0  0  0  0  0  0  0  0  0
  -27.4991   -0.9038   33.2072 Cl  0  0  0  0  0  0  0  0  0  0  0  0
  -24.7828   -1.8891   29.0880 F   0  0  0  0  0  0  0  0  0  0  0  0
  -30.2069    0.0296   31.9108 Cl  0  0  0  0  0  0  0  0  0  0  0  0
  3  7  1  0
  7  8  1  0
 10 11  1  0
  6 20  1  0
 20 21  1  0
 21 22  1  0
 22 23  1  0
 22 24  2  0
 18 25  1  0
 25 26  1  0
 20 32  2  0
 29 33  1  0
 31 34  1  0
  5 35  1  0
 26 27  2  0
 27 28  1  0
 28 29  2  0
 29 30  1  0
 30 31  2  0
 31 26  1  0
  8  9  2  0
  9 10  1  0
 10 14  2  0
 14 15  1  0
 15 16  2  0
 16  8  1  0
  1  2  2  0
  2  5  1  0
  5  6  2  0
  6  4  1  0
  4  3  2  0
  3  1  1  0
 11 12  2  0
 12 13  1  0
 13 17  2  0
 17 18  1  0
 18 19  2  0
 19 11  1  0
M  END

$$$$
