No_1374-gen_results/8p0m/2024-11-26-14-13-15/
     RDKit          3D

 35 37  0  0  0  0  0  0  0  0999 V2000
  -28.0162   -0.8135   28.8779 C   0  0  0  0  0  0  0  0  0  0  0  0
  -27.0636   -0.1189   28.6079 C   0  0  0  0  0  0  0  0  0  0  0  0
  -26.9716    0.7139   27.5060 C   0  0  0  0  0  0  0  0  0  0  0  0
  -28.1053    0.7744   26.6421 C   0  0  0  0  0  0  0  0  0  0  0  0
  -29.2008    0.1044   27.0527 C   0  0  0  0  0  0  0  0  0  0  0  0
  -29.2096   -0.6029   28.1853 C   0  0  0  0  0  0  0  0  0  0  0  0
  -30.3702    0.2264   26.1604 C   0  0  0  0  0  0  0  0  0  0  0  0
  -30.9994    1.2520   25.7597 Cl  0  0  0  0  0  0  0  0  0  0  0  0
  -31.2811   -0.7180   26.6449 F   0  0  0  0  0  0  0  0  0  0  0  0
  -29.9255   -0.5121   24.9922 F   0  0  0  0  0  0  0  0  0  0  0  0
  -28.0129   -1.6701   30.1449 C   0  0  0  0  0  0  0  0  0  0  0  0
  -28.4869   -1.5360   31.1055 O   0  0  0  0  0  0  0  0  0  0  0  0
  -27.0559   -2.6305   30.0075 O   0  0  0  0  0  0  0  0  0  0  0  0
  -25.7154    1.4286   27.1104 C   0  0  0  0  0  0  0  0  0  0  0  0
  -24.5640    0.8456   27.3429 C   0  0  0  0  0  0  0  0  0  0  0  0
  -24.0479   -0.0845   28.1369 C   0  0  0  0  0  0  0  0  0  0  0  0
  -22.8060   -0.1859   28.7106 C   0  0  0  0  0  0  0  0  0  0  0  0
  -21.8780    0.7569   28.2357 C   0  0  0  0  0  0  0  0  0  0  0  0
  -23.4593    1.9909   27.4512 C   0  0  0  0  0  0  0  0  0  0  0  0
  -22.1900    1.8833   27.6841 C   0  0  0  0  0  0  0  0  0  0  0  0
  -25.8756    2.8378   27.0613 C   0  0  0  0  0  0  0  0  0  0  0  0
  -23.9753    3.2671   27.0058 F   0  0  0  0  0  0  0  0  0  0  0  0
  -26.4705    3.6244   27.9570 C   0  0  0  0  0  0  0  0  0  0  0  0
  -25.7628    3.3346   25.6728 C   0  0  0  0  0  0  0  0  0  0  0  0
  -27.4355    4.5869   27.7012 C   0  0  0  0  0  0  0  0  0  0  0  0
  -27.8742    5.4777   28.6987 C   0  0  0  0  0  0  0  0  0  0  0  0
  -27.4382    5.2820   30.0072 C   0  0  0  0  0  0  0  0  0  0  0  0
  -25.9340    3.5395   29.3402 C   0  0  0  0  0  0  0  0  0  0  0  0
  -26.4205    4.4154   30.3282 C   0  0  0  0  0  0  0  0  0  0  0  0
  -25.8648    4.3085   31.7102 C   0  0  0  0  0  0  0  0  0  0  0  0
  -24.9497    3.6631   31.8950 O   0  0  0  0  0  0  0  0  0  0  0  0
  -26.4926    5.0278   32.6989 N   0  0  0  0  0  0  0  0  0  0  0  0
  -26.0056    4.9649   34.1036 C   0  0  0  0  0  0  0  0  0  0  0  0
  -25.4105    6.1210   34.2521 C   0  0  0  0  0  0  0  0  0  0  0  0
  -24.5134    6.5113   33.5294 C   0  0  0  0  0  0  0  0  0  0  0  0
  5  7  1  0
  7  8  1  0
  7  9  1  0
  7 10  1  0
  1 11  1  0
 11 12  1  0
 11 13  2  0
  3 14  1  0
 14 15  1  0
 14 21  1  0
 19 22  1  0
 21 23  1  0
 21 24  1  0
 29 30  1  0
 30 31  2  0
 30 32  1  0
 32 33  1  0
 33 34  1  0
 34 35  1  0
 15 16  2  0
 16 17  1  0
 17 18  2  0
 18 20  1  0
 20 19  2  0
 19 15  1  0
  1  2  2  0
  2  3  1  0
  3  4  2  0
  4  5  1  0
  5  6  2  0
  6  1  1  0
 23 25  2  0
 25 26  1  0
 26 27  2  0
 27 29  1  0
 29 28  2  0
 28 23  1  0
M  END

$$$$
