No_1230-gen_results/8p0m/2024-11-26-14-13-15/
     RDKit          3D

 35 38  0  0  0  0  0  0  0  0999 V2000
  -28.0162   -0.8135   28.8779 C   0  0  0  0  0  0  0  0  0  0  0  0
  -27.0636   -0.1189   28.6079 C   0  0  0  0  0  0  0  0  0  0  0  0
  -25.7923   -0.4302   29.0761 C   0  0  0  0  0  0  0  0  0  0  0  0
  -24.5456    0.3494   28.8225 C   0  0  0  0  0  0  0  0  0  0  0  0
  -23.2409    0.0217   29.3323 C   0  0  0  0  0  0  0  0  0  0  0  0
  -27.8820   -1.8995   29.8633 C   0  0  0  0  0  0  0  0  0  0  0  0
  -26.6706   -2.3272   30.3212 C   0  0  0  0  0  0  0  0  0  0  0  0
  -25.5433   -1.5852   29.9316 C   0  0  0  0  0  0  0  0  0  0  0  0
  -23.1550   -1.2815   29.8844 C   0  0  0  0  0  0  0  0  0  0  0  0
  -24.2416   -1.9858   30.3143 C   0  0  0  0  0  0  0  0  0  0  0  0
  -24.6000    1.4462   28.0950 F   0  0  0  0  0  0  0  0  0  0  0  0
  -29.0145   -2.6193   30.2053 O   0  0  0  0  0  0  0  0  0  0  0  0
  -30.0821   -2.0228   30.7735 C   0  0  0  0  0  0  0  0  0  0  0  0
  -30.6255   -2.7912   31.7256 C   0  0  0  0  0  0  0  0  0  0  0  0
  -31.5985   -2.4214   32.2036 O   0  0  0  0  0  0  0  0  0  0  0  0
  -30.8094   -4.2737   31.2270 C   0  0  0  0  0  0  0  0  0  0  0  0
  -29.8335   -5.1641   31.6366 C   0  0  0  0  0  0  0  0  0  0  0  0
  -32.0821   -4.8393   31.7977 N   0  0  0  0  0  0  0  0  0  0  0  0
  -32.6412   -5.7984   31.0568 C   0  0  0  0  0  0  0  0  0  0  0  0
  -30.1006   -6.5444   31.2751 O   0  0  0  0  0  0  0  0  0  0  0  0
  -31.5234   -6.7445   31.2807 C   0  0  0  0  0  0  0  0  0  0  0  0
  -31.5883   -7.9708   30.2235 N   0  0  0  0  0  0  0  0  0  0  0  0
  -31.8723   -7.8265   29.0067 C   0  0  0  0  0  0  0  0  0  0  0  0
  -31.7370   -8.9849   28.1919 C   0  0  0  0  0  0  0  0  0  0  0  0
  -31.4851   -9.2885   30.5448 C   0  0  0  0  0  0  0  0  0  0  0  0
  -31.4942   -9.9808   29.2616 C   0  0  0  0  0  0  0  0  0  0  0  0
  -28.4644   -4.9310   31.1011 O   0  0  0  0  0  0  0  0  0  0  0  0
  -31.2828  -11.3464   29.0454 C   0  0  0  0  0  0  0  0  0  0  0  0
  -30.5095  -11.8549   28.5208 C   0  0  0  0  0  0  0  0  0  0  0  0
  -29.7967  -12.4308   28.0781 C   0  0  0  0  0  0  0  0  0  0  0  0
  -28.6079  -12.4975   27.4189 C   0  0  0  0  0  0  0  0  0  0  0  0
  -27.6156  -12.7600   26.5487 C   0  0  0  0  0  0  0  0  0  0  0  0
  -26.5014  -13.3278   26.5415 C   0  0  0  0  0  0  0  0  0  0  0  0
  -31.5047   -1.2102   33.0293 C   0  0  0  0  0  0  0  0  0  0  0  0
  -31.7321   -0.1376   32.3087 C   0  0  0  0  0  0  0  0  0  0  0  0
  4 11  1  0
  6 12  1  0
 12 13  1  0
 13 14  1  0
 14 15  1  0
 14 16  1  0
 16 17  1  0
 16 18  1  0
 18 19  1  0
 17 20  1  0
 19 21  1  0
 20 21  1  0
 21 22  1  0
 22 23  1  0
 23 24  2  0
 22 25  1  0
 24 26  1  0
 25 26  1  0
 17 27  1  0
 26 28  1  0
 28 29  2  3
 29 30  1  0
 30 31  2  3
 31 32  1  0
 32 33  2  0
 15 34  1  0
 34 35  1  0
  1  2  2  0
  2  3  1  0
  8  7  1  0
  7  6  2  0
  6  1  1  0
  3  4  2  0
  4  5  1  0
  5  9  2  0
  9 10  1  0
 10  8  2  0
  8  3  1  0
M  END

$$$$
