No_1092-gen_results/8p0m/2024-11-26-14-13-15/
     RDKit          3D

 10 10  0  0  0  0  0  0  0  0999 V2000
  -28.0162   -0.8135   28.8779 C   0  0  0  0  0  0  0  0  0  0  0  0
  -28.4690   -0.7850   29.8287 C   0  0  0  0  0  0  0  0  0  0  0  0
  -26.6028   -1.0596   28.5384 C   0  0  0  0  0  0  0  0  0  0  0  0
  -25.7969   -1.4490   29.7273 C   0  0  0  0  0  0  0  0  0  0  0  0
  -26.4284   -1.5407   30.9833 C   0  0  0  0  0  0  0  0  0  0  0  0
  -27.7563   -1.2444   31.0750 C   0  0  0  0  0  0  0  0  0  0  0  0
  -24.3921   -1.7399   29.5644 C   0  0  0  0  0  0  0  0  0  0  0  0
  -23.9654   -2.6088   29.2307 N   0  0  0  0  0  0  0  0  0  0  0  0
  -23.6019   -0.7303   30.0278 O   0  0  0  0  0  0  0  0  0  0  0  0
  -24.6135   -3.7170   28.8028 O   0  0  0  0  0  0  0  0  0  0  0  0
  4  7  1  0
  7  8  1  0
  7  9  2  0
  8 10  2  0
  1  2  2  0
  2  6  1  0
  6  5  2  0
  5  4  1  0
  4  3  2  0
  3  1  1  0
M  END

$$$$
