No_1281-gen_results/8p0m/2024-11-26-14-13-15/
     RDKit          3D

 28 30  0  0  0  0  0  0  0  0999 V2000
  -28.0162   -0.8135   28.8779 C   0  0  0  0  0  0  0  0  0  0  0  0
  -27.0636   -0.1189   28.6079 C   0  0  0  0  0  0  0  0  0  0  0  0
  -25.7647   -0.3897   29.0360 C   0  0  0  0  0  0  0  0  0  0  0  0
  -24.5516    0.4058   28.7646 C   0  0  0  0  0  0  0  0  0  0  0  0
  -24.6957    1.4480   27.7988 C   0  0  0  0  0  0  0  0  0  0  0  0
  -26.0010    1.6784   27.2965 C   0  0  0  0  0  0  0  0  0  0  0  0
  -26.9149    0.9208   27.6542 C   0  0  0  0  0  0  0  0  0  0  0  0
  -28.6432   -0.4893   30.2316 C   0  0  0  0  0  0  0  0  0  0  0  0
  -28.3169    0.5267   30.7978 C   0  0  0  0  0  0  0  0  0  0  0  0
  -28.9679    0.8692   32.1427 C   0  0  0  0  0  0  0  0  0  0  0  0
  -23.4829    2.2162   27.4737 C   0  0  0  0  0  0  0  0  0  0  0  0
  -22.5932    1.8375   27.8983 F   0  0  0  0  0  0  0  0  0  0  0  0
  -23.3607    2.1729   26.0444 F   0  0  0  0  0  0  0  0  0  0  0  0
  -23.7890    3.5384   27.7212 F   0  0  0  0  0  0  0  0  0  0  0  0
  -29.8272   -0.0271   32.6846 C   0  0  0  0  0  0  0  0  0  0  0  0
  -29.4675   -1.5821   30.8421 C   0  0  0  0  0  0  0  0  0  0  0  0
  -30.0884   -1.2704   32.0786 C   0  0  0  0  0  0  0  0  0  0  0  0
  -28.3392    1.2887   27.0075 C   0  0  0  0  0  0  0  0  0  0  0  0
  -28.4809    1.3310   25.8560 O   0  0  0  0  0  0  0  0  0  0  0  0
  -29.3526    1.5521   27.8438 N   0  0  0  0  0  0  0  0  0  0  0  0
  -30.6751    1.8973   27.4027 C   0  0  0  0  0  0  0  0  0  0  0  0
  -31.1742    2.7711   27.7286 C   0  0  0  0  0  0  0  0  0  0  0  0
  -31.3800    0.6219   27.3765 C   0  0  0  0  0  0  0  0  0  0  0  0
  -32.4466    0.6528   27.3065 C   0  0  0  0  0  0  0  0  0  0  0  0
  -32.5913    3.0142   27.6097 C   0  0  0  0  0  0  0  0  0  0  0  0
  -33.3051    1.8113   27.4233 C   0  0  0  0  0  0  0  0  0  0  0  0
  -25.4785   -1.3522   29.9700 O   0  0  0  0  0  0  0  0  0  0  0  0
  -24.2795   -1.8587   30.0566 C   0  0  0  0  0  0  0  0  0  0  0  0
  1  8  1  0
  5 11  1  0
 11 12  1  0
 11 13  1  0
 11 14  1  0
  7 18  1  0
 18 19  2  0
 18 20  1  0
 20 21  1  0
  3 27  1  0
 27 28  1  0
  1  2  1  0
  8  9  2  0
  9 10  1  0
 10 15  2  0
 15 17  1  0
 17 16  2  0
 16  8  1  0
  2  3  2  0
  3  4  1  0
  4  5  2  0
  5  6  1  0
  6  7  2  0
  7  2  1  0
 21 22  2  0
 22 25  1  0
 25 26  2  0
 26 24  1  0
 24 23  2  0
 23 21  1  0
M  END

$$$$
