No_1475-gen_results/8p0m/2024-11-26-14-13-15/
     RDKit          3D

 27 30  0  0  0  0  0  0  0  0999 V2000
  -28.0162   -0.8135   28.8779 C   0  0  0  0  0  0  0  0  0  0  0  0
  -27.0636   -0.1190   28.6079 C   0  0  0  0  0  0  0  0  0  0  0  0
  -26.9716    0.7139   27.5060 C   0  0  0  0  0  0  0  0  0  0  0  0
  -28.1053    0.7744   26.6421 C   0  0  0  0  0  0  0  0  0  0  0  0
  -28.0677    1.4872   25.5121 C   0  0  0  0  0  0  0  0  0  0  0  0
  -29.2691   -0.5335   28.2245 C   0  0  0  0  0  0  0  0  0  0  0  0
  -29.2230    0.1355   27.0328 C   0  0  0  0  0  0  0  0  0  0  0  0
  -30.3265    0.1946   26.3497 F   0  0  0  0  0  0  0  0  0  0  0  0
  -28.0316   -1.6666   30.1669 C   0  0  0  0  0  0  0  0  0  0  0  0
  -27.0859   -2.4607   30.3530 O   0  0  0  0  0  0  0  0  0  0  0  0
  -28.9716   -1.6464   30.9512 O   0  0  0  0  0  0  0  0  0  0  0  0
  -25.6766    1.3423   27.0824 C   0  0  0  0  0  0  0  0  0  0  0  0
  -24.5146    0.7298   27.1040 C   0  0  0  0  0  0  0  0  0  0  0  0
  -23.3259    1.4489   26.9298 C   0  0  0  0  0  0  0  0  0  0  0  0
  -22.0846    1.1220   27.4982 C   0  0  0  0  0  0  0  0  0  0  0  0
  -22.0146    0.0919   28.4612 C   0  0  0  0  0  0  0  0  0  0  0  0
  -23.2312   -0.6398   28.7229 C   0  0  0  0  0  0  0  0  0  0  0  0
  -24.4300   -0.3280   28.1449 C   0  0  0  0  0  0  0  0  0  0  0  0
  -25.9757    1.7521   25.6228 C   0  0  0  0  0  0  0  0  0  0  0  0
  -26.9554    2.0474   25.0124 C   0  0  0  0  0  0  0  0  0  0  0  0
  -25.7216    2.7720   27.8793 C   0  0  0  0  0  0  0  0  0  0  0  0
  -25.4557    3.9642   27.1961 C   0  0  0  0  0  0  0  0  0  0  0  0
  -25.9668    2.7242   29.3159 C   0  0  0  0  0  0  0  0  0  0  0  0
  -26.3139    3.9536   29.9286 C   0  0  0  0  0  0  0  0  0  0  0  0
  -25.6011    5.2357   27.9422 C   0  0  0  0  0  0  0  0  0  0  0  0
  -25.9621    5.2004   29.2941 C   0  0  0  0  0  0  0  0  0  0  0  0
  -24.9158    3.2593   28.2458 Cl  0  0  0  0  0  0  0  0  0  0  0  0
  4  5  1  0
  7  8  1  0
  1  9  1  0
  9 10  2  0
  9 11  1  0
  3 12  1  0
 12 13  1  0
 12 19  1  0
 19 20  1  0
 12 21  1  0
 21 22  1  0
 21 23  1  0
 23 24  2  0
 22 25  2  0
 24 26  1  0
 25 26  1  0
 21 27  1  0
  5 20  1  0
 13 14  2  0
 14 15  1  0
 15 16  2  0
 16 17  1  0
 17 18  2  0
 18 13  1  0
  1  2  2  0
  2  3  1  0
  3  4  2  0
  4  7  1  0
  7  6  2  0
  6  1  1  0
M  END

$$$$
