No_1370-gen_results/8p0m/2024-11-26-14-13-15/
     RDKit          3D

 35 39  0  0  0  0  0  0  0  0999 V2000
  -28.0162   -0.8135   28.8779 C   0  0  0  0  0  0  0  0  0  0  0  0
  -27.0636   -0.1190   28.6079 C   0  0  0  0  0  0  0  0  0  0  0  0
  -25.7923   -0.4302   29.0761 C   0  0  0  0  0  0  0  0  0  0  0  0
  -24.5456    0.3494   28.8225 C   0  0  0  0  0  0  0  0  0  0  0  0
  -23.2409    0.0217   29.3323 C   0  0  0  0  0  0  0  0  0  0  0  0
  -27.8820   -1.8995   29.8633 C   0  0  0  0  0  0  0  0  0  0  0  0
  -26.6526   -2.3142   30.3138 C   0  0  0  0  0  0  0  0  0  0  0  0
  -25.5153   -1.5607   29.9787 C   0  0  0  0  0  0  0  0  0  0  0  0
  -23.2160   -1.2277   30.0505 C   0  0  0  0  0  0  0  0  0  0  0  0
  -24.2438   -1.9369   30.3995 C   0  0  0  0  0  0  0  0  0  0  0  0
  -24.5721    1.5640   27.9603 C   0  0  0  0  0  0  0  0  0  0  0  0
  -24.9387    1.4539   26.6967 C   0  0  0  0  0  0  0  0  0  0  0  0
  -24.9156    2.6352   25.9062 C   0  0  0  0  0  0  0  0  0  0  0  0
  -24.7208    3.9392   26.4603 C   0  0  0  0  0  0  0  0  0  0  0  0
  -24.4308    3.9927   27.8394 C   0  0  0  0  0  0  0  0  0  0  0  0
  -24.3574    2.8222   28.5952 C   0  0  0  0  0  0  0  0  0  0  0  0
  -29.4637   -2.8639   30.2972 Br  0  0  0  0  0  0  0  0  0  0  0  0
  -22.0664    0.7198   28.9657 C   0  0  0  0  0  0  0  0  0  0  0  0
  -21.3433    0.4934   27.8782 N   0  0  0  0  0  0  0  0  0  0  0  0
  -25.1323    0.2475   25.9792 C   0  0  0  0  0  0  0  0  0  0  0  0
  -25.5750    0.2694   24.6363 C   0  0  0  0  0  0  0  0  0  0  0  0
  -26.9326    0.3284   24.5438 C   0  0  0  0  0  0  0  0  0  0  0  0
  -27.7705    1.1882   24.5913 C   0  0  0  0  0  0  0  0  0  0  0  0
  -29.1953    1.0925   24.4481 C   0  0  0  0  0  0  0  0  0  0  0  0
  -30.1603    2.0821   24.6052 C   0  0  0  0  0  0  0  0  0  0  0  0
  -29.6203    3.3989   24.9596 C   0  0  0  0  0  0  0  0  0  0  0  0
  -28.2765    3.5965   25.1587 C   0  0  0  0  0  0  0  0  0  0  0  0
  -27.4076    2.6226   25.0584 C   0  0  0  0  0  0  0  0  0  0  0  0
  -27.5021   -0.6644   23.5659 C   0  0  0  0  0  0  0  0  0  0  0  0
  -28.8562   -1.0356   23.5185 C   0  0  0  0  0  0  0  0  0  0  0  0
  -29.7118   -0.1070   23.8861 C   0  0  0  0  0  0  0  0  0  0  0  0
  -31.3814   -0.3407   23.6558 Cl  0  0  0  0  0  0  0  0  0  0  0  0
  -30.6046    4.5156   25.1612 C   0  0  0  0  0  0  0  0  0  0  0  0
  -31.8463    4.3899   24.7548 N   0  0  0  0  0  0  0  0  0  0  0  0
  -32.9120    4.1301   25.5951 C   0  0  0  0  0  0  0  0  0  0  0  0
  4 11  1  0
  6 17  1  0
  5 18  1  0
 18 19  1  0
 12 20  1  0
 20 21  2  3
 21 22  1  0
 31 32  1  0
 26 33  1  0
 33 34  1  0
 34 35  1  0
 24 25  2  0
 25 26  1  0
 26 27  2  0
 27 28  1  0
 28 23  2  0
  3  4  2  0
  4  5  1  0
  5  9  2  0
  9 10  1  0
 10  8  2  0
  1  2  2  0
  2  3  1  0
  3  8  1  0
  8  7  1  0
  7  6  2  0
  6  1  1  0
 11 12  1  0
 12 13  2  0
 13 14  1  0
 14 15  2  0
 15 16  1  0
 16 11  2  0
 22 23  1  0
 23 24  1  0
 24 31  1  0
 31 30  2  0
 30 29  1  0
 29 22  2  0
M  END

$$$$
