No_1747-gen_results/8p0m/2024-11-26-14-13-15/
     RDKit          3D

 22 23  0  0  0  0  0  0  0  0999 V2000
  -28.0162   -0.8135   28.8779 C   0  0  0  0  0  0  0  0  0  0  0  0
  -28.4690   -0.7850   29.8287 C   0  0  0  0  0  0  0  0  0  0  0  0
  -26.5455   -0.8762   28.8500 C   0  0  0  0  0  0  0  0  0  0  0  0
  -25.6825   -0.7773   27.6829 C   0  0  0  0  0  0  0  0  0  0  0  0
  -27.9181   -1.0034   31.1877 C   0  0  0  0  0  0  0  0  0  0  0  0
  -26.5308   -1.0794   31.2463 C   0  0  0  0  0  0  0  0  0  0  0  0
  -25.7798   -1.0462   30.0905 C   0  0  0  0  0  0  0  0  0  0  0  0
  -25.8976    0.2387   26.7449 C   0  0  0  0  0  0  0  0  0  0  0  0
  -24.9256    0.7629   26.0322 C   0  0  0  0  0  0  0  0  0  0  0  0
  -24.2472    1.7995   26.1605 C   0  0  0  0  0  0  0  0  0  0  0  0
  -24.4507    2.7005   27.2727 C   0  0  0  0  0  0  0  0  0  0  0  0
  -24.0170    2.2696   28.5030 C   0  0  0  0  0  0  0  0  0  0  0  0
  -25.2014    3.9112   27.1135 C   0  0  0  0  0  0  0  0  0  0  0  0
  -24.6826    2.7621   29.6433 N   0  0  0  0  0  0  0  0  0  0  0  0
  -23.1564    1.4590   28.6718 O   0  0  0  0  0  0  0  0  0  0  0  0
  -24.5096    2.3255   30.9725 C   0  0  0  0  0  0  0  0  0  0  0  0
  -25.4033    2.9315   31.8728 C   0  0  0  0  0  0  0  0  0  0  0  0
  -26.1892    2.1118   32.6727 C   0  0  0  0  0  0  0  0  0  0  0  0
  -27.0861    2.6924   33.6232 C   0  0  0  0  0  0  0  0  0  0  0  0
  -27.1504    4.0856   33.7401 C   0  0  0  0  0  0  0  0  0  0  0  0
  -26.2952    4.8876   33.0259 C   0  0  0  0  0  0  0  0  0  0  0  0
  -25.4289    4.3136   32.1178 C   0  0  0  0  0  0  0  0  0  0  0  0
  3  4  1  0
  4  8  1  0
  8  9  2  3
  9 10  1  0
 10 11  1  0
 11 12  1  0
 11 13  1  0
 12 14  1  0
 12 15  2  0
 14 16  1  0
 16 17  1  0
 17 18  2  0
 18 19  1  0
 19 20  2  0
 20 21  1  0
 21 22  2  0
 22 17  1  0
  1  2  2  0
  2  5  1  0
  5  6  2  0
  6  7  1  0
  7  3  2  0
  3  1  1  0
M  END

$$$$
