No_111-gen_results/8p0m/2024-11-26-14-13-15/
     RDKit          3D

 29 32  0  0  0  0  0  0  0  0999 V2000
  -28.0162   -0.8135   28.8779 C   0  0  0  0  0  0  0  0  0  0  0  0
  -28.4690   -0.7850   29.8287 C   0  0  0  0  0  0  0  0  0  0  0  0
  -27.1356    0.2359   28.5352 C   0  0  0  0  0  0  0  0  0  0  0  0
  -26.8745    1.2825   29.3982 C   0  0  0  0  0  0  0  0  0  0  0  0
  -28.3613    0.1987   30.9244 C   0  0  0  0  0  0  0  0  0  0  0  0
  -27.5277    1.2234   30.6356 C   0  0  0  0  0  0  0  0  0  0  0  0
  -26.2960    0.2786   27.0255 Cl  0  0  0  0  0  0  0  0  0  0  0  0
  -29.3873   -1.7961   30.4787 N   0  0  0  0  0  0  0  0  0  0  0  0
  -30.0294   -2.5284   30.1717 C   0  0  0  0  0  0  0  0  0  0  0  0
  -30.6472   -3.6130   30.9671 C   0  0  0  0  0  0  0  0  0  0  0  0
  -28.9673   -2.4247   31.8896 C   0  0  0  0  0  0  0  0  0  0  0  0
  -29.6626   -3.1913   32.3193 C   0  0  0  0  0  0  0  0  0  0  0  0
  -31.6006   -4.5248   30.9003 C   0  0  0  0  0  0  0  0  0  0  0  0
  -31.5386   -5.6474   31.0333 O   0  0  0  0  0  0  0  0  0  0  0  0
  -32.8529   -4.0203   30.4426 N   0  0  0  0  0  0  0  0  0  0  0  0
  -33.1657   -2.6621   30.1774 C   0  0  0  0  0  0  0  0  0  0  0  0
  -33.2517   -1.8930   31.1312 C   0  0  0  0  0  0  0  0  0  0  0  0
  -33.4541   -0.4440   30.8903 C   0  0  0  0  0  0  0  0  0  0  0  0
  -33.6692   -0.0385   29.5589 C   0  0  0  0  0  0  0  0  0  0  0  0
  -33.2912   -2.3186   28.8101 C   0  0  0  0  0  0  0  0  0  0  0  0
  -33.5524   -0.9606   28.5288 C   0  0  0  0  0  0  0  0  0  0  0  0
  -33.9623   -4.9229   30.1751 C   0  0  0  0  0  0  0  0  0  0  0  0
  -33.0395   -2.1675   32.5944 C   0  0  0  0  0  0  0  0  0  0  0  0
  -32.7705   -1.2604   33.4854 C   0  0  0  0  0  0  0  0  0  0  0  0
  -32.7053   -1.6191   34.8990 C   0  0  0  0  0  0  0  0  0  0  0  0
  -32.3823   -0.6715   35.8880 C   0  0  0  0  0  0  0  0  0  0  0  0
  -32.1404    0.6479   35.4706 C   0  0  0  0  0  0  0  0  0  0  0  0
  -32.1601    1.0308   34.1401 C   0  0  0  0  0  0  0  0  0  0  0  0
  -32.4319    0.0825   33.2070 C   0  0  0  0  0  0  0  0  0  0  0  0
  3  7  1  0
  2  8  1  0
  8  9  1  0
  9 10  2  0
  8 11  1  0
 10 12  1  0
 11 12  2  0
 10 13  1  0
 13 14  2  0
 13 15  1  0
 15 16  1  0
 15 22  1  0
 17 23  1  0
 23 24  1  0
 24 25  2  0
 25 26  1  0
 26 27  2  0
 27 28  1  0
 28 29  2  0
 29 24  1  0
  1  2  2  0
  2  5  1  0
  5  6  2  0
  6  4  1  0
  4  3  2  0
  3  1  1  0
 16 17  1  0
 17 18  2  0
 18 19  1  0
 19 21  2  0
 21 20  1  0
 20 16  2  0
M  END

$$$$
