No_1228-gen_results/8p0m/2024-11-26-14-13-15/
     RDKit          3D

 20 23  0  0  0  0  0  0  0  0999 V2000
  -28.0162   -0.8135   28.8779 C   0  0  0  0  0  0  0  0  0  0  0  0
  -28.4690   -0.7850   29.8287 C   0  0  0  0  0  0  0  0  0  0  0  0
  -28.1816    0.4277   28.1134 C   0  0  0  0  0  0  0  0  0  0  0  0
  -28.9841    1.4155   28.5154 C   0  0  0  0  0  0  0  0  0  0  0  0
  -29.3802    0.1384   30.4612 C   0  0  0  0  0  0  0  0  0  0  0  0
  -29.5415    1.2736   29.7242 C   0  0  0  0  0  0  0  0  0  0  0  0
  -27.4452    0.4872   26.7726 C   0  0  0  0  0  0  0  0  0  0  0  0
  -26.0008    0.3969   26.7906 C   0  0  0  0  0  0  0  0  0  0  0  0
  -25.2463    1.0863   25.9144 C   0  0  0  0  0  0  0  0  0  0  0  0
  -23.8497    1.1473   26.0086 C   0  0  0  0  0  0  0  0  0  0  0  0
  -23.3723    1.4171   27.2891 C   0  0  0  0  0  0  0  0  0  0  0  0
  -24.1069    0.7207   28.3448 C   0  0  0  0  0  0  0  0  0  0  0  0
  -25.3796    0.3453   28.1617 C   0  0  0  0  0  0  0  0  0  0  0  0
  -27.9371   -0.5182   25.7581 C   0  0  0  0  0  0  0  0  0  0  0  0
  -27.9047    1.8969   26.2104 C   0  0  0  0  0  0  0  0  0  0  0  0
  -29.0660    2.5011   27.7561 N   0  0  0  0  0  0  0  0  0  0  0  0
  -28.5665    2.7952   26.6151 C   0  0  0  0  0  0  0  0  0  0  0  0
  -21.9288    1.6444   27.4805 C   0  0  0  0  0  0  0  0  0  0  0  0
  -28.6525    0.0916   24.5968 C   0  0  0  0  0  0  0  0  0  0  0  0
  -27.8585    1.7283   24.6319 C   0  0  0  0  0  0  0  0  0  0  0  0
  3  7  1  0
  7  8  1  0
  7 14  1  0
  7 15  1  0
 16 17  1  0
 11 18  1  0
 14 19  1  0
 15 20  1  0
 19 20  1  0
  4 16  1  0
 17 15  1  0
  8  9  2  0
  9 10  1  0
 10 11  2  0
 11 12  1  0
 12 13  2  0
 13  8  1  0
  1  2  2  0
  2  5  1  0
  5  6  2  0
  6  4  1  0
  4  3  2  0
  3  1  1  0
M  END

$$$$
