No_1255-gen_results/8p0m/2024-11-26-14-13-15/
     RDKit          3D

 30 33  0  0  0  0  0  0  0  0999 V2000
  -28.0162   -0.8135   28.8779 C   0  0  0  0  0  0  0  0  0  0  0  0
  -27.0636   -0.1190   28.6079 C   0  0  0  0  0  0  0  0  0  0  0  0
  -27.0010    0.6913   27.4910 C   0  0  0  0  0  0  0  0  0  0  0  0
  -25.8548    1.4825   27.0830 C   0  0  0  0  0  0  0  0  0  0  0  0
  -24.6901    1.4526   27.8807 C   0  0  0  0  0  0  0  0  0  0  0  0
  -24.7379    0.6010   29.0416 C   0  0  0  0  0  0  0  0  0  0  0  0
  -25.8234   -0.1688   29.3887 C   0  0  0  0  0  0  0  0  0  0  0  0
  -29.2150   -0.1725   29.0132 N   0  0  0  0  0  0  0  0  0  0  0  0
  -29.7200    0.5474   28.3236 C   0  0  0  0  0  0  0  0  0  0  0  0
  -30.9742    1.0608   28.6662 C   0  0  0  0  0  0  0  0  0  0  0  0
  -30.0997   -0.6583   30.1305 C   0  0  0  0  0  0  0  0  0  0  0  0
  -31.2230   -0.2233   30.4115 N   0  0  0  0  0  0  0  0  0  0  0  0
  -31.7156    0.6877   29.6434 C   0  0  0  0  0  0  0  0  0  0  0  0
  -23.3029    2.3008   27.4957 Cl  0  0  0  0  0  0  0  0  0  0  0  0
  -32.8905    1.2306   29.8699 O   0  0  0  0  0  0  0  0  0  0  0  0
  -27.8771   -2.0197   29.1529 O   0  0  0  0  0  0  0  0  0  0  0  0
  -31.5201    2.1771   27.6693 C   0  0  0  0  0  0  0  0  0  0  0  0
  -31.3287    3.2352   27.9111 C   0  0  0  0  0  0  0  0  0  0  0  0
  -30.5344    3.7754   29.0780 C   0  0  0  0  0  0  0  0  0  0  0  0
  -29.9443    4.7015   29.2735 C   0  0  0  0  0  0  0  0  0  0  0  0
  -29.1429    5.0484   30.4763 C   0  0  0  0  0  0  0  0  0  0  0  0
  -29.0866    4.0534   31.4775 C   0  0  0  0  0  0  0  0  0  0  0  0
  -29.7330    2.8622   31.2641 C   0  0  0  0  0  0  0  0  0  0  0  0
  -30.3529    2.6989   30.1367 C   0  0  0  0  0  0  0  0  0  0  0  0
  -31.5342    3.1458   30.6101 C   0  0  0  0  0  0  0  0  0  0  0  0
  -32.1192    4.2621   30.7771 C   0  0  0  0  0  0  0  0  0  0  0  0
  -33.2686    4.3330   31.7785 C   0  0  0  0  0  0  0  0  0  0  0  0
  -33.9711    5.4725   32.0220 C   0  0  0  0  0  0  0  0  0  0  0  0
  -32.2668    2.3029   31.5079 C   0  0  0  0  0  0  0  0  0  0  0  0
  -33.2647    3.1157   32.2860 C   0  0  0  0  0  0  0  0  0  0  0  0
  1  2  1  0
  1  8  1  0
  8  9  1  0
  8 11  1  0
 10 13  1  0
 12 13  1  0
  5 14  1  0
 13 15  2  0
  1 16  2  0
 10 17  1  0
 17 18  2  3
 18 19  1  0
 24 25  1  0
 25 26  2  0
 26 27  1  0
 27 28  2  0
 25 29  1  0
 27 30  1  0
 29 30  2  0
  9 10  1  0
 12 11  1  0
  2  3  2  0
  3  4  1  0
  4  5  2  0
  5  6  1  0
  6  7  2  0
  7  2  1  0
 19 20  2  0
 20 21  1  0
 21 22  2  0
 22 23  1  0
 23 24  2  0
 24 19  1  0
M  END

$$$$
