No_1096-gen_results/8p0m/2024-11-26-14-13-15/
     RDKit          3D

 29 32  0  0  0  0  0  0  0  0999 V2000
  -28.0162   -0.8135   28.8779 C   0  0  0  0  0  0  0  0  0  0  0  0
  -28.4690   -0.7850   29.8287 C   0  0  0  0  0  0  0  0  0  0  0  0
  -26.5042   -0.7777   28.8766 C   0  0  0  0  0  0  0  0  0  0  0  0
  -25.6540   -0.6597   27.7191 C   0  0  0  0  0  0  0  0  0  0  0  0
  -29.9920   -0.8134   29.9579 C   0  0  0  0  0  0  0  0  0  0  0  0
  -24.2081   -0.6354   27.9684 C   0  0  0  0  0  0  0  0  0  0  0  0
  -23.7063   -0.7914   29.2384 C   0  0  0  0  0  0  0  0  0  0  0  0
  -24.5067   -0.9064   30.3194 C   0  0  0  0  0  0  0  0  0  0  0  0
  -25.8427   -0.9378   30.1742 C   0  0  0  0  0  0  0  0  0  0  0  0
  -27.8431   -0.9668   31.2073 C   0  0  0  0  0  0  0  0  0  0  0  0
  -26.6376   -1.0149   31.3406 C   0  0  0  0  0  0  0  0  0  0  0  0
  -30.5515   -0.0135   29.1955 N   0  0  0  0  0  0  0  0  0  0  0  0
  -31.8796    0.0046   28.8694 C   0  0  0  0  0  0  0  0  0  0  0  0
  -32.7083   -0.4792   29.5787 C   0  0  0  0  0  0  0  0  0  0  0  0
  -30.5167   -1.3314   30.9340 F   0  0  0  0  0  0  0  0  0  0  0  0
  -34.1778   -0.4316   29.2955 C   0  0  0  0  0  0  0  0  0  0  0  0
  -32.1998   -0.0351   27.4998 C   0  0  0  0  0  0  0  0  0  0  0  0
  -33.5441   -0.0332   27.0877 C   0  0  0  0  0  0  0  0  0  0  0  0
  -34.4864   -0.2928   28.0041 C   0  0  0  0  0  0  0  0  0  0  0  0
  -35.9076   -0.3216   27.5567 C   0  0  0  0  0  0  0  0  0  0  0  0
  -36.8749    0.0534   28.3668 C   0  0  0  0  0  0  0  0  0  0  0  0
  -36.4989    0.6468   29.5850 C   0  0  0  0  0  0  0  0  0  0  0  0
  -35.2389    0.1756   30.2085 C   0  0  0  0  0  0  0  0  0  0  0  0
  -37.6009    0.5575   30.7287 C   0  0  0  0  0  0  0  0  0  0  0  0
  -36.1683    2.1383   29.3190 C   0  0  0  0  0  0  0  0  0  0  0  0
  -36.5118    3.1173   29.4966 C   0  0  0  0  0  0  0  0  0  0  0  0
  -35.7575    4.0423   30.1724 C   0  0  0  0  0  0  0  0  0  0  0  0
  -34.3755    4.1609   29.8905 C   0  0  0  0  0  0  0  0  0  0  0  0
  -33.8123    2.9693   29.3453 C   0  0  0  0  0  0  0  0  0  0  0  0
  5 12  1  0
 12 13  1  0
  5 15  1  0
 19 20  1  0
 21 22  1  0
 16 23  1  0
 22 23  1  0
 22 24  1  0
 22 25  1  0
 25 26  3  0
 26 27  1  0
 27 28  2  3
 28 29  1  0
  5  2  1  0
 21 20  1  0
  3  4  2  0
  4  6  1  0
  6  7  2  0
  7  8  1  0
  8  9  2  0
 13 14  2  0
 14 16  1  0
 16 19  2  0
 19 18  1  0
 18 17  2  0
 17 13  1  0
  1  2  2  0
  2 10  1  0
 10 11  2  0
 11  9  1  0
  9  3  1  0
  3  1  1  0
M  END

$$$$
