No_1700-gen_results/8p0m/2024-11-26-14-13-15/
     RDKit          3D

 16 17  0  0  0  0  0  0  0  0999 V2000
  -28.1493   -0.8198   28.9079 Cl  0  0  0  0  0  0  0  0  0  0  0  0
  -26.9116   -0.0797   28.9452 C   0  0  0  0  0  0  0  0  0  0  0  0
  -26.7384    1.0439   29.2534 C   0  0  0  0  0  0  0  0  0  0  0  0
  -25.4392    1.7115   29.2755 C   0  0  0  0  0  0  0  0  0  0  0  0
  -24.2812    0.9888   28.8542 C   0  0  0  0  0  0  0  0  0  0  0  0
  -24.4869   -0.3041   28.4957 C   0  0  0  0  0  0  0  0  0  0  0  0
  -25.7046   -0.8667   28.5244 C   0  0  0  0  0  0  0  0  0  0  0  0
  -22.9690    1.6346   28.7977 C   0  0  0  0  0  0  0  0  0  0  0  0
  -21.9160    1.0426   28.7571 O   0  0  0  0  0  0  0  0  0  0  0  0
  -22.9930    2.9440   28.3935 O   0  0  0  0  0  0  0  0  0  0  0  0
  -27.8147    1.9695   29.7406 C   0  0  0  0  0  0  0  0  0  0  0  0
  -27.9360    3.0872   29.2720 C   0  0  0  0  0  0  0  0  0  0  0  0
  -28.9959    4.0356   29.7522 C   0  0  0  0  0  0  0  0  0  0  0  0
  -29.9024    3.4924   30.6507 C   0  0  0  0  0  0  0  0  0  0  0  0
  -29.7356    2.2156   31.0940 C   0  0  0  0  0  0  0  0  0  0  0  0
  -28.6802    1.4039   30.7081 C   0  0  0  0  0  0  0  0  0  0  0  0
  1  2  1  0
  5  8  1  0
  8  9  2  0
  8 10  1  0
  3 11  1  0
 11 12  2  0
 12 13  1  0
 13 14  2  0
 14 15  1  0
 15 16  2  0
 16 11  1  0
  2  3  2  0
  3  4  1  0
  4  5  2  0
  5  6  1  0
  6  7  2  0
  7  2  1  0
M  END

$$$$
