No_1506-gen_results/8p0m/2024-11-26-14-13-15/
     RDKit          3D

 31 33  0  0  0  0  0  0  0  0999 V2000
  -28.0162   -0.8135   28.8779 C   0  0  0  0  0  0  0  0  0  0  0  0
  -28.4690   -0.7850   29.8287 C   0  0  0  0  0  0  0  0  0  0  0  0
  -26.5455   -0.8762   28.8500 C   0  0  0  0  0  0  0  0  0  0  0  0
  -25.8041   -1.0324   30.0571 C   0  0  0  0  0  0  0  0  0  0  0  0
  -27.9437   -0.9869   31.2075 C   0  0  0  0  0  0  0  0  0  0  0  0
  -24.4008   -1.0969   30.0965 C   0  0  0  0  0  0  0  0  0  0  0  0
  -26.5612   -1.0746   31.2270 C   0  0  0  0  0  0  0  0  0  0  0  0
  -23.7342    0.1405   29.9379 C   0  0  0  0  0  0  0  0  0  0  0  0
  -23.9870    1.2852   30.4777 C   0  0  0  0  0  0  0  0  0  0  0  0
  -23.3758    2.5002   30.0628 C   0  0  0  0  0  0  0  0  0  0  0  0
  -22.5814    2.3872   28.9177 C   0  0  0  0  0  0  0  0  0  0  0  0
  -22.7722    0.3574   28.8023 C   0  0  0  0  0  0  0  0  0  0  0  0
  -22.1977    1.3535   28.3892 C   0  0  0  0  0  0  0  0  0  0  0  0
  -25.8288   -0.7824   27.7087 O   0  0  0  0  0  0  0  0  0  0  0  0
  -25.8118    0.4022   26.9395 C   0  0  0  0  0  0  0  0  0  0  0  0
  -25.2892    0.3048   25.6825 C   0  0  0  0  0  0  0  0  0  0  0  0
  -26.2634    1.6353   27.4470 C   0  0  0  0  0  0  0  0  0  0  0  0
  -26.1567    2.8050   26.7586 C   0  0  0  0  0  0  0  0  0  0  0  0
  -25.0496    1.5160   24.9770 C   0  0  0  0  0  0  0  0  0  0  0  0
  -25.4981    2.7277   25.5064 C   0  0  0  0  0  0  0  0  0  0  0  0
  -23.7204   -2.2874   30.3656 C   0  0  0  0  0  0  0  0  0  0  0  0
  -21.4020    1.3946   27.3051 O   0  0  0  0  0  0  0  0  0  0  0  0
  -30.0920   -0.7538   29.8896 C   0  0  0  0  0  0  0  0  0  0  0  0
  -30.6410   -1.7576   30.0602 O   0  0  0  0  0  0  0  0  0  0  0  0
  -30.6675    0.4194   29.6223 N   0  0  0  0  0  0  0  0  0  0  0  0
  -30.0281    1.6933   29.4242 C   0  0  0  0  0  0  0  0  0  0  0  0
  -30.5776    2.7434   29.2553 C   0  0  0  0  0  0  0  0  0  0  0  0
  -31.6175    3.0423   29.8568 C   0  0  0  0  0  0  0  0  0  0  0  0
  -32.3383    4.2245   29.6879 C   0  0  0  0  0  0  0  0  0  0  0  0
  -31.8232    5.1725   28.8098 C   0  0  0  0  0  0  0  0  0  0  0  0
  -30.6500    4.9464   28.1189 C   0  0  0  0  0  0  0  0  0  0  0  0
  4  6  1  0
  6  8  1  0
  3 14  1  0
 14 15  1  0
  6 21  1  0
 13 22  1  0
  2 23  1  0
 23 24  2  0
 23 25  1  0
 25 26  1  0
 26 27  2  3
 27 28  1  0
 28 29  1  0
 29 30  2  3
 30 31  1  0
  8  9  2  0
  9 10  1  0
 10 11  2  0
 11 13  1  0
 13 12  2  0
 12  8  1  0
 15 16  2  0
 16 19  1  0
 19 20  2  0
 20 18  1  0
 18 17  2  0
 17 15  1  0
  1  2  2  0
  2  5  1  0
  5  7  2  0
  7  4  1  0
  4  3  2  0
  3  1  1  0
M  END

$$$$
