No_1557-gen_results/8p0m/2024-11-26-14-13-15/
     RDKit          3D

 21 22  0  0  0  0  0  0  0  0999 V2000
  -28.0162   -0.8135   28.8779 C   0  0  0  0  0  0  0  0  0  0  0  0
  -27.0636   -0.1189   28.6079 C   0  0  0  0  0  0  0  0  0  0  0  0
  -25.7923   -0.4302   29.0761 C   0  0  0  0  0  0  0  0  0  0  0  0
  -24.5456    0.3494   28.8225 C   0  0  0  0  0  0  0  0  0  0  0  0
  -24.6586    1.4196   27.8878 C   0  0  0  0  0  0  0  0  0  0  0  0
  -25.9471    1.6811   27.3792 C   0  0  0  0  0  0  0  0  0  0  0  0
  -27.0439    0.9739   27.6871 C   0  0  0  0  0  0  0  0  0  0  0  0
  -28.6643   -0.5274   30.1017 N   0  0  0  0  0  0  0  0  0  0  0  0
  -29.6646   -0.3963   30.4406 C   0  0  0  0  0  0  0  0  0  0  0  0
  -30.5800   -0.4891   29.5997 O   0  0  0  0  0  0  0  0  0  0  0  0
  -30.0588   -0.4612   31.9237 C   0  0  0  0  0  0  0  0  0  0  0  0
  -23.4553    2.1694   27.5972 C   0  0  0  0  0  0  0  0  0  0  0  0
  -22.3093    1.8728   28.0421 O   0  0  0  0  0  0  0  0  0  0  0  0
  -23.4792    2.8372   26.3846 O   0  0  0  0  0  0  0  0  0  0  0  0
  -29.8719    0.7192   32.6297 C   0  0  0  0  0  0  0  0  0  0  0  0
  -29.5577    0.5985   33.7966 C   0  0  0  0  0  0  0  0  0  0  0  0
  -29.0720    1.7932   34.6295 C   0  0  0  0  0  0  0  0  0  0  0  0
  -29.0624    3.0458   33.9626 C   0  0  0  0  0  0  0  0  0  0  0  0
  -29.3998    3.0557   32.6059 C   0  0  0  0  0  0  0  0  0  0  0  0
  -29.7233    1.8754   31.9217 C   0  0  0  0  0  0  0  0  0  0  0  0
  -28.2357    1.3467   27.1959 O   0  0  0  0  0  0  0  0  0  0  0  0
  1  2  1  0
  3  4  1  0
  5  6  1  0
  2  7  1  0
  6  7  1  0
  1  8  1  0
  8  9  1  0
  9 10  2  0
  9 11  1  0
  5 12  1  0
 12 13  2  0
 12 14  1  0
 11 15  1  0
  7 21  2  0
  2  3  1  0
  4  5  1  0
 15 16  2  0
 16 17  1  0
 17 18  2  0
 18 19  1  0
 19 20  2  0
 20 15  1  0
M  END

$$$$
