No_1606-gen_results/8p0m/2024-11-26-14-13-15/
     RDKit          3D

 13 13  0  0  0  0  0  0  0  0999 V2000
  -28.0162   -0.8135   28.8779 C   0  0  0  0  0  0  0  0  0  0  0  0
  -27.0636   -0.1190   28.6079 C   0  0  0  0  0  0  0  0  0  0  0  0
  -26.9287    1.1713   29.0083 C   0  0  0  0  0  0  0  0  0  0  0  0
  -25.7702    2.0341   28.6884 C   0  0  0  0  0  0  0  0  0  0  0  0
  -24.7141    1.4431   27.9188 C   0  0  0  0  0  0  0  0  0  0  0  0
  -24.8590    0.0783   27.5836 C   0  0  0  0  0  0  0  0  0  0  0  0
  -25.9647   -0.6606   27.9164 C   0  0  0  0  0  0  0  0  0  0  0  0
  -28.0422   -1.5426   30.2417 C   0  0  0  0  0  0  0  0  0  0  0  0
  -26.9582   -1.9082   30.5842 F   0  0  0  0  0  0  0  0  0  0  0  0
  -28.4692   -0.7150   31.2282 F   0  0  0  0  0  0  0  0  0  0  0  0
  -28.8909   -2.6188   30.2313 F   0  0  0  0  0  0  0  0  0  0  0  0
  -23.5209    2.1541   27.5677 C   0  0  0  0  0  0  0  0  0  0  0  0
  -23.1315    2.8611   26.9151 N   0  0  0  0  0  0  0  0  0  0  0  0
  1  2  1  0
  1  8  1  0
  8  9  1  0
  8 10  1  0
  8 11  1  0
  5 12  1  0
 12 13  3  0
  2  3  2  0
  3  4  1  0
  4  5  2  0
  5  6  1  0
  6  7  2  0
  7  2  1  0
M  END

$$$$
