No_1127-gen_results/8p0m/2024-11-26-14-13-15/
     RDKit          3D

 15 16  0  0  0  0  0  0  0  0999 V2000
  -28.0162   -0.8135   28.8779 C   0  0  0  0  0  0  0  0  0  0  0  0
  -28.4690   -0.7850   29.8287 C   0  0  0  0  0  0  0  0  0  0  0  0
  -27.1356    0.2359   28.5352 C   0  0  0  0  0  0  0  0  0  0  0  0
  -26.8745    1.2825   29.3982 C   0  0  0  0  0  0  0  0  0  0  0  0
  -27.5070    1.2380   30.6295 C   0  0  0  0  0  0  0  0  0  0  0  0
  -28.3293    0.1745   30.9350 C   0  0  0  0  0  0  0  0  0  0  0  0
  -26.4077    0.3070   27.2259 C   0  0  0  0  0  0  0  0  0  0  0  0
  -26.8748    0.8389   26.2127 C   0  0  0  0  0  0  0  0  0  0  0  0
  -25.0813   -0.2883   27.1835 C   0  0  0  0  0  0  0  0  0  0  0  0
  -26.2896    0.6599   24.9125 C   0  0  0  0  0  0  0  0  0  0  0  0
  -24.5004   -0.8632   28.4680 C   0  0  0  0  0  0  0  0  0  0  0  0
  -24.9118    0.1598   24.9219 C   0  0  0  0  0  0  0  0  0  0  0  0
  -24.3653   -0.2373   26.0404 C   0  0  0  0  0  0  0  0  0  0  0  0
  -24.7249   -2.0789   29.0078 C   0  0  0  0  0  0  0  0  0  0  0  0
  -24.1605   -2.5444   30.1333 C   0  0  0  0  0  0  0  0  0  0  0  0
  3  7  1  0
  9 11  1  0
 11 14  2  3
 14 15  1  0
  1  2  2  0
  2  6  1  0
  6  5  2  0
  5  4  1  0
  4  3  2  0
  3  1  1  0
  7  8  2  0
  8 10  1  0
 10 12  2  0
 12 13  1  0
 13  9  2  0
  9  7  1  0
M  END

$$$$
