No_1238-gen_results/8p0m/2024-11-26-14-13-15/
     RDKit          3D

 30 33  0  0  0  0  0  0  0  0999 V2000
  -28.0162   -0.8135   28.8779 C   0  0  0  0  0  0  0  0  0  0  0  0
  -28.4690   -0.7850   29.8287 C   0  0  0  0  0  0  0  0  0  0  0  0
  -27.0871    0.2903   28.6377 C   0  0  0  0  0  0  0  0  0  0  0  0
  -26.2516    0.4114   27.4223 C   0  0  0  0  0  0  0  0  0  0  0  0
  -28.3913    0.1041   30.9805 C   0  0  0  0  0  0  0  0  0  0  0  0
  -27.5332    1.1666   30.7866 C   0  0  0  0  0  0  0  0  0  0  0  0
  -26.8281    1.2557   29.6454 C   0  0  0  0  0  0  0  0  0  0  0  0
  -24.9668    0.4106   27.5252 C   0  0  0  0  0  0  0  0  0  0  0  0
  -24.2606    0.1651   28.7212 C   0  0  0  0  0  0  0  0  0  0  0  0
  -22.8025    0.3416   28.7027 C   0  0  0  0  0  0  0  0  0  0  0  0
  -21.9778   -0.3235   29.5593 C   0  0  0  0  0  0  0  0  0  0  0  0
  -22.5602   -0.9269   30.6975 C   0  0  0  0  0  0  0  0  0  0  0  0
  -23.9127   -0.8362   30.9150 C   0  0  0  0  0  0  0  0  0  0  0  0
  -24.7641   -0.4310   29.8570 C   0  0  0  0  0  0  0  0  0  0  0  0
  -26.9810    0.5432   26.2085 C   0  0  0  0  0  0  0  0  0  0  0  0
  -26.3516    0.3277   25.0169 C   0  0  0  0  0  0  0  0  0  0  0  0
  -24.8680    0.3614   25.0721 C   0  0  0  0  0  0  0  0  0  0  0  0
  -24.2029    0.3827   26.2670 C   0  0  0  0  0  0  0  0  0  0  0  0
  -28.3178    0.4946   26.1979 O   0  0  0  0  0  0  0  0  0  0  0  0
  -29.0026    1.5134   25.5650 C   0  0  0  0  0  0  0  0  0  0  0  0
  -28.8520    2.7173   25.7702 C   0  0  0  0  0  0  0  0  0  0  0  0
  -29.9768    0.9541   24.6695 C   0  0  0  0  0  0  0  0  0  0  0  0
  -27.4209    2.2436   31.8245 C   0  0  0  0  0  0  0  0  0  0  0  0
  -27.9390    3.3954   31.7007 C   0  0  0  0  0  0  0  0  0  0  0  0
  -27.7412    4.4634   32.6362 C   0  0  0  0  0  0  0  0  0  0  0  0
  -26.9515    4.2375   33.7873 C   0  0  0  0  0  0  0  0  0  0  0  0
  -26.3616    2.9736   33.9382 C   0  0  0  0  0  0  0  0  0  0  0  0
  -26.5267    1.9723   32.9474 C   0  0  0  0  0  0  0  0  0  0  0  0
  -29.5284   -1.9311   30.2331 C   0  0  0  0  0  0  0  0  0  0  0  0
  -29.8838   -2.6446   31.3962 Cl  0  0  0  0  0  0  0  0  0  0  0  0
  3  4  1  0
  8  9  1  0
 15 19  1  0
 19 20  1  0
 20 21  1  0
 20 22  1  0
  6 23  1  0
  2 29  1  0
 29 30  1  0
  4  8  2  0
  8 18  1  0
 18 17  2  0
 17 16  1  0
 16 15  2  0
 15  4  1  0
 23 24  2  0
 24 25  1  0
 25 26  2  0
 26 27  1  0
 27 28  2  0
 28 23  1  0
  9 10  2  0
 10 11  1  0
 11 12  2  0
 12 13  1  0
 13 14  2  0
 14  9  1  0
  1  2  2  0
  2  5  1  0
  5  6  2  0
  6  7  1  0
  7  3  2  0
  3  1  1  0
M  END

$$$$
