No_1258-gen_results/8p0m/2024-11-26-14-13-15/
     RDKit          3D

 24 26  0  0  0  0  0  0  0  0999 V2000
  -28.0162   -0.8135   28.8779 C   0  0  0  0  0  0  0  0  0  0  0  0
  -28.4690   -0.7850   29.8287 C   0  0  0  0  0  0  0  0  0  0  0  0
  -27.1356    0.2359   28.5352 C   0  0  0  0  0  0  0  0  0  0  0  0
  -26.8745    1.2825   29.3982 C   0  0  0  0  0  0  0  0  0  0  0  0
  -28.3613    0.1987   30.9244 C   0  0  0  0  0  0  0  0  0  0  0  0
  -25.9723    2.3852   29.1040 C   0  0  0  0  0  0  0  0  0  0  0  0
  -27.5118    1.2316   30.6323 C   0  0  0  0  0  0  0  0  0  0  0  0
  -25.4925    3.0751   29.8094 C   0  0  0  0  0  0  0  0  0  0  0  0
  -24.5824    4.1870   29.4674 C   0  0  0  0  0  0  0  0  0  0  0  0
  -24.5868    4.5078   28.0903 C   0  0  0  0  0  0  0  0  0  0  0  0
  -25.8733    2.8000   27.6717 C   0  0  0  0  0  0  0  0  0  0  0  0
  -25.1997    3.7959   27.2293 C   0  0  0  0  0  0  0  0  0  0  0  0
  -26.5203    0.2163   27.3121 O   0  0  0  0  0  0  0  0  0  0  0  0
  -25.3464   -0.2373   27.0710 C   0  0  0  0  0  0  0  0  0  0  0  0
  -29.4495   -2.0048   30.3245 C   0  0  0  0  0  0  0  0  0  0  0  0
  -28.9433   -3.1603   30.5197 O   0  0  0  0  0  0  0  0  0  0  0  0
  -30.6189   -1.8338   30.5371 O   0  0  0  0  0  0  0  0  0  0  0  0
  -24.4408   -0.5679   28.1686 C   0  0  0  0  0  0  0  0  0  0  0  0
  -23.3502    0.1321   28.5505 C   0  0  0  0  0  0  0  0  0  0  0  0
  -22.4876   -0.2881   29.5110 C   0  0  0  0  0  0  0  0  0  0  0  0
  -24.6992   -1.6694   29.0649 C   0  0  0  0  0  0  0  0  0  0  0  0
  -23.9383   -2.0595   30.0987 C   0  0  0  0  0  0  0  0  0  0  0  0
  -22.8382   -1.2727   30.4046 C   0  0  0  0  0  0  0  0  0  0  0  0
  -24.8775   -0.2682   25.9305 O   0  0  0  0  0  0  0  0  0  0  0  0
  4  6  1  0
  3 13  1  0
 13 14  1  0
  2 15  1  0
 15 16  1  0
 15 17  2  0
 14 18  1  0
 14 24  2  0
 18 19  2  0
 19 20  1  0
 20 23  2  0
 23 22  1  0
 22 21  2  0
 21 18  1  0
  6  8  2  0
  8  9  1  0
  9 10  2  0
 10 12  1  0
 12 11  2  0
 11  6  1  0
  1  2  2  0
  2  5  1  0
  5  7  2  0
  7  4  1  0
  4  3  2  0
  3  1  1  0
M  END

$$$$
