No_1022-gen_results/8p0m/2024-11-26-14-13-15/
     RDKit          3D

 19 21  0  0  0  0  0  0  0  0999 V2000
  -28.0162   -0.8135   28.8779 C   0  0  0  0  0  0  0  0  0  0  0  0
  -27.0636   -0.1190   28.6079 C   0  0  0  0  0  0  0  0  0  0  0  0
  -26.9716    0.7139   27.5060 C   0  0  0  0  0  0  0  0  0  0  0  0
  -28.1053    0.7744   26.6421 C   0  0  0  0  0  0  0  0  0  0  0  0
  -29.2041    0.1179   27.0477 C   0  0  0  0  0  0  0  0  0  0  0  0
  -29.2127   -0.6088   28.1281 C   0  0  0  0  0  0  0  0  0  0  0  0
  -25.7106    1.4518   27.1380 C   0  0  0  0  0  0  0  0  0  0  0  0
  -24.6052    0.9253   27.6902 C   0  0  0  0  0  0  0  0  0  0  0  0
  -24.6227    0.0600   28.8225 C   0  0  0  0  0  0  0  0  0  0  0  0
  -25.7269   -0.4734   29.2409 C   0  0  0  0  0  0  0  0  0  0  0  0
  -23.2725    1.6786   27.4284 C   0  0  0  0  0  0  0  0  0  0  0  0
  -22.1234    1.1192   27.8410 N   0  0  0  0  0  0  0  0  0  0  0  0
  -23.2665    2.7222   26.7486 F   0  0  0  0  0  0  0  0  0  0  0  0
  -30.4399    0.3124   26.2197 C   0  0  0  0  0  0  0  0  0  0  0  0
  -30.7704    1.3075   25.8696 O   0  0  0  0  0  0  0  0  0  0  0  0
  -31.1094   -0.7739   25.9461 O   0  0  0  0  0  0  0  0  0  0  0  0
  -21.9940    0.1234   28.7047 C   0  0  0  0  0  0  0  0  0  0  0  0
  -23.2992   -0.4497   29.3239 C   0  0  0  0  0  0  0  0  0  0  0  0
  -25.7834   -1.3087   30.2320 O   0  0  0  0  0  0  0  0  0  0  0  0
  3  7  1  0
  2 10  1  0
  9 10  1  0
 11 13  1  0
  5 14  1  0
 14 15  2  0
 14 16  1  0
 10 19  2  0
  7  8  1  0
  1  2  2  0
  2  3  1  0
  3  4  2  0
  4  5  1  0
  5  6  2  0
  6  1  1  0
  8  9  2  0
  9 18  1  0
 18 17  2  0
 17 12  1  0
 12 11  2  0
 11  8  1  0
M  END

$$$$
