No_1220-gen_results/8p0m/2024-11-26-14-13-15/
     RDKit          3D

 26 28  0  0  0  0  0  0  0  0999 V2000
  -28.0162   -0.8135   28.8779 C   0  0  0  0  0  0  0  0  0  0  0  0
  -28.4690   -0.7850   29.8287 C   0  0  0  0  0  0  0  0  0  0  0  0
  -26.5455   -0.8762   28.8500 C   0  0  0  0  0  0  0  0  0  0  0  0
  -25.8041   -1.0324   30.0571 C   0  0  0  0  0  0  0  0  0  0  0  0
  -27.9437   -0.9869   31.2075 C   0  0  0  0  0  0  0  0  0  0  0  0
  -26.5825   -1.0386   31.2231 C   0  0  0  0  0  0  0  0  0  0  0  0
  -30.0606   -0.7371   29.9024 C   0  0  0  0  0  0  0  0  0  0  0  0
  -30.6052    0.0855   30.7066 O   0  0  0  0  0  0  0  0  0  0  0  0
  -30.6649   -1.4220   29.0648 O   0  0  0  0  0  0  0  0  0  0  0  0
  -24.3706   -1.0924   30.0778 C   0  0  0  0  0  0  0  0  0  0  0  0
  -23.7556   -1.8170   30.6117 N   0  0  0  0  0  0  0  0  0  0  0  0
  -23.6921   -0.1357   29.3230 N   0  0  0  0  0  0  0  0  0  0  0  0
  -22.3361   -0.4440   29.4756 C   0  0  0  0  0  0  0  0  0  0  0  0
  -22.4221   -1.4563   30.3296 N   0  0  0  0  0  0  0  0  0  0  0  0
  -21.2104    0.1929   28.9459 C   0  0  0  0  0  0  0  0  0  0  0  0
  -21.5999    1.0961   28.3504 O   0  0  0  0  0  0  0  0  0  0  0  0
  -20.1440   -0.4171   28.8450 O   0  0  0  0  0  0  0  0  0  0  0  0
  -25.8622   -0.8244   27.6790 O   0  0  0  0  0  0  0  0  0  0  0  0
  -25.8875    0.3451   26.8796 C   0  0  0  0  0  0  0  0  0  0  0  0
  -25.4307    0.1874   25.6041 C   0  0  0  0  0  0  0  0  0  0  0  0
  -26.2918    1.5879   27.3231 C   0  0  0  0  0  0  0  0  0  0  0  0
  -26.7503    1.8531   28.6447 C   0  0  0  0  0  0  0  0  0  0  0  0
  -27.0655    3.2666   28.8936 C   0  0  0  0  0  0  0  0  0  0  0  0
  -26.9615    4.1598   27.9130 C   0  0  0  0  0  0  0  0  0  0  0  0
  -26.0554    2.7398   26.5456 C   0  0  0  0  0  0  0  0  0  0  0  0
  -26.3147    3.9944   26.8170 C   0  0  0  0  0  0  0  0  0  0  0  0
  2  7  1  0
  7  8  1  0
  7  9  2  0
  4 10  1  0
 10 11  1  0
 10 12  2  0
 12 13  1  0
 11 14  1  0
 13 14  2  0
 13 15  1  0
 15 16  1  0
 15 17  2  0
  3 18  1  0
 18 19  1  0
 19 20  2  0
 19 21  1  0
 21 22  2  0
 22 23  1  0
 23 24  2  0
 24 26  1  0
 26 25  2  0
 25 21  1  0
  1  2  2  0
  2  5  1  0
  5  6  2  0
  6  4  1  0
  4  3  2  0
  3  1  1  0
M  END

$$$$
