No_1562-gen_results/8p0m/2024-11-26-14-13-15/
     RDKit          3D

 18 19  0  0  0  0  0  0  0  0999 V2000
  -28.1146   -0.6256   29.0813 Br  0  0  0  0  0  0  0  0  0  0  0  0
  -26.9268    0.4545   28.6846 C   0  0  0  0  0  0  0  0  0  0  0  0
  -25.8457    0.7043   29.3312 C   0  0  0  0  0  0  0  0  0  0  0  0
  -24.8514    1.6413   28.9474 C   0  0  0  0  0  0  0  0  0  0  0  0
  -23.5859    1.9127   29.5890 C   0  0  0  0  0  0  0  0  0  0  0  0
  -23.3126    1.0327   30.6490 C   0  0  0  0  0  0  0  0  0  0  0  0
  -24.1810    0.0831   31.1324 C   0  0  0  0  0  0  0  0  0  0  0  0
  -25.3703   -0.0687   30.4179 C   0  0  0  0  0  0  0  0  0  0  0  0
  -27.0997    1.1406   27.3527 C   0  0  0  0  0  0  0  0  0  0  0  0
  -27.0987    0.5433   26.3979 C   0  0  0  0  0  0  0  0  0  0  0  0
  -26.9651   -0.8885   26.2605 C   0  0  0  0  0  0  0  0  0  0  0  0
  -26.0744   -1.2676   27.1907 C   0  0  0  0  0  0  0  0  0  0  0  0
  -26.0467   -2.1519   28.1366 C   0  0  0  0  0  0  0  0  0  0  0  0
  -24.7508   -2.8060   28.5982 C   0  0  0  0  0  0  0  0  0  0  0  0
  -24.7507   -3.7868   29.6123 C   0  0  0  0  0  0  0  0  0  0  0  0
  -26.0458   -4.2026   30.0783 C   0  0  0  0  0  0  0  0  0  0  0  0
  -27.2386   -3.5752   29.7612 C   0  0  0  0  0  0  0  0  0  0  0  0
  -27.1385   -2.6361   28.8628 C   0  0  0  0  0  0  0  0  0  0  0  0
  1  2  1  0
  2  9  1  0
  9 10  2  3
 10 11  1  0
 11 12  1  0
 12 13  1  0
  2  3  1  0
 13 14  2  0
 14 15  1  0
 15 16  2  0
 16 17  1  0
 17 18  2  0
 18 13  1  0
  3  4  2  0
  4  5  1  0
  5  6  2  0
  6  7  1  0
  7  8  2  0
  8  3  1  0
M  END

$$$$
