No_1165-gen_results/8p0m/2024-11-26-14-13-15/
     RDKit          3D

 13 14  0  0  0  0  0  0  0  0999 V2000
  -28.0162   -0.8135   28.8779 C   0  0  0  0  0  0  0  0  0  0  0  0
  -27.0636   -0.1190   28.6079 C   0  0  0  0  0  0  0  0  0  0  0  0
  -26.8756    1.1325   28.9134 C   0  0  0  0  0  0  0  0  0  0  0  0
  -27.9014    1.8066   29.6436 C   0  0  0  0  0  0  0  0  0  0  0  0
  -29.0458   -0.2316   29.7181 C   0  0  0  0  0  0  0  0  0  0  0  0
  -28.9402    1.0517   30.0597 C   0  0  0  0  0  0  0  0  0  0  0  0
  -25.9795   -0.6907   27.8753 O   0  0  0  0  0  0  0  0  0  0  0  0
  -24.6270   -0.4702   28.3306 C   0  0  0  0  0  0  0  0  0  0  0  0
  -23.9339    0.6221   27.7608 C   0  0  0  0  0  0  0  0  0  0  0  0
  -22.6554    0.8293   28.1872 C   0  0  0  0  0  0  0  0  0  0  0  0
  -21.9867   -0.1764   28.9667 C   0  0  0  0  0  0  0  0  0  0  0  0
  -23.9734   -1.3765   29.1216 C   0  0  0  0  0  0  0  0  0  0  0  0
  -22.6894   -1.2670   29.4289 C   0  0  0  0  0  0  0  0  0  0  0  0
  2  7  1  0
  7  8  1  0
  1  2  2  0
  2  3  1  0
  3  4  2  0
  4  6  1  0
  6  5  2  0
  5  1  1  0
  8  9  2  0
  9 10  1  0
 10 11  2  0
 11 13  1  0
 13 12  2  0
 12  8  1  0
M  END

$$$$
