No_1981-gen_results/8p0m/2024-11-26-14-13-15/
     RDKit          3D

 17 20  0  0  0  0  0  0  0  0999 V2000
  -28.0162   -0.8135   28.8779 C   0  0  0  0  0  0  0  0  0  0  0  0
  -27.0636   -0.1189   28.6079 C   0  0  0  0  0  0  0  0  0  0  0  0
  -25.7923   -0.4302   29.0761 C   0  0  0  0  0  0  0  0  0  0  0  0
  -24.5456    0.3494   28.8225 C   0  0  0  0  0  0  0  0  0  0  0  0
  -23.2409    0.0217   29.3323 C   0  0  0  0  0  0  0  0  0  0  0  0
  -27.8820   -1.8995   29.8633 C   0  0  0  0  0  0  0  0  0  0  0  0
  -26.6526   -2.3142   30.3138 C   0  0  0  0  0  0  0  0  0  0  0  0
  -25.5153   -1.5607   29.9787 C   0  0  0  0  0  0  0  0  0  0  0  0
  -23.2160   -1.2277   30.0505 C   0  0  0  0  0  0  0  0  0  0  0  0
  -24.2438   -1.9369   30.3995 C   0  0  0  0  0  0  0  0  0  0  0  0
  -24.7297    1.6413   28.2695 C   0  0  0  0  0  0  0  0  0  0  0  0
  -23.8719    1.9256   27.2437 N   0  0  0  0  0  0  0  0  0  0  0  0
  -24.1679    2.7650   26.2025 C   0  0  0  0  0  0  0  0  0  0  0  0
  -25.3439    3.4998   26.3086 C   0  0  0  0  0  0  0  0  0  0  0  0
  -26.0976    2.0699   27.9436 C   0  0  0  0  0  0  0  0  0  0  0  0
  -26.1884    3.3926   27.2231 C   0  0  0  0  0  0  0  0  0  0  0  0
  -27.0723    1.5456   28.5791 C   0  0  0  0  0  0  0  0  0  0  0  0
  4 11  1  0
  2 17  1  0
 15 17  1  0
  1  2  2  0
  2  3  1  0
  8  7  1  0
  7  6  2  0
  6  1  1  0
  3  4  2  0
  4  5  1  0
  5  9  2  0
  9 10  1  0
 10  8  2  0
  8  3  1  0
 11 12  2  0
 12 13  1  0
 13 14  2  0
 14 16  1  0
 16 15  2  0
 15 11  1  0
M  END

$$$$
