No_1119-gen_results/8p0m/2024-11-26-14-13-15/
     RDKit          3D

 15 16  0  0  0  0  0  0  0  0999 V2000
  -28.0162   -0.8135   28.8779 C   0  0  0  0  0  0  0  0  0  0  0  0
  -28.4690   -0.7850   29.8287 C   0  0  0  0  0  0  0  0  0  0  0  0
  -26.5042   -0.7777   28.8766 C   0  0  0  0  0  0  0  0  0  0  0  0
  -25.8103   -0.8531   30.1028 C   0  0  0  0  0  0  0  0  0  0  0  0
  -27.9906   -0.8916   31.2257 C   0  0  0  0  0  0  0  0  0  0  0  0
  -26.6042   -0.8676   31.2652 C   0  0  0  0  0  0  0  0  0  0  0  0
  -30.0739   -0.8360   29.8615 C   0  0  0  0  0  0  0  0  0  0  0  0
  -30.6891   -1.6554   30.2229 O   0  0  0  0  0  0  0  0  0  0  0  0
  -30.5801    0.0240   28.8334 N   0  0  0  0  0  0  0  0  0  0  0  0
  -31.9435   -0.0529   28.5263 C   0  0  0  0  0  0  0  0  0  0  0  0
  -32.1877    0.1359   27.2378 C   0  0  0  0  0  0  0  0  0  0  0  0
  -31.2629    0.7516   26.3892 C   0  0  0  0  0  0  0  0  0  0  0  0
  -29.9319    0.8752   26.7388 C   0  0  0  0  0  0  0  0  0  0  0  0
  -29.6330    0.4533   27.9338 C   0  0  0  0  0  0  0  0  0  0  0  0
  -28.5296    1.0051   28.3018 N   0  0  0  0  0  0  0  0  0  0  0  0
  2  7  1  0
  7  8  1  0
  7  9  1  0
  9 10  1  0
 11 12  1  0
  9 14  1  0
 13 14  1  0
 14 15  1  0
 10 11  1  0
 12 13  1  0
  1  2  2  0
  2  5  1  0
  5  6  2  0
  6  4  1  0
  4  3  2  0
  3  1  1  0
M  END

$$$$
