No_1878-gen_results/8p0m/2024-11-26-14-13-15/
     RDKit          3D

 30 32  0  0  0  0  0  0  0  0999 V2000
  -28.0162   -0.8135   28.8779 C   0  0  0  0  0  0  0  0  0  0  0  0
  -27.0636   -0.1189   28.6079 C   0  0  0  0  0  0  0  0  0  0  0  0
  -27.0010    0.6913   27.4910 C   0  0  0  0  0  0  0  0  0  0  0  0
  -25.8548    1.4825   27.0830 C   0  0  0  0  0  0  0  0  0  0  0  0
  -24.6901    1.4526   27.8807 C   0  0  0  0  0  0  0  0  0  0  0  0
  -24.7379    0.6010   29.0416 C   0  0  0  0  0  0  0  0  0  0  0  0
  -25.8234   -0.1688   29.3887 C   0  0  0  0  0  0  0  0  0  0  0  0
  -28.0376   -1.5350   30.2052 C   0  0  0  0  0  0  0  0  0  0  0  0
  -26.8472   -1.6620   30.9516 C   0  0  0  0  0  0  0  0  0  0  0  0
  -25.7454   -0.9236   30.5911 C   0  0  0  0  0  0  0  0  0  0  0  0
  -23.5005    2.2219   27.5437 C   0  0  0  0  0  0  0  0  0  0  0  0
  -22.9587    2.7128   28.5274 F   0  0  0  0  0  0  0  0  0  0  0  0
  -23.7930    3.2812   26.6943 F   0  0  0  0  0  0  0  0  0  0  0  0
  -22.5763    1.4737   26.9186 F   0  0  0  0  0  0  0  0  0  0  0  0
  -28.1273    0.7592   26.5408 C   0  0  0  0  0  0  0  0  0  0  0  0
  -29.2160    1.0253   26.9270 O   0  0  0  0  0  0  0  0  0  0  0  0
  -27.8942    0.7401   25.2690 O   0  0  0  0  0  0  0  0  0  0  0  0
  -29.1050   -2.3206   30.5096 O   0  0  0  0  0  0  0  0  0  0  0  0
  -28.9690   -3.6327   30.7163 C   0  0  0  0  0  0  0  0  0  0  0  0
  -30.1360   -4.3368   30.2782 C   0  0  0  0  0  0  0  0  0  0  0  0
  -30.7652   -4.0302   29.1907 C   0  0  0  0  0  0  0  0  0  0  0  0
  -31.6495   -3.1181   29.1892 C   0  0  0  0  0  0  0  0  0  0  0  0
  -32.8296   -3.3180   28.7367 C   0  0  0  0  0  0  0  0  0  0  0  0
  -33.8564   -2.2631   28.8180 C   0  0  0  0  0  0  0  0  0  0  0  0
  -33.4620   -0.9758   29.2108 C   0  0  0  0  0  0  0  0  0  0  0  0
  -32.1091   -0.7535   29.5670 C   0  0  0  0  0  0  0  0  0  0  0  0
  -31.2708   -1.7176   29.5563 C   0  0  0  0  0  0  0  0  0  0  0  0
  -30.5801   -4.8566   28.1105 O   0  0  0  0  0  0  0  0  0  0  0  0
  -31.0996   -4.4077   31.3574 F   0  0  0  0  0  0  0  0  0  0  0  0
  -29.6512   -5.6587   30.2227 F   0  0  0  0  0  0  0  0  0  0  0  0
  5 11  1  0
 11 12  1  0
 11 13  1  0
 11 14  1  0
  3 15  1  0
 15 16  2  0
 15 17  1  0
  8 18  1  0
 18 19  1  0
 19 20  1  0
 20 21  1  0
 21 22  1  0
 21 28  2  0
 20 29  1  0
 20 30  1  0
  2  3  1  0
  3  4  2  0
  4  5  1  0
  5  6  2  0
  6  7  1  0
 22 23  2  0
 23 24  1  0
 24 25  2  0
 25 26  1  0
 26 27  2  0
 27 22  1  0
  1  2  2  0
  2  7  1  0
  7 10  2  0
 10  9  1  0
  9  8  2  0
  8  1  1  0
M  END

$$$$
