No_1752-gen_results/8p0m/2024-11-26-14-13-15/
     RDKit          3D

 27 30  0  0  0  0  0  0  0  0999 V2000
  -28.0162   -0.8135   28.8779 C   0  0  0  0  0  0  0  0  0  0  0  0
  -27.0636   -0.1189   28.6079 C   0  0  0  0  0  0  0  0  0  0  0  0
  -25.7647   -0.3897   29.0360 C   0  0  0  0  0  0  0  0  0  0  0  0
  -25.5296   -1.5302   29.9014 C   0  0  0  0  0  0  0  0  0  0  0  0
  -26.6888   -2.2893   30.1810 C   0  0  0  0  0  0  0  0  0  0  0  0
  -27.8727   -1.9508   29.7373 C   0  0  0  0  0  0  0  0  0  0  0  0
  -28.9304   -2.7298   30.1154 O   0  0  0  0  0  0  0  0  0  0  0  0
  -24.6189    0.3801   28.7585 N   0  0  0  0  0  0  0  0  0  0  0  0
  -24.5264    1.2561   27.7955 C   0  0  0  0  0  0  0  0  0  0  0  0
  -23.2483    1.8778   27.5349 C   0  0  0  0  0  0  0  0  0  0  0  0
  -22.2384    1.2669   28.4050 C   0  0  0  0  0  0  0  0  0  0  0  0
  -23.2345    0.1828   29.2502 C   0  0  0  0  0  0  0  0  0  0  0  0
  -30.0499   -2.2349   30.5678 C   0  0  0  0  0  0  0  0  0  0  0  0
  -30.4625   -2.9367   31.7093 C   0  0  0  0  0  0  0  0  0  0  0  0
  -31.6375   -2.4233   32.3310 C   0  0  0  0  0  0  0  0  0  0  0  0
  -32.3184   -1.4022   31.6912 C   0  0  0  0  0  0  0  0  0  0  0  0
  -31.8298   -0.8214   30.5852 C   0  0  0  0  0  0  0  0  0  0  0  0
  -30.6715   -1.2161   30.0291 C   0  0  0  0  0  0  0  0  0  0  0  0
  -32.4057    0.4655   30.2182 C   0  0  0  0  0  0  0  0  0  0  0  0
  -32.1489    1.5366   30.9376 C   0  0  0  0  0  0  0  0  0  0  0  0
  -33.0656    0.5370   28.9422 C   0  0  0  0  0  0  0  0  0  0  0  0
  -32.6576    2.8277   30.6178 C   0  0  0  0  0  0  0  0  0  0  0  0
  -33.6399    1.8264   28.6051 C   0  0  0  0  0  0  0  0  0  0  0  0
  -33.4044    2.9153   29.4386 C   0  0  0  0  0  0  0  0  0  0  0  0
  -33.9978    4.2221   29.0526 C   0  0  0  0  0  0  0  0  0  0  0  0
  -33.6708    5.2722   29.7538 C   0  0  0  0  0  0  0  0  0  0  0  0
  -32.8832    5.0978   30.9824 C   0  0  0  0  0  0  0  0  0  0  0  0
  6  7  1  0
  3  8  1  0
  8  9  1  0
  9 10  2  0
 10 11  1  0
  8 12  1  0
 11 12  1  0
  7 13  1  0
 17 19  1  0
 24 25  1  0
 25 26  2  3
 26 27  1  0
 19 20  2  0
 20 22  1  0
 22 24  2  0
 24 23  1  0
 23 21  2  0
 21 19  1  0
  1  2  2  0
  2  3  1  0
  3  4  2  0
  4  5  1  0
  5  6  2  0
  6  1  1  0
 13 14  2  0
 14 15  1  0
 15 16  2  0
 16 17  1  0
 17 18  2  0
 18 13  1  0
M  END

$$$$
