No_1174-gen_results/8p0m/2024-11-26-14-13-15/
     RDKit          3D

 35 38  0  0  0  0  0  0  0  0999 V2000
  -28.0162   -0.8135   28.8779 C   0  0  0  0  0  0  0  0  0  0  0  0
  -28.4690   -0.7850   29.8287 C   0  0  0  0  0  0  0  0  0  0  0  0
  -27.0871    0.2903   28.6377 C   0  0  0  0  0  0  0  0  0  0  0  0
  -26.2516    0.4114   27.4223 C   0  0  0  0  0  0  0  0  0  0  0  0
  -28.3913    0.1041   30.9805 C   0  0  0  0  0  0  0  0  0  0  0  0
  -27.5332    1.1666   30.7866 C   0  0  0  0  0  0  0  0  0  0  0  0
  -26.8281    1.2557   29.6454 C   0  0  0  0  0  0  0  0  0  0  0  0
  -25.6445    1.6653   27.2216 C   0  0  0  0  0  0  0  0  0  0  0  0
  -25.3909    2.5603   28.2290 C   0  0  0  0  0  0  0  0  0  0  0  0
  -26.0983    2.4436   29.4094 C   0  0  0  0  0  0  0  0  0  0  0  0
  -25.8425    3.6635   30.5860 Cl  0  0  0  0  0  0  0  0  0  0  0  0
  -29.2994   -2.0189   29.9998 O   0  0  0  0  0  0  0  0  0  0  0  0
  -29.5860   -2.4400   31.3625 C   0  0  0  0  0  0  0  0  0  0  0  0
  -29.0396   -3.6960   31.6644 C   0  0  0  0  0  0  0  0  0  0  0  0
  -28.4786   -4.3115   30.4882 C   0  0  0  0  0  0  0  0  0  0  0  0
  -29.9674   -4.6160   32.2645 O   0  0  0  0  0  0  0  0  0  0  0  0
  -31.0639   -2.3491   31.5922 C   0  0  0  0  0  0  0  0  0  0  0  0
  -31.6869   -1.2057   31.1983 C   0  0  0  0  0  0  0  0  0  0  0  0
  -32.5159   -1.0746   30.4945 C   0  0  0  0  0  0  0  0  0  0  0  0
  -33.1350    0.2246   30.0481 C   0  0  0  0  0  0  0  0  0  0  0  0
  -32.5810    1.3764   30.5666 C   0  0  0  0  0  0  0  0  0  0  0  0
  -31.5594    1.2826   31.4728 C   0  0  0  0  0  0  0  0  0  0  0  0
  -31.1047    0.0628   31.8294 C   0  0  0  0  0  0  0  0  0  0  0  0
  -29.9663   -5.8737   31.8442 C   0  0  0  0  0  0  0  0  0  0  0  0
  -31.0276    2.5444   32.0792 C   0  0  0  0  0  0  0  0  0  0  0  0
  -30.6019    3.5830   31.3015 C   0  0  0  0  0  0  0  0  0  0  0  0
  -30.8240    2.5504   33.5029 C   0  0  0  0  0  0  0  0  0  0  0  0
  -31.0227    4.7497   31.5368 C   0  0  0  0  0  0  0  0  0  0  0  0
  -30.9838    3.9092   34.0088 C   0  0  0  0  0  0  0  0  0  0  0  0
  -31.4422    5.1423   32.5808 C   0  0  0  0  0  0  0  0  0  0  0  0
  -31.2686   -6.3705   31.4397 C   0  0  0  0  0  0  0  0  0  0  0  0
  -31.2725   -7.3187   30.6403 O   0  0  0  0  0  0  0  0  0  0  0  0
  -31.2289   -8.4806   30.7223 C   0  0  0  0  0  0  0  0  0  0  0  0
  -31.1477   -9.3396   29.5221 C   0  0  0  0  0  0  0  0  0  0  0  0
  -30.9487  -10.7561   29.5937 C   0  0  0  0  0  0  0  0  0  0  0  0
 10 11  1  0
  2 12  1  0
 12 13  1  0
 13 14  1  0
 14 15  1  0
 14 16  1  0
 13 17  1  0
 17 18  1  0
 16 24  1  0
 22 25  1  0
 24 31  1  0
 31 32  1  0
 32 33  1  0
 33 34  2  3
 34 35  1  0
 18 19  2  0
 19 20  1  0
 20 21  2  0
 21 22  1  0
 22 23  2  0
 23 18  1  0
 25 26  2  0
 26 28  1  0
 28 30  2  0
 30 29  1  0
 29 27  2  0
 27 25  1  0
  1  2  2  0
  2  5  1  0
  5  6  2  0
  6  7  1  0
  3  1  1  0
  3  4  2  0
  4  8  1  0
  8  9  2  0
  9 10  1  0
 10  7  2  0
  7  3  1  0
M  END

$$$$
