No_1703-gen_results/8p0m/2024-11-26-14-13-15/
     RDKit          3D

 24 26  0  0  0  0  0  0  0  0999 V2000
  -28.0162   -0.8135   28.8779 C   0  0  0  0  0  0  0  0  0  0  0  0
  -28.4690   -0.7850   29.8287 C   0  0  0  0  0  0  0  0  0  0  0  0
  -26.5455   -0.8762   28.8500 C   0  0  0  0  0  0  0  0  0  0  0  0
  -25.8041   -1.0324   30.0571 C   0  0  0  0  0  0  0  0  0  0  0  0
  -30.0055   -0.7457   29.8978 C   0  0  0  0  0  0  0  0  0  0  0  0
  -26.5747   -1.0565   31.2005 C   0  0  0  0  0  0  0  0  0  0  0  0
  -27.9251   -0.9738   31.1683 C   0  0  0  0  0  0  0  0  0  0  0  0
  -30.6342   -0.0988   29.1602 O   0  0  0  0  0  0  0  0  0  0  0  0
  -30.6627   -1.2806   31.0265 N   0  0  0  0  0  0  0  0  0  0  0  0
  -32.1011   -1.2682   31.0883 C   0  0  0  0  0  0  0  0  0  0  0  0
  -24.3554   -1.1005   30.0629 C   0  0  0  0  0  0  0  0  0  0  0  0
  -23.7019    0.1327   29.9120 C   0  0  0  0  0  0  0  0  0  0  0  0
  -22.4840    0.2150   29.1524 C   0  0  0  0  0  0  0  0  0  0  0  0
  -21.9095    1.4020   28.8187 C   0  0  0  0  0  0  0  0  0  0  0  0
  -22.8176    2.5057   28.5791 C   0  0  0  0  0  0  0  0  0  0  0  0
  -24.0761    2.4301   29.2330 C   0  0  0  0  0  0  0  0  0  0  0  0
  -24.5491    1.3006   29.8940 C   0  0  0  0  0  0  0  0  0  0  0  0
  -25.8598   -0.7282   27.6681 O   0  0  0  0  0  0  0  0  0  0  0  0
  -32.8681   -0.6721   30.7030 C   0  0  0  0  0  0  0  0  0  0  0  0
  -32.5484    0.6006   30.1483 C   0  0  0  0  0  0  0  0  0  0  0  0
  -33.5161    1.6510   30.0208 N   0  0  0  0  0  0  0  0  0  0  0  0
  -34.6211    1.6476   30.5428 C   0  0  0  0  0  0  0  0  0  0  0  0
  -35.0946    0.4277   30.9244 C   0  0  0  0  0  0  0  0  0  0  0  0
  -34.1190   -0.2910   31.7779 C   0  0  0  0  0  0  0  0  0  0  0  0
  2  5  1  0
  5  8  2  0
  5  9  1  0
  9 10  1  0
  4 11  1  0
 11 12  1  0
  3 18  1  0
 10 19  1  0
 12 13  2  0
 13 14  1  0
 14 15  2  0
 15 16  1  0
 16 17  2  0
 17 12  1  0
 19 20  2  0
 20 21  1  0
 21 22  2  0
 22 23  1  0
 23 24  2  0
 24 19  1  0
  1  2  2  0
  2  7  1  0
  7  6  2  0
  6  4  1  0
  4  3  2  0
  3  1  1  0
M  END

$$$$
