No_1584-gen_results/8p0m/2024-11-26-14-13-15/
     RDKit          3D

 14 15  0  0  0  0  0  0  0  0999 V2000
  -28.1146   -0.6256   29.0813 Br  0  0  0  0  0  0  0  0  0  0  0  0
  -26.9268    0.4545   28.6846 C   0  0  0  0  0  0  0  0  0  0  0  0
  -25.8457    0.7043   29.3312 C   0  0  0  0  0  0  0  0  0  0  0  0
  -24.8514    1.6413   28.9474 C   0  0  0  0  0  0  0  0  0  0  0  0
  -25.0097    2.3205   27.7273 C   0  0  0  0  0  0  0  0  0  0  0  0
  -26.1307    2.0369   26.9913 C   0  0  0  0  0  0  0  0  0  0  0  0
  -27.0265    1.1434   27.3985 C   0  0  0  0  0  0  0  0  0  0  0  0
  -23.7993    3.4456   27.2355 Cl  0  0  0  0  0  0  0  0  0  0  0  0
  -28.2531    0.7887   26.7310 C   0  0  0  0  0  0  0  0  0  0  0  0
  -28.9762    1.8731   26.1442 C   0  0  0  0  0  0  0  0  0  0  0  0
  -30.0998    1.6717   25.2999 C   0  0  0  0  0  0  0  0  0  0  0  0
  -30.3793    0.3899   24.9270 C   0  0  0  0  0  0  0  0  0  0  0  0
  -29.5578   -0.6996   25.2986 C   0  0  0  0  0  0  0  0  0  0  0  0
  -28.5088   -0.4431   26.1209 C   0  0  0  0  0  0  0  0  0  0  0  0
  1  2  1  0
  5  8  1  0
  7  9  1  0
  2  3  2  0
  3  4  1  0
  4  5  2  0
  5  6  1  0
  6  7  2  0
  7  2  1  0
  9 10  2  0
 10 11  1  0
 11 12  2  0
 12 13  1  0
 13 14  2  0
 14  9  1  0
M  END

$$$$
