No_1743-gen_results/8p0m/2024-11-26-14-13-15/
     RDKit          3D

 23 24  0  0  0  0  0  0  0  0999 V2000
  -28.0162   -0.8135   28.8779 C   0  0  0  0  0  0  0  0  0  0  0  0
  -27.0636   -0.1190   28.6079 C   0  0  0  0  0  0  0  0  0  0  0  0
  -25.7923   -0.4302   29.0761 C   0  0  0  0  0  0  0  0  0  0  0  0
  -25.5756   -1.5654   29.9363 C   0  0  0  0  0  0  0  0  0  0  0  0
  -24.3722   -1.9422   30.4466 C   0  0  0  0  0  0  0  0  0  0  0  0
  -27.9614   -1.9130   29.8182 C   0  0  0  0  0  0  0  0  0  0  0  0
  -26.7388   -2.3049   30.3196 C   0  0  0  0  0  0  0  0  0  0  0  0
  -23.7351   -2.8285   29.8421 F   0  0  0  0  0  0  0  0  0  0  0  0
  -23.3677   -0.8720   30.4592 F   0  0  0  0  0  0  0  0  0  0  0  0
  -24.4503   -2.0979   31.7937 F   0  0  0  0  0  0  0  0  0  0  0  0
  -27.0843    1.0306   27.6479 C   0  0  0  0  0  0  0  0  0  0  0  0
  -26.2724    2.0821   27.7706 C   0  0  0  0  0  0  0  0  0  0  0  0
  -25.3532    2.1132   28.8790 C   0  0  0  0  0  0  0  0  0  0  0  0
  -24.7014    2.9284   29.3796 C   0  0  0  0  0  0  0  0  0  0  0  0
  -23.6839    2.7115   30.4743 C   0  0  0  0  0  0  0  0  0  0  0  0
  -24.2714    2.1735   31.5493 C   0  0  0  0  0  0  0  0  0  0  0  0
  -25.4216    1.2887   31.3738 C   0  0  0  0  0  0  0  0  0  0  0  0
  -26.0334    0.7555   32.5381 C   0  0  0  0  0  0  0  0  0  0  0  0
  -26.0833    1.4363   30.1152 C   0  0  0  0  0  0  0  0  0  0  0  0
  -27.1940    1.6537   30.2399 F   0  0  0  0  0  0  0  0  0  0  0  0
  -26.4188    1.5692   33.4333 F   0  0  0  0  0  0  0  0  0  0  0  0
  -25.1096   -0.1595   33.0856 F   0  0  0  0  0  0  0  0  0  0  0  0
  -27.0462   -0.0860   32.1521 F   0  0  0  0  0  0  0  0  0  0  0  0
  4  5  1  0
  5  8  1  0
  5  9  1  0
  5 10  1  0
  2 11  1  0
 11 12  2  3
 12 13  1  0
 17 18  1  0
 19 20  1  0
 18 21  1  0
 18 22  1  0
 18 23  1  0
 13 14  2  0
 14 15  1  0
 15 16  2  0
 16 17  1  0
 17 19  2  0
 19 13  1  0
  1  2  2  0
  2  3  1  0
  3  4  2  0
  4  7  1  0
  7  6  2  0
  6  1  1  0
M  END

$$$$
