No_1221-gen_results/8p0m/2024-11-26-14-13-15/
     RDKit          3D

 22 24  0  0  0  0  0  0  0  0999 V2000
  -28.1229   -1.3353   28.4874 O   0  0  0  0  0  0  0  0  0  0  0  0
  -27.4806   -0.4044   28.7094 C   0  0  0  0  0  0  0  0  0  0  0  0
  -27.2412    0.3910   29.5098 N   0  0  0  0  0  0  0  0  0  0  0  0
  -26.2388   -0.3380   27.6778 C   0  0  0  0  0  0  0  0  0  0  0  0
  -25.3094    0.6912   27.7522 C   0  0  0  0  0  0  0  0  0  0  0  0
  -25.3619    1.5421   28.8283 C   0  0  0  0  0  0  0  0  0  0  0  0
  -26.3549    1.4061   29.7468 C   0  0  0  0  0  0  0  0  0  0  0  0
  -24.0688    0.6344   26.6316 Cl  0  0  0  0  0  0  0  0  0  0  0  0
  -26.3800    2.3627   30.8543 C   0  0  0  0  0  0  0  0  0  0  0  0
  -25.9824    1.9332   32.0797 C   0  0  0  0  0  0  0  0  0  0  0  0
  -26.4722    2.0122   33.0386 C   0  0  0  0  0  0  0  0  0  0  0  0
  -27.8129    1.7673   33.2353 C   0  0  0  0  0  0  0  0  0  0  0  0
  -28.3211    1.4970   34.4738 C   0  0  0  0  0  0  0  0  0  0  0  0
  -27.6083    1.7841   35.6136 C   0  0  0  0  0  0  0  0  0  0  0  0
  -26.3075    2.1755   35.5447 C   0  0  0  0  0  0  0  0  0  0  0  0
  -25.7061    2.2124   34.3577 C   0  0  0  0  0  0  0  0  0  0  0  0
  -27.0142    3.6065   30.6596 C   0  0  0  0  0  0  0  0  0  0  0  0
  -28.3043    3.6962   30.1188 C   0  0  0  0  0  0  0  0  0  0  0  0
  -28.8562    4.9158   29.9783 C   0  0  0  0  0  0  0  0  0  0  0  0
  -26.2951    4.7701   30.9751 C   0  0  0  0  0  0  0  0  0  0  0  0
  -26.8446    6.0395   30.8290 C   0  0  0  0  0  0  0  0  0  0  0  0
  -28.1469    6.1059   30.3136 C   0  0  0  0  0  0  0  0  0  0  0  0
  1  2  2  0
  2  3  1  0
  2  4  1  0
  5  6  1  0
  6  7  1  0
  5  8  1  0
  7  9  1  0
  9 10  1  0
  9 17  1  0
 10 11  1  0
  3  7  1  0
  5  4  1  0
 17 18  2  0
 18 19  1  0
 19 22  2  0
 22 21  1  0
 21 20  2  0
 20 17  1  0
 11 12  2  0
 12 13  1  0
 13 14  2  0
 14 15  1  0
 15 16  2  0
 16 11  1  0
M  END

$$$$
