No_1784-gen_results/8p0m/2024-11-26-14-13-15/
     RDKit          3D

 22 24  0  0  0  0  0  0  0  0999 V2000
  -28.0162   -0.8135   28.8779 C   0  0  0  0  0  0  0  0  0  0  0  0
  -28.4690   -0.7850   29.8287 C   0  0  0  0  0  0  0  0  0  0  0  0
  -27.0871    0.2903   28.6377 C   0  0  0  0  0  0  0  0  0  0  0  0
  -26.8317    1.2487   29.5869 C   0  0  0  0  0  0  0  0  0  0  0  0
  -28.3914    0.0801   31.0065 C   0  0  0  0  0  0  0  0  0  0  0  0
  -27.4940    1.1521   30.7841 C   0  0  0  0  0  0  0  0  0  0  0  0
  -26.3172    0.3994   27.3653 C   0  0  0  0  0  0  0  0  0  0  0  0
  -26.8815    0.9711   26.3721 C   0  0  0  0  0  0  0  0  0  0  0  0
  -26.1464    0.9703   25.0973 C   0  0  0  0  0  0  0  0  0  0  0  0
  -24.7793    0.5609   25.1117 C   0  0  0  0  0  0  0  0  0  0  0  0
  -25.0074   -0.1159   27.2986 C   0  0  0  0  0  0  0  0  0  0  0  0
  -24.2881    0.0057   26.2234 C   0  0  0  0  0  0  0  0  0  0  0  0
  -24.3938   -0.7225   28.5385 C   0  0  0  0  0  0  0  0  0  0  0  0
  -23.6294   -1.1921   29.0847 C   0  0  0  0  0  0  0  0  0  0  0  0
  -22.6109   -1.6233   29.9080 C   0  0  0  0  0  0  0  0  0  0  0  0
  -28.2820    1.4695   26.2666 C   0  0  0  0  0  0  0  0  0  0  0  0
  -28.4248    2.7926   26.4739 C   0  0  0  0  0  0  0  0  0  0  0  0
  -29.0276    3.4737   26.9998 C   0  0  0  0  0  0  0  0  0  0  0  0
  -30.0906    3.0218   27.9773 C   0  0  0  0  0  0  0  0  0  0  0  0
  -30.4253    1.7511   27.6626 C   0  0  0  0  0  0  0  0  0  0  0  0
  -29.0085    0.9140   27.6196 C   0  0  0  0  0  0  0  0  0  0  0  0
  -29.6860   -0.3235   27.0164 C   0  0  0  0  0  0  0  0  0  0  0  0
  3  7  1  0
 11 13  1  0
 13 14  3  0
 14 15  1  0
  8 16  1  0
 21 22  1  0
  7  8  1  0
  8  9  2  0
  9 10  1  0
 10 12  2  0
 12 11  1  0
 11  7  2  0
  1  2  2  0
  2  5  1  0
  5  6  2  0
  6  4  1  0
  4  3  2  0
  3  1  1  0
 16 17  2  0
 17 18  1  0
 18 19  2  0
 19 20  1  0
 20 21  2  0
 21 16  1  0
M  END

$$$$
