No_137-gen_results/8p0m/2024-11-26-14-13-15/
     RDKit          3D

 13 14  0  0  0  0  0  0  0  0999 V2000
  -28.0162   -0.8135   28.8779 C   0  0  0  0  0  0  0  0  0  0  0  0
  -28.4690   -0.7850   29.8287 C   0  0  0  0  0  0  0  0  0  0  0  0
  -27.1356    0.2359   28.5352 C   0  0  0  0  0  0  0  0  0  0  0  0
  -26.8745    1.2825   29.3982 C   0  0  0  0  0  0  0  0  0  0  0  0
  -28.3613    0.1987   30.9244 C   0  0  0  0  0  0  0  0  0  0  0  0
  -27.5277    1.2234   30.6356 C   0  0  0  0  0  0  0  0  0  0  0  0
  -26.3879    0.2914   27.2334 C   0  0  0  0  0  0  0  0  0  0  0  0
  -26.4936    0.9729   26.2859 C   0  0  0  0  0  0  0  0  0  0  0  0
  -25.6939    0.8744   25.0769 C   0  0  0  0  0  0  0  0  0  0  0  0
  -25.1869   -0.6177   27.2113 C   0  0  0  0  0  0  0  0  0  0  0  0
  -24.2863   -0.6177   26.2078 C   0  0  0  0  0  0  0  0  0  0  0  0
  -24.5912    0.0809   25.0753 C   0  0  0  0  0  0  0  0  0  0  0  0
  -24.7811   -1.6188   28.6160 Cl  0  0  0  0  0  0  0  0  0  0  0  0
  3  7  1  0
 10 13  1  0
  1  2  2  0
  2  5  1  0
  5  6  2  0
  6  4  1  0
  4  3  2  0
  3  1  1  0
  7  8  2  0
  8  9  1  0
  9 12  2  0
 12 11  1  0
 11 10  2  0
 10  7  1  0
M  END

$$$$
