No_1186-gen_results/8p0m/2024-11-26-14-13-15/
     RDKit          3D

 31 33  0  0  0  0  0  0  0  0999 V2000
  -28.0162   -0.8135   28.8779 C   0  0  0  0  0  0  0  0  0  0  0  0
  -28.4690   -0.7850   29.8287 C   0  0  0  0  0  0  0  0  0  0  0  0
  -28.1960    0.3478   28.0550 C   0  0  0  0  0  0  0  0  0  0  0  0
  -29.0191    1.3501   28.3782 C   0  0  0  0  0  0  0  0  0  0  0  0
  -29.4107    0.1803   30.3782 C   0  0  0  0  0  0  0  0  0  0  0  0
  -29.6059    1.2495   29.6193 C   0  0  0  0  0  0  0  0  0  0  0  0
  -27.4597    0.3802   26.7091 C   0  0  0  0  0  0  0  0  0  0  0  0
  -26.0094    0.3317   26.7236 C   0  0  0  0  0  0  0  0  0  0  0  0
  -25.2816    0.9146   25.7613 C   0  0  0  0  0  0  0  0  0  0  0  0
  -23.8913    0.9368   25.8455 C   0  0  0  0  0  0  0  0  0  0  0  0
  -23.2583    0.7193   27.0802 C   0  0  0  0  0  0  0  0  0  0  0  0
  -24.0388    0.2729   28.1602 C   0  0  0  0  0  0  0  0  0  0  0  0
  -25.3870    0.1168   28.0286 C   0  0  0  0  0  0  0  0  0  0  0  0
  -28.1670    0.3265   25.5269 C   0  0  0  0  0  0  0  0  0  0  0  0
  -28.7958    0.8806   24.8294 Br  0  0  0  0  0  0  0  0  0  0  0  0
  -23.3378    0.0563   29.4607 C   0  0  0  0  0  0  0  0  0  0  0  0
  -23.0691   -1.2018   29.6467 C   0  0  0  0  0  0  0  0  0  0  0  0
  -24.1194    0.5534   30.6419 C   0  0  0  0  0  0  0  0  0  0  0  0
  -21.9850    0.9137   29.4311 C   0  0  0  0  0  0  0  0  0  0  0  0
  -24.5854   -0.1372   31.6354 C   0  0  0  0  0  0  0  0  0  0  0  0
  -25.3624    0.3582   32.6577 C   0  0  0  0  0  0  0  0  0  0  0  0
  -25.6679    1.7608   32.6440 C   0  0  0  0  0  0  0  0  0  0  0  0
  -25.2152    2.5809   31.6057 C   0  0  0  0  0  0  0  0  0  0  0  0
  -24.4062    2.0411   30.6210 C   0  0  0  0  0  0  0  0  0  0  0  0
  -25.5098    4.0028   31.6950 C   0  0  0  0  0  0  0  0  0  0  0  0
  -25.5816    4.6877   30.7826 O   0  0  0  0  0  0  0  0  0  0  0  0
  -25.4497    4.5923   32.9394 O   0  0  0  0  0  0  0  0  0  0  0  0
  -28.2930   -2.0099   30.8707 C   0  0  0  0  0  0  0  0  0  0  0  0
  -27.3562   -2.7386   30.6215 N   0  0  0  0  0  0  0  0  0  0  0  0
  -29.1026   -2.1881   31.7826 O   0  0  0  0  0  0  0  0  0  0  0  0
  -26.3503   -2.6116   29.7972 O   0  0  0  0  0  0  0  0  0  0  0  0
  3  7  1  0
  7  8  1  0
  7 14  1  0
 14 15  1  0
 12 16  1  0
 16 17  1  0
 16 18  1  0
 16 19  1  0
 23 25  1  0
 25 26  2  0
 25 27  1  0
  2 28  1  0
 28 29  1  0
 28 30  2  0
 29 31  2  0
 18 20  2  0
 20 21  1  0
 21 22  2  0
 22 23  1  0
 23 24  2  0
 24 18  1  0
  8  9  2  0
  9 10  1  0
 10 11  2  0
 11 12  1  0
 12 13  2  0
 13  8  1  0
  1  2  2  0
  2  5  1  0
  5  6  2  0
  6  4  1  0
  4  3  2  0
  3  1  1  0
M  END

$$$$
