No_1445-gen_results/8p0m/2024-11-26-14-13-15/
     RDKit          3D

  9  9  0  0  0  0  0  0  0  0999 V2000
  -28.0162   -0.8135   28.8779 C   0  0  0  0  0  0  0  0  0  0  0  0
  -27.0636   -0.1189   28.6079 C   0  0  0  0  0  0  0  0  0  0  0  0
  -26.9716    0.7139   27.5060 C   0  0  0  0  0  0  0  0  0  0  0  0
  -25.8205    1.4909   27.1160 C   0  0  0  0  0  0  0  0  0  0  0  0
  -24.6562    1.4242   27.9180 C   0  0  0  0  0  0  0  0  0  0  0  0
  -23.4598    2.1165   27.6160 C   0  0  0  0  0  0  0  0  0  0  0  0
  -22.4227    1.9402   28.4138 N   0  0  0  0  0  0  0  0  0  0  0  0
  -25.8658   -0.1432   29.5476 C   0  0  0  0  0  0  0  0  0  0  0  0
  -24.6184    0.6126   29.1593 C   0  0  0  0  0  0  0  0  0  0  0  0
  1  2  2  0
  2  3  1  0
  3  4  1  0
  4  5  1  0
  5  6  1  0
  6  7  2  0
  2  8  1  0
  5  9  1  0
  8  9  1  0
M  END

$$$$
