No_1470-gen_results/8p0m/2024-11-26-14-13-15/
     RDKit          3D

 19 21  0  0  0  0  0  0  0  0999 V2000
  -28.0162   -0.8135   28.8779 C   0  0  0  0  0  0  0  0  0  0  0  0
  -28.4690   -0.7850   29.8287 C   0  0  0  0  0  0  0  0  0  0  0  0
  -28.1960    0.3478   28.0550 C   0  0  0  0  0  0  0  0  0  0  0  0
  -29.0191    1.3501   28.3782 C   0  0  0  0  0  0  0  0  0  0  0  0
  -29.4107    0.1803   30.3782 C   0  0  0  0  0  0  0  0  0  0  0  0
  -29.2236    2.4924   27.5425 C   0  0  0  0  0  0  0  0  0  0  0  0
  -29.5873    1.2242   29.6185 C   0  0  0  0  0  0  0  0  0  0  0  0
  -28.6297    3.5259   27.9871 C   0  0  0  0  0  0  0  0  0  0  0  0
  -27.7707    4.1806   27.8231 C   0  0  0  0  0  0  0  0  0  0  0  0
  -27.2250    5.4109   28.4768 C   0  0  0  0  0  0  0  0  0  0  0  0
  -27.8667    5.7399   29.6333 C   0  0  0  0  0  0  0  0  0  0  0  0
  -28.9346    5.0392   30.0016 C   0  0  0  0  0  0  0  0  0  0  0  0
  -29.1951    3.9820   29.4219 C   0  0  0  0  0  0  0  0  0  0  0  0
  -27.3725    0.3414   26.5184 Cl  0  0  0  0  0  0  0  0  0  0  0  0
  -30.0282    0.0314   31.7627 C   0  0  0  0  0  0  0  0  0  0  0  0
  -29.5613    5.3712   31.3122 C   0  0  0  0  0  0  0  0  0  0  0  0
  -30.6338    4.7277   31.7367 C   0  0  0  0  0  0  0  0  0  0  0  0
  -31.0582    3.6417   30.8945 C   0  0  0  0  0  0  0  0  0  0  0  0
  -30.4122    3.2653   29.8114 C   0  0  0  0  0  0  0  0  0  0  0  0
  4  6  1  0
  6  8  1  0
  3 14  1  0
  5 15  1  0
 13 19  2  0
 19 18  1  0
 18 17  2  0
 17 16  1  0
 16 12  2  0
  8  9  2  0
  9 10  1  0
 10 11  2  0
 11 12  1  0
 12 13  1  0
 13  8  1  0
  1  2  2  0
  2  5  1  0
  5  7  2  0
  7  4  1  0
  4  3  2  0
  3  1  1  0
M  END

$$$$
