No_1007-gen_results/8p0m/2024-11-26-14-13-15/
     RDKit          3D

 24 25  0  0  0  0  0  0  0  0999 V2000
  -28.0162   -0.8135   28.8779 C   0  0  0  0  0  0  0  0  0  0  0  0
  -28.4690   -0.7850   29.8287 C   0  0  0  0  0  0  0  0  0  0  0  0
  -26.5455   -0.8762   28.8500 C   0  0  0  0  0  0  0  0  0  0  0  0
  -25.8041   -1.0324   30.0571 C   0  0  0  0  0  0  0  0  0  0  0  0
  -26.5373   -1.0386   31.2171 C   0  0  0  0  0  0  0  0  0  0  0  0
  -27.8843   -0.9532   31.1862 C   0  0  0  0  0  0  0  0  0  0  0  0
  -24.3555   -1.1121   30.0346 C   0  0  0  0  0  0  0  0  0  0  0  0
  -23.7079   -1.1920   30.8827 C   0  0  0  0  0  0  0  0  0  0  0  0
  -22.1991   -1.0954   30.9345 C   0  0  0  0  0  0  0  0  0  0  0  0
  -21.6564   -0.8348   29.7237 C   0  0  0  0  0  0  0  0  0  0  0  0
  -22.4112   -0.6494   28.5512 C   0  0  0  0  0  0  0  0  0  0  0  0
  -23.8549   -0.7781   28.7009 C   0  0  0  0  0  0  0  0  0  0  0  0
  -29.9596   -0.6884   29.9130 N   0  0  0  0  0  0  0  0  0  0  0  0
  -30.5582    0.5279   30.1240 C   0  0  0  0  0  0  0  0  0  0  0  0
  -30.0013    1.5043   30.2290 C   0  0  0  0  0  0  0  0  0  0  0  0
  -28.6586    1.7305   30.2420 C   0  0  0  0  0  0  0  0  0  0  0  0
  -28.0803    3.1133   30.3881 C   0  0  0  0  0  0  0  0  0  0  0  0
  -26.6728    3.2747   30.4353 C   0  0  0  0  0  0  0  0  0  0  0  0
  -25.8515    2.1339   30.1844 C   0  0  0  0  0  0  0  0  0  0  0  0
  -24.4342    2.4689   30.3057 C   0  0  0  0  0  0  0  0  0  0  0  0
  -30.5957   -1.9459   29.7432 C   0  0  0  0  0  0  0  0  0  0  0  0
  -31.6125   -2.1931   30.7993 C   0  0  0  0  0  0  0  0  0  0  0  0
  -32.8161   -1.9968   30.3041 C   0  0  0  0  0  0  0  0  0  0  0  0
  -33.6871   -2.6224   30.6010 N   0  0  0  0  0  0  0  0  0  0  0  0
  4  7  1  0
  2 13  1  0
 13 14  1  0
 14 15  2  3
 15 16  1  0
 16 17  2  3
 17 18  1  0
 18 19  2  3
 19 20  1  0
 13 21  1  0
 21 22  1  0
 22 23  1  0
 23 24  2  0
  1  2  2  0
  2  6  1  0
  6  5  2  0
  5  4  1  0
  4  3  2  0
  3  1  1  0
  7  8  2  0
  8  9  1  0
  9 10  2  0
 10 11  1  0
 11 12  2  0
 12  7  1  0
M  END

$$$$
