No_1768-gen_results/8p0m/2024-11-26-14-13-15/
     RDKit          3D

 28 31  0  0  0  0  0  0  0  0999 V2000
  -28.0162   -0.8135   28.8779 C   0  0  0  0  0  0  0  0  0  0  0  0
  -28.4690   -0.7850   29.8287 C   0  0  0  0  0  0  0  0  0  0  0  0
  -27.0871    0.2903   28.6377 C   0  0  0  0  0  0  0  0  0  0  0  0
  -26.8317    1.2487   29.5869 C   0  0  0  0  0  0  0  0  0  0  0  0
  -28.3914    0.0801   31.0065 C   0  0  0  0  0  0  0  0  0  0  0  0
  -27.4940    1.1521   30.7841 C   0  0  0  0  0  0  0  0  0  0  0  0
  -26.3109    0.3918   27.3640 C   0  0  0  0  0  0  0  0  0  0  0  0
  -26.7673    1.0252   26.3723 C   0  0  0  0  0  0  0  0  0  0  0  0
  -26.0109    1.0160   25.1236 C   0  0  0  0  0  0  0  0  0  0  0  0
  -25.0722   -0.2317   27.3154 C   0  0  0  0  0  0  0  0  0  0  0  0
  -24.2244   -0.1269   26.2435 C   0  0  0  0  0  0  0  0  0  0  0  0
  -24.7408    0.4870   25.0666 C   0  0  0  0  0  0  0  0  0  0  0  0
  -24.4769   -0.9299   28.5021 C   0  0  0  0  0  0  0  0  0  0  0  0
  -24.1346   -1.9097   28.9356 C   0  0  0  0  0  0  0  0  0  0  0  0
  -23.5889   -2.2417   30.1644 C   0  0  0  0  0  0  0  0  0  0  0  0
  -23.6458   -1.1960   31.1519 C   0  0  0  0  0  0  0  0  0  0  0  0
  -24.3782    0.1311   29.7513 C   0  0  0  0  0  0  0  0  0  0  0  0
  -23.8864   -0.0539   30.8959 C   0  0  0  0  0  0  0  0  0  0  0  0
  -27.3337    2.1967   31.8673 C   0  0  0  0  0  0  0  0  0  0  0  0
  -26.4903    3.0821   31.6952 N   0  0  0  0  0  0  0  0  0  0  0  0
  -25.8989    3.6972   32.7095 C   0  0  0  0  0  0  0  0  0  0  0  0
  -25.6408    5.0515   32.6892 C   0  0  0  0  0  0  0  0  0  0  0  0
  -26.8158    5.8289   32.3912 C   0  0  0  0  0  0  0  0  0  0  0  0
  -26.5930    7.1756   32.1058 C   0  0  0  0  0  0  0  0  0  0  0  0
  -28.2296    2.3418   32.7162 O   0  0  0  0  0  0  0  0  0  0  0  0
  -25.8538    7.5141   31.4164 C   0  0  0  0  0  0  0  0  0  0  0  0
  -24.4626    6.8061   31.4540 C   0  0  0  0  0  0  0  0  0  0  0  0
  -24.5428    5.3744   31.6297 C   0  0  0  0  0  0  0  0  0  0  0  0
  3  7  1  0
 10 13  1  0
  6 19  1  0
 19 20  1  0
 20 21  1  0
 19 25  2  0
 21 22  1  0
 13 14  2  0
 14 15  1  0
 15 16  2  0
 16 18  1  0
 18 17  2  0
 17 13  1  0
 22 23  2  0
 23 24  1  0
 24 26  2  0
 26 27  1  0
 27 28  2  0
 28 22  1  0
  1  2  2  0
  2  5  1  0
  5  6  2  0
  6  4  1  0
  4  3  2  0
  3  1  1  0
  7  8  2  0
  8  9  1  0
  9 12  2  0
 12 11  1  0
 11 10  2  0
 10  7  1  0
M  END

$$$$
