No_1921-gen_results/8p0m/2024-11-26-14-13-15/
     RDKit          3D

 17 18  0  0  0  0  0  0  0  0999 V2000
  -28.0162   -0.8135   28.8779 C   0  0  0  0  0  0  0  0  0  0  0  0
  -28.4690   -0.7850   29.8287 C   0  0  0  0  0  0  0  0  0  0  0  0
  -26.5042   -0.7777   28.8766 C   0  0  0  0  0  0  0  0  0  0  0  0
  -25.6540   -0.6597   27.7191 C   0  0  0  0  0  0  0  0  0  0  0  0
  -27.9180   -0.9374   31.1824 C   0  0  0  0  0  0  0  0  0  0  0  0
  -26.5423   -0.9399   31.2606 C   0  0  0  0  0  0  0  0  0  0  0  0
  -25.7832   -0.8935   30.1201 C   0  0  0  0  0  0  0  0  0  0  0  0
  -25.2204    0.6866   27.3939 C   0  0  0  0  0  0  0  0  0  0  0  0
  -24.5771    0.9243   26.1770 C   0  0  0  0  0  0  0  0  0  0  0  0
  -23.9849    2.2487   25.9655 C   0  0  0  0  0  0  0  0  0  0  0  0
  -24.0070    3.1788   26.9561 C   0  0  0  0  0  0  0  0  0  0  0  0
  -25.2651    1.6845   28.3860 C   0  0  0  0  0  0  0  0  0  0  0  0
  -24.5892    2.9513   28.1038 C   0  0  0  0  0  0  0  0  0  0  0  0
  -30.0578   -0.8220   29.8582 C   0  0  0  0  0  0  0  0  0  0  0  0
  -30.5781   -0.0636   28.9624 N   0  0  0  0  0  0  0  0  0  0  0  0
  -31.5101    0.5742   28.9462 C   0  0  0  0  0  0  0  0  0  0  0  0
  -31.9780    1.3367   27.7367 C   0  0  0  0  0  0  0  0  0  0  0  0
  3  4  1  0
  2 14  1  0
 14 15  1  0
 15 16  2  3
 16 17  1  0
  4  8  1  0
  1  2  2  0
  2  5  1  0
  5  6  2  0
  6  7  1  0
  7  3  2  0
  3  1  1  0
  8  9  2  0
  9 10  1  0
 10 11  2  0
 11 13  1  0
 13 12  2  0
 12  8  1  0
M  END

$$$$
