No_1722-gen_results/8p0m/2024-11-26-14-13-15/
     RDKit          3D

 22 24  0  0  0  0  0  0  0  0999 V2000
  -28.0162   -0.8135   28.8779 C   0  0  0  0  0  0  0  0  0  0  0  0
  -28.4690   -0.7850   29.8287 C   0  0  0  0  0  0  0  0  0  0  0  0
  -26.5042   -0.7777   28.8766 C   0  0  0  0  0  0  0  0  0  0  0  0
  -25.9500    0.1157   29.4052 C   0  0  0  0  0  0  0  0  0  0  0  0
  -27.9964    0.1190   30.9527 C   0  0  0  0  0  0  0  0  0  0  0  0
  -26.6037    0.4647   30.8030 C   0  0  0  0  0  0  0  0  0  0  0  0
  -29.8458   -1.0110   30.0484 O   0  0  0  0  0  0  0  0  0  0  0  0
  -30.7686   -0.5145   29.3879 C   0  0  0  0  0  0  0  0  0  0  0  0
  -31.7539   -1.4532   28.9933 C   0  0  0  0  0  0  0  0  0  0  0  0
  -32.6777   -1.1072   27.9510 C   0  0  0  0  0  0  0  0  0  0  0  0
  -32.3108   -0.3660   27.2049 C   0  0  0  0  0  0  0  0  0  0  0  0
  -31.2354    0.6064   27.3106 C   0  0  0  0  0  0  0  0  0  0  0  0
  -30.3765    0.3962   28.4421 C   0  0  0  0  0  0  0  0  0  0  0  0
  -30.9825    1.6826   26.3566 C   0  0  0  0  0  0  0  0  0  0  0  0
  -31.3167    2.7361   26.6301 O   0  0  0  0  0  0  0  0  0  0  0  0
  -30.0305    1.4369   25.4859 O   0  0  0  0  0  0  0  0  0  0  0  0
  -24.4930    0.3112   29.4664 C   0  0  0  0  0  0  0  0  0  0  0  0
  -23.5730   -0.5550   29.8176 C   0  0  0  0  0  0  0  0  0  0  0  0
  -22.2209   -0.3948   29.5171 C   0  0  0  0  0  0  0  0  0  0  0  0
  -24.0118    1.6406   28.9877 C   0  0  0  0  0  0  0  0  0  0  0  0
  -22.6437    1.8620   28.7235 C   0  0  0  0  0  0  0  0  0  0  0  0
  -21.7415    0.7934   28.9785 C   0  0  0  0  0  0  0  0  0  0  0  0
  2  7  1  0
  7  8  1  0
 12 14  1  0
 14 15  2  0
 14 16  1  0
  4 17  1  0
 17 18  2  0
 18 19  1  0
 19 22  2  0
 22 21  1  0
 21 20  2  0
 20 17  1  0
  8  9  2  0
  9 10  1  0
 10 11  2  0
 11 12  1  0
 12 13  2  0
 13  8  1  0
  1  2  2  0
  2  5  1  0
  5  6  2  0
  6  4  1  0
  4  3  2  0
  3  1  1  0
M  END

$$$$
