No_1086-gen_results/8p0m/2024-11-26-14-13-15/
     RDKit          3D

 35 39  0  0  0  0  0  0  0  0999 V2000
  -28.0162   -0.8135   28.8779 C   0  0  0  0  0  0  0  0  0  0  0  0
  -28.4690   -0.7850   29.8287 C   0  0  0  0  0  0  0  0  0  0  0  0
  -27.0871    0.2903   28.6377 C   0  0  0  0  0  0  0  0  0  0  0  0
  -26.0239    0.3644   29.2526 C   0  0  0  0  0  0  0  0  0  0  0  0
  -27.5370   -0.6187   31.0883 C   0  0  0  0  0  0  0  0  0  0  0  0
  -26.3844    0.1834   30.8012 C   0  0  0  0  0  0  0  0  0  0  0  0
  -29.5100   -1.6195   30.2653 O   0  0  0  0  0  0  0  0  0  0  0  0
  -30.7241   -1.2384   29.8510 C   0  0  0  0  0  0  0  0  0  0  0  0
  -31.5691   -2.3374   29.6640 C   0  0  0  0  0  0  0  0  0  0  0  0
  -31.2626   -3.4164   29.8770 O   0  0  0  0  0  0  0  0  0  0  0  0
  -32.8152   -2.1125   29.0815 N   0  0  0  0  0  0  0  0  0  0  0  0
  -33.2843   -0.7840   28.7047 C   0  0  0  0  0  0  0  0  0  0  0  0
  -31.0362    0.0483   29.5353 C   0  0  0  0  0  0  0  0  0  0  0  0
  -32.1245    0.3373   29.1460 C   0  0  0  0  0  0  0  0  0  0  0  0
  -26.8112    0.5418   27.0872 C   0  0  0  0  0  0  0  0  0  0  0  0
  -27.6690    0.6484   26.2150 C   0  0  0  0  0  0  0  0  0  0  0  0
  -29.0548    0.7538   26.5594 C   0  0  0  0  0  0  0  0  0  0  0  0
  -30.0773    0.9299   25.5943 C   0  0  0  0  0  0  0  0  0  0  0  0
  -29.6527    0.8737   24.3215 C   0  0  0  0  0  0  0  0  0  0  0  0
  -27.5370    0.8276   24.7826 C   0  0  0  0  0  0  0  0  0  0  0  0
  -28.4095    0.8737   23.8571 C   0  0  0  0  0  0  0  0  0  0  0  0
  -25.3797    0.6619   26.7623 C   0  0  0  0  0  0  0  0  0  0  0  0
  -24.3118    0.7628   27.7143 C   0  0  0  0  0  0  0  0  0  0  0  0
  -24.7072    0.7455   29.0730 C   0  0  0  0  0  0  0  0  0  0  0  0
  -23.6231    0.8487   30.0793 C   0  0  0  0  0  0  0  0  0  0  0  0
  -23.8031    1.5086   31.0196 O   0  0  0  0  0  0  0  0  0  0  0  0
  -22.6021    0.0273   29.9837 O   0  0  0  0  0  0  0  0  0  0  0  0
  -31.7243    0.9600   26.0230 Cl  0  0  0  0  0  0  0  0  0  0  0  0
  -33.7929   -3.1053   28.8366 C   0  0  0  0  0  0  0  0  0  0  0  0
  -34.8065   -3.3199   29.6782 C   0  0  0  0  0  0  0  0  0  0  0  0
  -35.1765   -2.5724   30.4685 C   0  0  0  0  0  0  0  0  0  0  0  0
  -36.3415   -2.8023   31.4299 C   0  0  0  0  0  0  0  0  0  0  0  0
  -36.9599   -4.0281   31.1826 C   0  0  0  0  0  0  0  0  0  0  0  0
  -36.5468   -4.8719   30.2385 C   0  0  0  0  0  0  0  0  0  0  0  0
  -35.4267   -4.5823   29.4368 C   0  0  0  0  0  0  0  0  0  0  0  0
  2  7  1  0
  7  8  1  0
  8  9  1  0
  9 10  2  0
  9 11  1  0
 11 12  1  0
  8 13  1  0
 15 16  1  0
 24 25  1  0
 25 26  2  0
 25 27  1  0
 18 28  1  0
 11 29  1  0
 29 30  1  0
 13 14  1  0
 14 12  1  0
 30 31  2  0
 31 32  1  0
 32 33  2  0
 33 34  1  0
 34 35  2  0
 35 30  1  0
 16 17  2  0
 17 18  1  0
 18 19  2  0
 19 21  1  0
 21 20  2  0
 20 16  1  0
  4 24  2  0
 24 23  1  0
 23 22  2  0
 22 15  1  0
 15  3  2  0
  1  2  2  0
  2  5  1  0
  5  6  2  0
  6  4  1  0
  4  3  1  0
  3  1  1  0
M  END

$$$$
