No_1343-gen_results/8p0m/2024-11-26-14-13-15/
     RDKit          3D

 35 37  0  0  0  0  0  0  0  0999 V2000
  -28.0162   -0.8135   28.8779 C   0  0  0  0  0  0  0  0  0  0  0  0
  -27.0636   -0.1190   28.6079 C   0  0  0  0  0  0  0  0  0  0  0  0
  -26.9716    0.7139   27.5060 C   0  0  0  0  0  0  0  0  0  0  0  0
  -28.1053    0.7744   26.6421 C   0  0  0  0  0  0  0  0  0  0  0  0
  -29.2008    0.1044   27.0527 C   0  0  0  0  0  0  0  0  0  0  0  0
  -29.2096   -0.6029   28.1853 C   0  0  0  0  0  0  0  0  0  0  0  0
  -30.3702    0.2264   26.1604 C   0  0  0  0  0  0  0  0  0  0  0  0
  -30.3387    0.2161   24.9661 O   0  0  0  0  0  0  0  0  0  0  0  0
  -31.6346    0.1197   26.7803 N   0  0  0  0  0  0  0  0  0  0  0  0
  -32.7984    0.0964   25.9807 C   0  0  0  0  0  0  0  0  0  0  0  0
  -28.0424   -1.8879   30.4704 Br  0  0  0  0  0  0  0  0  0  0  0  0
  -25.7104   -0.2029   29.4442 C   0  0  0  0  0  0  0  0  0  0  0  0
  -24.5790   -0.0218   28.8726 C   0  0  0  0  0  0  0  0  0  0  0  0
  -23.3269   -0.0621   29.6334 C   0  0  0  0  0  0  0  0  0  0  0  0
  -23.4307   -0.6016   30.9070 C   0  0  0  0  0  0  0  0  0  0  0  0
  -24.6388   -0.8395   31.5112 C   0  0  0  0  0  0  0  0  0  0  0  0
  -25.7831   -0.6484   30.7872 C   0  0  0  0  0  0  0  0  0  0  0  0
  -22.0698    0.2509   28.9787 C   0  0  0  0  0  0  0  0  0  0  0  0
  -20.9742   -0.3711   29.0920 N   0  0  0  0  0  0  0  0  0  0  0  0
  -22.1218    1.2277   27.9488 N   0  0  0  0  0  0  0  0  0  0  0  0
  -23.1733    2.0168   27.6491 C   0  0  0  0  0  0  0  0  0  0  0  0
  -23.3330    2.3225   26.2369 C   0  0  0  0  0  0  0  0  0  0  0  0
  -24.4443    3.0443   25.8042 C   0  0  0  0  0  0  0  0  0  0  0  0
  -25.1646    3.8142   26.8095 C   0  0  0  0  0  0  0  0  0  0  0  0
  -24.8945    3.6506   28.1652 C   0  0  0  0  0  0  0  0  0  0  0  0
  -23.9153    2.7920   28.5961 C   0  0  0  0  0  0  0  0  0  0  0  0
  -25.7597    4.3817   29.1447 C   0  0  0  0  0  0  0  0  0  0  0  0
  -25.3903    5.1926   29.7154 O   0  0  0  0  0  0  0  0  0  0  0  0
  -27.0255    3.8946   29.1561 O   0  0  0  0  0  0  0  0  0  0  0  0
  -27.6617    3.7124   30.3692 C   0  0  0  0  0  0  0  0  0  0  0  0
  -28.8900    2.9833   30.2349 C   0  0  0  0  0  0  0  0  0  0  0  0
  -29.8732    3.4049   29.4292 C   0  0  0  0  0  0  0  0  0  0  0  0
  -29.8325    4.4650   28.8297 C   0  0  0  0  0  0  0  0  0  0  0  0
  -30.5980    5.0309   28.0528 C   0  0  0  0  0  0  0  0  0  0  0  0
  -31.8664    4.3375   27.8432 C   0  0  0  0  0  0  0  0  0  0  0  0
  5  7  1  0
  7  8  2  0
  7  9  1  0
  9 10  1  0
  1 11  1  0
  2 12  1  0
 14 18  1  0
 18 19  1  0
 18 20  2  3
 20 21  1  0
 25 27  1  0
 27 28  2  0
 27 29  1  0
 29 30  1  0
 30 31  1  0
 31 32  1  0
 32 33  2  3
 33 34  1  0
 34 35  2  0
 12 13  2  0
 13 14  1  0
 14 15  2  0
 15 16  1  0
 16 17  2  0
 17 12  1  0
  1  2  2  0
  2  3  1  0
  3  4  2  0
  4  5  1  0
  5  6  2  0
  6  1  1  0
 21 22  2  0
 22 23  1  0
 23 24  2  0
 24 25  1  0
 25 26  2  0
 26 21  1  0
M  END

$$$$
