No_1670-gen_results/8p0m/2024-11-26-14-13-15/
     RDKit          3D

 22 23  0  0  0  0  0  0  0  0999 V2000
  -28.0162   -0.8135   28.8779 C   0  0  0  0  0  0  0  0  0  0  0  0
  -28.4690   -0.7850   29.8287 C   0  0  0  0  0  0  0  0  0  0  0  0
  -27.1356    0.2359   28.5352 C   0  0  0  0  0  0  0  0  0  0  0  0
  -26.8745    1.2825   29.3982 C   0  0  0  0  0  0  0  0  0  0  0  0
  -28.3613    0.1987   30.9244 C   0  0  0  0  0  0  0  0  0  0  0  0
  -27.5277    1.2234   30.6356 C   0  0  0  0  0  0  0  0  0  0  0  0
  -26.3987    0.2949   27.2279 C   0  0  0  0  0  0  0  0  0  0  0  0
  -26.2345    1.5269   26.9601 F   0  0  0  0  0  0  0  0  0  0  0  0
  -25.2362   -0.3484   27.3099 F   0  0  0  0  0  0  0  0  0  0  0  0
  -27.1496   -0.2082   26.2061 F   0  0  0  0  0  0  0  0  0  0  0  0
  -29.5897   -2.1072   30.4564 Cl  0  0  0  0  0  0  0  0  0  0  0  0
  -27.2920    2.3674   31.5823 C   0  0  0  0  0  0  0  0  0  0  0  0
  -26.3818    2.7484   31.9338 N   0  0  0  0  0  0  0  0  0  0  0  0
  -25.2565    2.1803   32.0649 C   0  0  0  0  0  0  0  0  0  0  0  0
  -26.2499    4.2230   32.4142 C   0  0  0  0  0  0  0  0  0  0  0  0
  -28.4634    2.7131   32.0906 O   0  0  0  0  0  0  0  0  0  0  0  0
  -26.2161    5.1282   31.3187 C   0  0  0  0  0  0  0  0  0  0  0  0
  -26.0810    4.8379   30.1808 C   0  0  0  0  0  0  0  0  0  0  0  0
  -25.9640    5.8217   29.0681 C   0  0  0  0  0  0  0  0  0  0  0  0
  -25.7626    7.1396   29.4532 C   0  0  0  0  0  0  0  0  0  0  0  0
  -25.7866    7.4734   30.7916 C   0  0  0  0  0  0  0  0  0  0  0  0
  -25.9435    6.5241   31.7306 C   0  0  0  0  0  0  0  0  0  0  0  0
  3  7  1  0
  7  8  1  0
  7  9  1  0
  7 10  1  0
  2 11  1  0
  6 12  1  0
 12 13  1  0
 13 14  1  0
 13 15  1  0
 12 16  2  0
 15 17  1  0
 17 18  2  0
 18 19  1  0
 19 20  2  0
 20 21  1  0
 21 22  2  0
 22 17  1  0
  1  2  2  0
  2  5  1  0
  5  6  2  0
  6  4  1  0
  4  3  2  0
  3  1  1  0
M  END

$$$$
