No_1895-gen_results/8p0m/2024-11-26-14-13-15/
     RDKit          3D

 35 38  0  0  0  0  0  0  0  0999 V2000
  -28.0162   -0.8135   28.8779 C   0  0  0  0  0  0  0  0  0  0  0  0
  -27.0636   -0.1189   28.6079 C   0  0  0  0  0  0  0  0  0  0  0  0
  -25.7647   -0.3897   29.0360 C   0  0  0  0  0  0  0  0  0  0  0  0
  -24.5516    0.4058   28.7646 C   0  0  0  0  0  0  0  0  0  0  0  0
  -24.6957    1.4480   27.7988 C   0  0  0  0  0  0  0  0  0  0  0  0
  -25.9755    1.7250   27.3077 C   0  0  0  0  0  0  0  0  0  0  0  0
  -27.0718    1.0134   27.6535 C   0  0  0  0  0  0  0  0  0  0  0  0
  -28.6043   -0.4743   30.2323 C   0  0  0  0  0  0  0  0  0  0  0  0
  -29.6322   -0.5049   30.6010 C   0  0  0  0  0  0  0  0  0  0  0  0
  -30.1085   -0.1742   31.9668 C   0  0  0  0  0  0  0  0  0  0  0  0
  -29.1617    0.1610   32.9068 C   0  0  0  0  0  0  0  0  0  0  0  0
  -27.8097    0.1269   32.5283 C   0  0  0  0  0  0  0  0  0  0  0  0
  -27.4239   -0.1536   31.3381 C   0  0  0  0  0  0  0  0  0  0  0  0
  -23.4984    2.2057   27.4435 C   0  0  0  0  0  0  0  0  0  0  0  0
  -23.7262    3.1276   26.6695 F   0  0  0  0  0  0  0  0  0  0  0  0
  -22.5304    1.4178   26.7928 F   0  0  0  0  0  0  0  0  0  0  0  0
  -22.8792    2.7261   28.5095 F   0  0  0  0  0  0  0  0  0  0  0  0
  -28.3718    1.4152   27.0728 C   0  0  0  0  0  0  0  0  0  0  0  0
  -28.6818    1.3967   26.0066 O   0  0  0  0  0  0  0  0  0  0  0  0
  -29.3824    1.4560   28.0392 O   0  0  0  0  0  0  0  0  0  0  0  0
  -26.8540    0.4423   33.4498 O   0  0  0  0  0  0  0  0  0  0  0  0
  -25.6179    0.2057   33.1239 C   0  0  0  0  0  0  0  0  0  0  0  0
  -25.2529   -0.7534   32.9578 C   0  0  0  0  0  0  0  0  0  0  0  0
  -23.9240   -0.9802   32.3104 C   0  0  0  0  0  0  0  0  0  0  0  0
  -23.4035   -2.1483   31.9048 C   0  0  0  0  0  0  0  0  0  0  0  0
  -23.7329   -2.0737   30.5960 C   0  0  0  0  0  0  0  0  0  0  0  0
  -25.5103   -1.4146   29.9311 N   0  0  0  0  0  0  0  0  0  0  0  0
  -24.3147   -1.7874   29.9074 C   0  0  0  0  0  0  0  0  0  0  0  0
  -24.1432   -2.2266   28.5857 N   0  0  0  0  0  0  0  0  0  0  0  0
  -29.7865    2.7013   28.2615 C   0  0  0  0  0  0  0  0  0  0  0  0
  -29.2694    3.3014   29.0636 C   0  0  0  0  0  0  0  0  0  0  0  0
  -29.6796    4.6745   29.4803 C   0  0  0  0  0  0  0  0  0  0  0  0
  -30.8328    5.1448   28.8989 C   0  0  0  0  0  0  0  0  0  0  0  0
  -30.9720    3.0502   27.5639 C   0  0  0  0  0  0  0  0  0  0  0  0
  -31.4972    4.3460   27.9189 C   0  0  0  0  0  0  0  0  0  0  0  0
  1  2  2  3
  2  3  1  0
  3  4  1  0
  4  5  1  0
  5  6  1  0
  2  7  1  0
  6  7  1  0
  1  8  1  0
  5 14  1  0
 14 15  1  0
 14 16  1  0
 14 17  1  0
  7 18  1  0
 18 19  2  0
 18 20  1  0
 12 21  1  0
 21 22  1  0
 22 23  2  3
 23 24  1  0
 24 25  2  3
 25 26  1  0
  3 27  2  3
 26 28  1  0
 27 28  1  0
 28 29  2  0
 20 30  1  0
 30 31  2  0
 31 32  1  0
 32 33  2  0
 33 35  1  0
 35 34  2  0
 34 30  1  0
  8  9  2  0
  9 10  1  0
 10 11  2  0
 11 12  1  0
 12 13  2  0
 13  8  1  0
M  END

$$$$
