No_1435-gen_results/8p0m/2024-11-26-14-13-15/
     RDKit          3D

  8  8  0  0  0  0  0  0  0  0999 V2000
  -28.1229   -1.3353   28.4874 O   0  0  0  0  0  0  0  0  0  0  0  0
  -27.0637   -0.8242   28.8687 C   0  0  0  0  0  0  0  0  0  0  0  0
  -26.9592    0.0926   29.7582 C   0  0  0  0  0  0  0  0  0  0  0  0
  -25.8472   -1.5491   28.6589 N   0  0  0  0  0  0  0  0  0  0  0  0
  -28.3748    1.0565   30.3310 Br  0  0  0  0  0  0  0  0  0  0  0  0
  -24.5547   -1.0636   29.0116 C   0  0  0  0  0  0  0  0  0  0  0  0
  -24.4932    0.0597   29.7303 C   0  0  0  0  0  0  0  0  0  0  0  0
  -25.6236    0.7149   30.1905 C   0  0  0  0  0  0  0  0  0  0  0  0
  1  2  2  0
  2  3  1  0
  2  4  1  0
  3  5  1  0
  4  6  1  0
  3  8  1  0
  7  8  1  0
  7  6  1  0
M  END

$$$$
