No_1914-gen_results/8p0m/2024-11-26-14-13-15/
     RDKit          3D

 21 22  0  0  0  0  0  0  0  0999 V2000
  -28.0162   -0.8135   28.8779 C   0  0  0  0  0  0  0  0  0  0  0  0
  -27.0636   -0.1189   28.6079 C   0  0  0  0  0  0  0  0  0  0  0  0
  -25.7923   -0.4302   29.0761 C   0  0  0  0  0  0  0  0  0  0  0  0
  -24.5456    0.3494   28.8225 C   0  0  0  0  0  0  0  0  0  0  0  0
  -24.6586    1.4196   27.8878 C   0  0  0  0  0  0  0  0  0  0  0  0
  -25.9471    1.6811   27.3792 C   0  0  0  0  0  0  0  0  0  0  0  0
  -27.0439    0.9739   27.6871 C   0  0  0  0  0  0  0  0  0  0  0  0
  -29.1797   -0.1202   29.1288 N   0  0  0  0  0  0  0  0  0  0  0  0
  -30.2095   -0.7652   29.7428 C   0  0  0  0  0  0  0  0  0  0  0  0
  -23.4456    2.1545   27.6087 C   0  0  0  0  0  0  0  0  0  0  0  0
  -23.4715    3.1325   26.8088 N   0  0  0  0  0  0  0  0  0  0  0  0
  -22.2374    1.6285   27.7680 O   0  0  0  0  0  0  0  0  0  0  0  0
  -27.9670   -1.9328   29.1700 O   0  0  0  0  0  0  0  0  0  0  0  0
  -29.4217    1.2430   28.8038 C   0  0  0  0  0  0  0  0  0  0  0  0
  -30.1805    1.9776   29.1893 C   0  0  0  0  0  0  0  0  0  0  0  0
  -28.2433    1.7907   27.9446 C   0  0  0  0  0  0  0  0  0  0  0  0
  -30.1168    3.3818   29.1263 C   0  0  0  0  0  0  0  0  0  0  0  0
  -30.9925    4.2631   29.7096 C   0  0  0  0  0  0  0  0  0  0  0  0
  -31.3911   -0.4394   29.4401 O   0  0  0  0  0  0  0  0  0  0  0  0
  -32.1240    3.6574   30.3048 C   0  0  0  0  0  0  0  0  0  0  0  0
  -32.2932    2.3343   30.4095 C   0  0  0  0  0  0  0  0  0  0  0  0
  1  2  1  0
  1  8  1  0
  8  9  1  0
  5 10  1  0
 10 11  1  0
 10 12  2  0
  1 13  2  0
  8 14  1  0
 14 15  2  3
  7 16  1  0
 14 16  1  0
 15 17  1  0
 17 18  2  3
  9 19  1  0
 18 20  1  0
 20 21  2  0
  2  3  2  0
  3  4  1  0
  4  5  2  0
  5  6  1  0
  6  7  2  0
  7  2  1  0
M  END

$$$$
