No_1332-gen_results/8p0m/2024-11-26-14-13-15/
     RDKit          3D

 19 21  0  0  0  0  0  0  0  0999 V2000
  -28.0727   -1.2542   28.5316 F   0  0  0  0  0  0  0  0  0  0  0  0
  -27.0607   -0.6291   28.8721 C   0  0  0  0  0  0  0  0  0  0  0  0
  -26.3579   -0.0711   28.0115 C   0  0  0  0  0  0  0  0  0  0  0  0
  -25.0715    0.5530   28.2555 C   0  0  0  0  0  0  0  0  0  0  0  0
  -24.4859    0.3819   29.0792 C   0  0  0  0  0  0  0  0  0  0  0  0
  -25.0240   -0.3869   30.2515 C   0  0  0  0  0  0  0  0  0  0  0  0
  -26.2645   -0.9008   30.0299 C   0  0  0  0  0  0  0  0  0  0  0  0
  -23.1106    0.9958   29.4665 C   0  0  0  0  0  0  0  0  0  0  0  0
  -22.4230    1.5368   28.4386 N   0  0  0  0  0  0  0  0  0  0  0  0
  -23.1325    1.9855   27.3109 C   0  0  0  0  0  0  0  0  0  0  0  0
  -24.3554    1.3184   27.0301 C   0  0  0  0  0  0  0  0  0  0  0  0
  -24.9857    1.6687   25.7809 C   0  0  0  0  0  0  0  0  0  0  0  0
  -27.0915    0.1132   26.8651 O   0  0  0  0  0  0  0  0  0  0  0  0
  -27.7480    1.2009   26.6839 C   0  0  0  0  0  0  0  0  0  0  0  0
  -26.7269    2.0823   25.7934 C   0  0  0  0  0  0  0  0  0  0  0  0
  -28.9151    1.0198   25.8090 C   0  0  0  0  0  0  0  0  0  0  0  0
  -28.9054    0.8971   24.5769 C   0  0  0  0  0  0  0  0  0  0  0  0
  -30.1650    0.9511   26.5464 C   0  0  0  0  0  0  0  0  0  0  0  0
  -31.1469    0.3071   26.1625 O   0  0  0  0  0  0  0  0  0  0  0  0
  1  2  1  0
 11 12  1  0
  3 13  1  0
 13 14  1  0
 12 15  1  0
 14 15  1  0
 14 16  1  0
 16 17  1  0
 16 18  1  0
 18 19  2  0
  2  3  2  0
  3  4  1  0
  5  6  1  0
  6  7  2  0
  7  2  1  0
  4  5  2  0
  5  8  1  0
  8  9  2  0
  9 10  1  0
 10 11  2  0
 11  4  1  0
M  END

$$$$
