No_1273-gen_results/8p0m/2024-11-26-14-13-15/
     RDKit          3D

 13 14  0  0  0  0  0  0  0  0999 V2000
  -28.0162   -0.8135   28.8779 C   0  0  0  0  0  0  0  0  0  0  0  0
  -28.4690   -0.7850   29.8287 C   0  0  0  0  0  0  0  0  0  0  0  0
  -28.1960    0.3478   28.0550 C   0  0  0  0  0  0  0  0  0  0  0  0
  -27.4421    0.5100   26.7946 C   0  0  0  0  0  0  0  0  0  0  0  0
  -26.4394    0.8329   26.6142 C   0  0  0  0  0  0  0  0  0  0  0  0
  -25.2139    0.6624   26.7019 C   0  0  0  0  0  0  0  0  0  0  0  0
  -24.2460    1.4732   26.1224 C   0  0  0  0  0  0  0  0  0  0  0  0
  -24.8131    2.6495   25.7847 C   0  0  0  0  0  0  0  0  0  0  0  0
  -26.4349    2.2503   25.8010 C   0  0  0  0  0  0  0  0  0  0  0  0
  -29.4953    0.0657   30.3788 C   0  0  0  0  0  0  0  0  0  0  0  0
  -29.1134    1.3026   28.3822 C   0  0  0  0  0  0  0  0  0  0  0  0
  -29.7734    1.1699   29.5918 C   0  0  0  0  0  0  0  0  0  0  0  0
  -28.1909   -0.1276   25.7909 O   0  0  0  0  0  0  0  0  0  0  0  0
  3  4  1  0
  4  5  1  0
  5  6  1  0
  6  7  2  0
  7  8  1  0
  5  9  1  0
  8  9  2  0
  4 13  2  0
  1  2  2  0
  2 10  1  0
 10 12  2  0
 12 11  1  0
 11  3  2  0
  3  1  1  0
M  END

$$$$
