No_1069-gen_results/8p0m/2024-11-26-14-13-15/
     RDKit          3D

 14 15  0  0  0  0  0  0  0  0999 V2000
  -28.1229   -1.3353   28.4874 O   0  0  0  0  0  0  0  0  0  0  0  0
  -27.0637   -0.8242   28.8687 C   0  0  0  0  0  0  0  0  0  0  0  0
  -27.0246    0.1877   29.7358 C   0  0  0  0  0  0  0  0  0  0  0  0
  -25.8391    0.8513   29.9958 C   0  0  0  0  0  0  0  0  0  0  0  0
  -25.7067   -1.4103   28.6301 C   0  0  0  0  0  0  0  0  0  0  0  0
  -24.5042   -0.8257   28.9555 C   0  0  0  0  0  0  0  0  0  0  0  0
  -24.5804    0.3504   29.6719 C   0  0  0  0  0  0  0  0  0  0  0  0
  -23.3085    1.0231   29.9581 C   0  0  0  0  0  0  0  0  0  0  0  0
  -23.3454    2.0434   30.5315 O   0  0  0  0  0  0  0  0  0  0  0  0
  -22.1678    0.3851   29.8978 O   0  0  0  0  0  0  0  0  0  0  0  0
  -29.2664   -0.7531   29.1214 C   0  0  0  0  0  0  0  0  0  0  0  0
  -28.7888    0.1127   29.7523 O   0  0  0  0  0  0  0  0  0  0  0  0
  -30.4340   -1.0444   28.9520 N   0  0  0  0  0  0  0  0  0  0  0  0
  -31.2598   -1.6969   29.2574 C   0  0  0  0  0  0  0  0  0  0  0  0
  1  2  1  0
  7  8  1  0
  8  9  2  0
  8 10  1  0
  1 11  1  0
  3 12  1  0
 11 12  1  0
 11 13  1  0
 13 14  2  0
  2  3  2  0
  3  4  1  0
  4  7  2  0
  7  6  1  0
  6  5  2  0
  5  2  1  0
M  END

$$$$
