No_1319-gen_results/8p0m/2024-11-26-14-13-15/
     RDKit          3D

 35 38  0  0  0  0  0  0  0  0999 V2000
  -28.0162   -0.8135   28.8779 C   0  0  0  0  0  0  0  0  0  0  0  0
  -27.0636   -0.1189   28.6079 C   0  0  0  0  0  0  0  0  0  0  0  0
  -26.8756    1.1325   28.9134 C   0  0  0  0  0  0  0  0  0  0  0  0
  -27.9014    1.8066   29.6436 C   0  0  0  0  0  0  0  0  0  0  0  0
  -29.0458   -0.2316   29.7181 C   0  0  0  0  0  0  0  0  0  0  0  0
  -28.9402    1.0517   30.0597 C   0  0  0  0  0  0  0  0  0  0  0  0
  -25.8732   -0.7125   27.8045 C   0  0  0  0  0  0  0  0  0  0  0  0
  -24.7599   -1.1987   28.6570 C   0  0  0  0  0  0  0  0  0  0  0  0
  -24.7496   -2.3847   29.1063 C   0  0  0  0  0  0  0  0  0  0  0  0
  -23.5894   -2.8335   29.8419 C   0  0  0  0  0  0  0  0  0  0  0  0
  -22.7913   -1.8035   30.2794 C   0  0  0  0  0  0  0  0  0  0  0  0
  -23.7233   -0.4336   29.2770 C   0  0  0  0  0  0  0  0  0  0  0  0
  -23.1635    0.8351   29.2766 C   0  0  0  0  0  0  0  0  0  0  0  0
  -22.2033    1.0816   28.5278 O   0  0  0  0  0  0  0  0  0  0  0  0
  -23.3834    1.6000   30.3666 O   0  0  0  0  0  0  0  0  0  0  0  0
  -30.0818   -1.0304   30.1087 O   0  0  0  0  0  0  0  0  0  0  0  0
  -30.9250   -0.6897   31.0233 C   0  0  0  0  0  0  0  0  0  0  0  0
  -32.1567   -0.1918   30.6028 C   0  0  0  0  0  0  0  0  0  0  0  0
  -32.9614    0.3475   31.4768 C   0  0  0  0  0  0  0  0  0  0  0  0
  -32.6950    0.2391   32.8853 C   0  0  0  0  0  0  0  0  0  0  0  0
  -31.5426   -0.3155   33.3263 C   0  0  0  0  0  0  0  0  0  0  0  0
  -30.5615   -0.7588   32.3793 C   0  0  0  0  0  0  0  0  0  0  0  0
  -29.3168   -1.3326   32.8040 C   0  0  0  0  0  0  0  0  0  0  0  0
  -29.1220   -1.9631   33.8979 C   0  0  0  0  0  0  0  0  0  0  0  0
  -28.3872   -1.9888   32.0169 C   0  0  0  0  0  0  0  0  0  0  0  0
  -29.8129   -1.4433   35.1162 C   0  0  0  0  0  0  0  0  0  0  0  0
  -31.1241   -0.7502   34.7617 C   0  0  0  0  0  0  0  0  0  0  0  0
  -27.7446    3.2493   30.0559 C   0  0  0  0  0  0  0  0  0  0  0  0
  -28.1649    3.7507   30.9653 O   0  0  0  0  0  0  0  0  0  0  0  0
  -26.6365    3.8089   29.4790 O   0  0  0  0  0  0  0  0  0  0  0  0
  -26.4123    5.1453   29.7376 C   0  0  0  0  0  0  0  0  0  0  0  0
  -27.1870    6.1070   29.1862 C   0  0  0  0  0  0  0  0  0  0  0  0
  -27.9291    5.8349   28.5037 O   0  0  0  0  0  0  0  0  0  0  0  0
  -26.6674    7.4371   29.2423 N   0  0  0  0  0  0  0  0  0  0  0  0
  -25.5263    7.8947   30.0217 C   0  0  0  0  0  0  0  0  0  0  0  0
  2  7  1  0
  7  8  1  0
  8  9  2  0
  9 10  1  0
 10 11  2  0
  8 12  1  0
 11 12  1  0
 12 13  1  0
 13 14  2  0
 13 15  1  0
  5 16  1  0
 16 17  1  0
 23 25  1  0
  4 28  1  0
 28 29  2  0
 28 30  1  0
 30 31  1  0
 31 32  1  0
 32 33  2  0
 32 34  1  0
 34 35  1  0
 17 18  2  0
 18 19  1  0
 19 20  2  0
 20 21  1  0
 22 17  1  0
  1  2  2  0
  2  3  1  0
  3  4  2  0
  4  6  1  0
  6  5  2  0
  5  1  1  0
 21 22  2  0
 22 23  1  0
 23 24  2  0
 24 26  1  0
 26 27  2  0
 27 21  1  0
M  END

$$$$
