No_1270-gen_results/8p0m/2024-11-26-14-13-15/
     RDKit          3D

 21 24  0  0  0  0  0  0  0  0999 V2000
  -28.0162   -0.8135   28.8779 C   0  0  0  0  0  0  0  0  0  0  0  0
  -28.4690   -0.7850   29.8287 C   0  0  0  0  0  0  0  0  0  0  0  0
  -26.6082   -0.9454   28.8569 N   0  0  0  0  0  0  0  0  0  0  0  0
  -25.7271   -0.3585   27.9991 C   0  0  0  0  0  0  0  0  0  0  0  0
  -24.3406   -0.4775   28.2916 C   0  0  0  0  0  0  0  0  0  0  0  0
  -24.1416   -1.4913   29.2987 C   0  0  0  0  0  0  0  0  0  0  0  0
  -25.5876   -1.7572   29.6689 C   0  0  0  0  0  0  0  0  0  0  0  0
  -29.1983   -0.3351   30.4665 C   0  0  0  0  0  0  0  0  0  0  0  0
  -29.6273    1.0346   29.9418 C   0  0  0  0  0  0  0  0  0  0  0  0
  -29.4512    1.1934   28.6443 C   0  0  0  0  0  0  0  0  0  0  0  0
  -28.3515    0.4168   28.1678 C   0  0  0  0  0  0  0  0  0  0  0  0
  -27.7753    0.7161   26.8490 C   0  0  0  0  0  0  0  0  0  0  0  0
  -26.4147    0.8264   27.2288 C   0  0  0  0  0  0  0  0  0  0  0  0
  -25.4017    0.9619   25.9160 C   0  0  0  0  0  0  0  0  0  0  0  0
  -26.0098    2.2123   27.8908 C   0  0  0  0  0  0  0  0  0  0  0  0
  -28.3001    1.8960   26.2207 C   0  0  0  0  0  0  0  0  0  0  0  0
  -24.7906    2.4466   28.3791 C   0  0  0  0  0  0  0  0  0  0  0  0
  -27.0770    3.1915   28.0336 C   0  0  0  0  0  0  0  0  0  0  0  0
  -26.7321    4.3807   28.8214 C   0  0  0  0  0  0  0  0  0  0  0  0
  -28.1960    3.1488   27.1627 C   0  0  0  0  0  0  0  0  0  0  0  0
  -27.0766    5.4387   28.4986 C   0  0  0  0  0  0  0  0  0  0  0  0
  1  3  1  0
  3  4  1  0
  4  5  2  0
  5  6  1  0
  3  7  1  0
  6  7  1  0
 11 12  1  0
  4 13  1  0
 12 13  1  0
 13 14  1  0
 13 15  1  0
 12 16  1  0
 15 17  1  0
 15 18  1  0
 18 19  1  0
 16 20  1  0
 18 20  1  0
 19 21  2  0
  1  2  2  0
  2  8  1  0
  8  9  2  0
  9 10  1  0
 10 11  2  0
 11  1  1  0
M  END

$$$$
