No_1477-gen_results/8p0m/2024-11-26-14-13-15/
     RDKit          3D

 32 33  0  0  0  0  0  0  0  0999 V2000
  -28.0162   -0.8135   28.8779 C   0  0  0  0  0  0  0  0  0  0  0  0
  -27.0636   -0.1190   28.6079 C   0  0  0  0  0  0  0  0  0  0  0  0
  -25.7647   -0.3897   29.0360 C   0  0  0  0  0  0  0  0  0  0  0  0
  -25.5296   -1.5302   29.9014 C   0  0  0  0  0  0  0  0  0  0  0  0
  -26.6577   -2.2915   30.2035 C   0  0  0  0  0  0  0  0  0  0  0  0
  -27.8548   -1.9555   29.7630 C   0  0  0  0  0  0  0  0  0  0  0  0
  -24.5441    0.4126   28.7379 C   0  0  0  0  0  0  0  0  0  0  0  0
  -24.0952    1.3785   29.5751 C   0  0  0  0  0  0  0  0  0  0  0  0
  -22.9780    2.1448   29.2566 C   0  0  0  0  0  0  0  0  0  0  0  0
  -22.2496    1.9089   28.0531 C   0  0  0  0  0  0  0  0  0  0  0  0
  -23.7843    0.2749   27.5458 C   0  0  0  0  0  0  0  0  0  0  0  0
  -22.7252    0.9953   27.2629 C   0  0  0  0  0  0  0  0  0  0  0  0
  -24.7666    1.6262   30.9100 C   0  0  0  0  0  0  0  0  0  0  0  0
  -24.9337    0.7586   31.5742 O   0  0  0  0  0  0  0  0  0  0  0  0
  -25.0207    2.8820   31.1767 O   0  0  0  0  0  0  0  0  0  0  0  0
  -27.2105    1.0797   27.6732 C   0  0  0  0  0  0  0  0  0  0  0  0
  -27.5898    1.0398   26.5752 O   0  0  0  0  0  0  0  0  0  0  0  0
  -26.9832    2.3185   28.2583 O   0  0  0  0  0  0  0  0  0  0  0  0
  -25.8321    3.2209   32.2289 C   0  0  0  0  0  0  0  0  0  0  0  0
  -25.8478    4.5869   32.4895 C   0  0  0  0  0  0  0  0  0  0  0  0
  -25.4049    5.3903   31.5442 C   0  0  0  0  0  0  0  0  0  0  0  0
  -25.5322    4.8326   30.5060 F   0  0  0  0  0  0  0  0  0  0  0  0
  -24.1318    5.7621   31.7290 F   0  0  0  0  0  0  0  0  0  0  0  0
  -27.0861    4.8806   33.0656 F   0  0  0  0  0  0  0  0  0  0  0  0
  -25.9720    6.6432   31.6344 F   0  0  0  0  0  0  0  0  0  0  0  0
  -25.1736    4.7030   33.8032 F   0  0  0  0  0  0  0  0  0  0  0  0
  -28.9385   -2.6828   30.1111 O   0  0  0  0  0  0  0  0  0  0  0  0
  -30.0811   -2.1697   30.5852 C   0  0  0  0  0  0  0  0  0  0  0  0
  -31.1836   -2.7374   30.0528 C   0  0  0  0  0  0  0  0  0  0  0  0
  -32.1078   -2.1665   29.5870 O   0  0  0  0  0  0  0  0  0  0  0  0
  -31.4573   -3.9891   30.4708 F   0  0  0  0  0  0  0  0  0  0  0  0
  -30.0702   -1.1415   31.2723 O   0  0  0  0  0  0  0  0  0  0  0  0
  3  7  1  0
  8 13  1  0
 13 14  2  0
 13 15  1  0
  2 16  1  0
 16 17  2  0
 16 18  1  0
 15 19  1  0
 19 20  1  0
 20 21  1  0
 21 22  1  0
 21 23  1  0
 20 24  1  0
 21 25  1  0
 20 26  1  0
  6 27  1  0
 27 28  1  0
 28 29  1  0
 29 30  2  0
 29 31  1  0
 28 32  2  0
  7  8  2  0
  8  9  1  0
  9 10  2  0
 10 12  1  0
 12 11  2  0
 11  7  1  0
  1  2  2  0
  2  3  1  0
  3  4  2  0
  4  5  1  0
  5  6  2  0
  6  1  1  0
M  END

$$$$
