No_1718-gen_results/8p0m/2024-11-26-14-13-15/
     RDKit          3D

 20 21  0  0  0  0  0  0  0  0999 V2000
  -28.0162   -0.8135   28.8779 C   0  0  0  0  0  0  0  0  0  0  0  0
  -27.0636   -0.1189   28.6079 C   0  0  0  0  0  0  0  0  0  0  0  0
  -27.0010    0.6913   27.4910 C   0  0  0  0  0  0  0  0  0  0  0  0
  -28.1373    0.7363   26.6350 C   0  0  0  0  0  0  0  0  0  0  0  0
  -29.2360    0.0765   27.0690 C   0  0  0  0  0  0  0  0  0  0  0  0
  -30.3815    0.2048   26.2662 C   0  0  0  0  0  0  0  0  0  0  0  0
  -29.1803   -0.6422   28.1830 C   0  0  0  0  0  0  0  0  0  0  0  0
  -30.9618    1.1553   26.0173 N   0  0  0  0  0  0  0  0  0  0  0  0
  -30.9126   -0.9137   25.7739 O   0  0  0  0  0  0  0  0  0  0  0  0
  -32.1774    1.3996   25.1740 C   0  0  0  0  0  0  0  0  0  0  0  0
  -25.7080   -0.2083   29.4260 C   0  0  0  0  0  0  0  0  0  0  0  0
  -25.1168   -1.2347   29.1834 F   0  0  0  0  0  0  0  0  0  0  0  0
  -26.0287   -0.2164   30.7456 F   0  0  0  0  0  0  0  0  0  0  0  0
  -24.9166    0.8327   29.2186 F   0  0  0  0  0  0  0  0  0  0  0  0
  -30.4979    2.5939   26.5305 C   0  0  0  0  0  0  0  0  0  0  0  0
  -31.2197    2.9626   27.6897 C   0  0  0  0  0  0  0  0  0  0  0  0
  -30.5071    3.6125   28.5071 C   0  0  0  0  0  0  0  0  0  0  0  0
  -29.3112    4.3676   28.1802 C   0  0  0  0  0  0  0  0  0  0  0  0
  -28.7961    4.1103   26.8924 C   0  0  0  0  0  0  0  0  0  0  0  0
  -29.3462    3.0598   26.1168 C   0  0  0  0  0  0  0  0  0  0  0  0
  5  6  1  0
  6  8  1  0
  6  9  2  0
  8 10  1  0
  2 11  1  0
 11 12  1  0
 11 13  1  0
 11 14  1  0
  8 15  1  0
 15 16  2  0
 16 17  1  0
 17 18  2  0
 18 19  1  0
 19 20  2  0
 20 15  1  0
  1  2  2  0
  2  3  1  0
  3  4  2  0
  4  5  1  0
  5  7  2  0
  7  1  1  0
M  END

$$$$
