No_1863-gen_results/8p0m/2024-11-26-14-13-15/
     RDKit          3D

 22 24  0  0  0  0  0  0  0  0999 V2000
  -28.0162   -0.8135   28.8779 C   0  0  0  0  0  0  0  0  0  0  0  0
  -28.4690   -0.7850   29.8287 C   0  0  0  0  0  0  0  0  0  0  0  0
  -28.1816    0.4277   28.1134 C   0  0  0  0  0  0  0  0  0  0  0  0
  -27.4498    0.6435   26.8500 C   0  0  0  0  0  0  0  0  0  0  0  0
  -26.1815    0.0357   26.7145 C   0  0  0  0  0  0  0  0  0  0  0  0
  -25.7800   -0.9326   27.6938 C   0  0  0  0  0  0  0  0  0  0  0  0
  -26.5568   -1.2134   28.7413 C   0  0  0  0  0  0  0  0  0  0  0  0
  -28.3021   -1.9782   30.6613 N   0  0  0  0  0  0  0  0  0  0  0  0
  -27.1371   -2.6658   30.5759 C   0  0  0  0  0  0  0  0  0  0  0  0
  -26.1686   -2.3577   29.5920 C   0  0  0  0  0  0  0  0  0  0  0  0
  -25.0334   -3.1481   29.3764 C   0  0  0  0  0  0  0  0  0  0  0  0
  -24.7881   -4.0900   28.6411 C   0  0  0  0  0  0  0  0  0  0  0  0
  -23.4585   -4.4772   28.5925 F   0  0  0  0  0  0  0  0  0  0  0  0
  -29.8155   -0.3717   30.0913 N   0  0  0  0  0  0  0  0  0  0  0  0
  -30.0804    0.8114   30.1670 C   0  0  0  0  0  0  0  0  0  0  0  0
  -31.3395    1.0302   30.7638 F   0  0  0  0  0  0  0  0  0  0  0  0
  -29.1089    1.7285   30.8384 C   0  0  0  0  0  0  0  0  0  0  0  0
  -28.8043    1.5260   32.0806 C   0  0  0  0  0  0  0  0  0  0  0  0
  -27.7783    2.3221   32.7169 C   0  0  0  0  0  0  0  0  0  0  0  0
  -27.1711    3.3884   32.0425 C   0  0  0  0  0  0  0  0  0  0  0  0
  -28.4694    2.8507   30.1345 C   0  0  0  0  0  0  0  0  0  0  0  0
  -27.5223    3.6396   30.7623 C   0  0  0  0  0  0  0  0  0  0  0  0
 10 11  1  0
 11 12  2  3
 12 13  1  0
  2 14  1  0
 14 15  2  3
 15 16  1  0
 15 17  1  0
  1  2  1  0
  2  8  2  0
  8  9  1  0
  9 10  2  0
 10  7  1  0
 17 18  2  0
 18 19  1  0
 19 20  2  0
 20 22  1  0
 22 21  2  0
 21 17  1  0
  1  3  2  0
  3  4  1  0
  4  5  2  0
  5  6  1  0
  6  7  2  0
  7  1  1  0
M  END

$$$$
