No_11-gen_results/8p0m/2024-11-26-14-13-15/
     RDKit          3D

 21 23  0  0  0  0  0  0  0  0999 V2000
  -28.0162   -0.8135   28.8779 C   0  0  0  0  0  0  0  0  0  0  0  0
  -27.0636   -0.1189   28.6079 C   0  0  0  0  0  0  0  0  0  0  0  0
  -26.9716    0.7139   27.5060 C   0  0  0  0  0  0  0  0  0  0  0  0
  -28.1053    0.7744   26.6421 C   0  0  0  0  0  0  0  0  0  0  0  0
  -29.2041    0.1179   27.0477 C   0  0  0  0  0  0  0  0  0  0  0  0
  -29.2127   -0.6088   28.1281 C   0  0  0  0  0  0  0  0  0  0  0  0
  -25.6104    1.3028   27.2626 C   0  0  0  0  0  0  0  0  0  0  0  0
  -24.5790    0.9447   27.8782 C   0  0  0  0  0  0  0  0  0  0  0  0
  -23.2546    1.5743   27.6994 C   0  0  0  0  0  0  0  0  0  0  0  0
  -22.1658    1.2309   28.5550 C   0  0  0  0  0  0  0  0  0  0  0  0
  -22.2725    0.2005   29.4335 C   0  0  0  0  0  0  0  0  0  0  0  0
  -23.4523   -0.5087   29.5813 C   0  0  0  0  0  0  0  0  0  0  0  0
  -24.5311   -0.1449   28.8444 C   0  0  0  0  0  0  0  0  0  0  0  0
  -25.7657   -0.5616   29.2528 C   0  0  0  0  0  0  0  0  0  0  0  0
  -25.6017    2.2031   26.2641 F   0  0  0  0  0  0  0  0  0  0  0  0
  -25.8935   -1.4243   30.2130 O   0  0  0  0  0  0  0  0  0  0  0  0
  -30.4191    0.3156   26.2337 C   0  0  0  0  0  0  0  0  0  0  0  0
  -30.5357   -0.2740   25.1274 O   0  0  0  0  0  0  0  0  0  0  0  0
  -31.2266    1.3265   26.5137 N   0  0  0  0  0  0  0  0  0  0  0  0
  -32.4204    1.6233   25.7015 C   0  0  0  0  0  0  0  0  0  0  0  0
  -30.7152    2.6294   26.9369 C   0  0  0  0  0  0  0  0  0  0  0  0
  3  7  1  0
  2 14  1  0
 13 14  1  0
  7 15  1  0
 14 16  2  0
  5 17  1  0
 17 18  2  0
 17 19  1  0
 19 20  1  0
 19 21  1  0
  7  8  1  0
  1  2  2  0
  2  3  1  0
  3  4  2  0
  4  5  1  0
  5  6  2  0
  6  1  1  0
  8  9  2  0
  9 10  1  0
 10 11  2  0
 11 12  1  0
 12 13  2  0
 13  8  1  0
M  END

$$$$
