No_1235-gen_results/8p0m/2024-11-26-14-13-15/
     RDKit          3D

 14 16  0  0  0  0  0  0  0  0999 V2000
  -28.0162   -0.8135   28.8779 C   0  0  0  0  0  0  0  0  0  0  0  0
  -28.4690   -0.7850   29.8287 C   0  0  0  0  0  0  0  0  0  0  0  0
  -27.1356    0.2359   28.5352 C   0  0  0  0  0  0  0  0  0  0  0  0
  -26.8745    1.2825   29.3982 C   0  0  0  0  0  0  0  0  0  0  0  0
  -25.9742    2.3797   29.0831 C   0  0  0  0  0  0  0  0  0  0  0  0
  -28.3915    0.1302   30.9603 C   0  0  0  0  0  0  0  0  0  0  0  0
  -27.5035    1.2424   30.6700 C   0  0  0  0  0  0  0  0  0  0  0  0
  -25.3913    2.5625   28.0344 C   0  0  0  0  0  0  0  0  0  0  0  0
  -24.5135    3.6871   27.7241 C   0  0  0  0  0  0  0  0  0  0  0  0
  -25.3934    1.5397   26.9757 C   0  0  0  0  0  0  0  0  0  0  0  0
  -26.3756    0.2724   27.2386 C   0  0  0  0  0  0  0  0  0  0  0  0
  -23.8071    3.5727   26.5033 N   0  0  0  0  0  0  0  0  0  0  0  0
  -23.6974    2.4204   25.8913 C   0  0  0  0  0  0  0  0  0  0  0  0
  -24.5945    1.4431   25.9314 C   0  0  0  0  0  0  0  0  0  0  0  0
  1  2  2  0
  2  6  1  0
  6  7  2  0
  7  4  1  0
  3  1  1  0
  3  4  2  0
  4  5  1  0
  5  8  2  0
 10 11  2  0
 11  3  1  0
  8  9  1  0
  9 12  2  0
 12 13  1  0
 13 14  2  0
 14 10  1  0
 10  8  1  0
M  END

$$$$
