No_1982-gen_results/8p0m/2024-11-26-14-13-15/
     RDKit          3D

 20 21  0  0  0  0  0  0  0  0999 V2000
  -28.0162   -0.8135   28.8779 C   0  0  0  0  0  0  0  0  0  0  0  0
  -28.4690   -0.7850   29.8287 C   0  0  0  0  0  0  0  0  0  0  0  0
  -28.1816    0.4277   28.1134 C   0  0  0  0  0  0  0  0  0  0  0  0
  -27.4498    0.6435   26.8500 C   0  0  0  0  0  0  0  0  0  0  0  0
  -26.1815    0.0357   26.7145 C   0  0  0  0  0  0  0  0  0  0  0  0
  -25.7800   -0.9326   27.6938 C   0  0  0  0  0  0  0  0  0  0  0  0
  -26.5568   -1.2134   28.7413 C   0  0  0  0  0  0  0  0  0  0  0  0
  -29.6620   -0.4397   29.9661 F   0  0  0  0  0  0  0  0  0  0  0  0
  -27.8427   -0.5009   31.0268 F   0  0  0  0  0  0  0  0  0  0  0  0
  -28.7160   -2.2506   30.1332 F   0  0  0  0  0  0  0  0  0  0  0  0
  -25.8523   -2.4720   29.6950 Cl  0  0  0  0  0  0  0  0  0  0  0  0
  -27.8003    1.7377   26.0316 C   0  0  0  0  0  0  0  0  0  0  0  0
  -28.0238    1.4773   24.7695 N   0  0  0  0  0  0  0  0  0  0  0  0
  -27.6495    0.4616   24.2412 C   0  0  0  0  0  0  0  0  0  0  0  0
  -27.1850   -0.5695   25.0706 C   0  0  0  0  0  0  0  0  0  0  0  0
  -25.5802    0.3158   25.5996 C   0  0  0  0  0  0  0  0  0  0  0  0
  -26.0650   -1.1384   24.1393 C   0  0  0  0  0  0  0  0  0  0  0  0
  -25.1883   -0.2746   24.5479 C   0  0  0  0  0  0  0  0  0  0  0  0
  -25.1044    1.7745   25.8376 C   0  0  0  0  0  0  0  0  0  0  0  0
  -28.2245   -1.7071   24.3712 C   0  0  0  0  0  0  0  0  0  0  0  0
  1  2  1  0
  2  8  1  0
  2  9  1  0
  2 10  1  0
  7 11  1  0
  4 12  1  0
 12 13  1  0
 13 14  2  3
 14 15  1  0
  5 16  1  0
 15 17  1  0
 16 18  2  3
 17 18  1  0
 16 19  1  0
 15 20  1  0
  1  3  2  0
  3  4  1  0
  4  5  2  0
  5  6  1  0
  6  7  2  0
  7  1  1  0
M  END

$$$$
