No_1247-gen_results/8p0m/2024-11-26-14-13-15/
     RDKit          3D

 17 17  0  0  0  0  0  0  0  0999 V2000
  -28.0162   -0.8135   28.8779 C   0  0  0  0  0  0  0  0  0  0  0  0
  -27.0636   -0.1190   28.6079 C   0  0  0  0  0  0  0  0  0  0  0  0
  -27.0788    0.9846   29.1738 F   0  0  0  0  0  0  0  0  0  0  0  0
  -25.8414   -0.7435   29.0314 F   0  0  0  0  0  0  0  0  0  0  0  0
  -28.6695   -0.4036   30.0288 O   0  0  0  0  0  0  0  0  0  0  0  0
  -28.8109   -1.2272   28.1690 O   0  0  0  0  0  0  0  0  0  0  0  0
  -26.8764    0.3211   27.4481 F   0  0  0  0  0  0  0  0  0  0  0  0
  -30.0371   -0.6059   28.1395 C   0  0  0  0  0  0  0  0  0  0  0  0
  -30.6010   -0.9308   29.3678 C   0  0  0  0  0  0  0  0  0  0  0  0
  -29.8745   -0.4346   30.4704 C   0  0  0  0  0  0  0  0  0  0  0  0
  -30.8948   -2.3747   29.4728 O   0  0  0  0  0  0  0  0  0  0  0  0
  -30.7225   -1.0167   26.8083 C   0  0  0  0  0  0  0  0  0  0  0  0
  -30.3460   -0.1866   25.7024 C   0  0  0  0  0  0  0  0  0  0  0  0
  -30.1540    1.0969   25.8403 C   0  0  0  0  0  0  0  0  0  0  0  0
  -32.1234   -0.8385   27.0266 O   0  0  0  0  0  0  0  0  0  0  0  0
  -31.0872    1.9600   26.1964 C   0  0  0  0  0  0  0  0  0  0  0  0
  -30.7720    3.3269   26.4547 C   0  0  0  0  0  0  0  0  0  0  0  0
  1  2  1  0
  2  3  1  0
  2  4  1  0
  1  5  1  0
  1  6  1  0
  2  7  1  0
  6  8  1  0
  8  9  1  0
  5 10  1  0
  9 10  1  0
  9 11  1  0
  8 12  1  0
 12 13  1  0
 13 14  1  0
 12 15  1  0
 14 16  2  3
 16 17  1  0
M  END

$$$$
