No_173-gen_results/8p0m/2024-11-26-14-13-15/
     RDKit          3D

 14 15  0  0  0  0  0  0  0  0999 V2000
  -28.0162   -0.8135   28.8779 C   0  0  0  0  0  0  0  0  0  0  0  0
  -28.4690   -0.7850   29.8287 C   0  0  0  0  0  0  0  0  0  0  0  0
  -26.5455   -0.8762   28.8500 C   0  0  0  0  0  0  0  0  0  0  0  0
  -25.8974   -0.8267   29.8894 C   0  0  0  0  0  0  0  0  0  0  0  0
  -26.4945   -0.7976   31.1740 C   0  0  0  0  0  0  0  0  0  0  0  0
  -27.8589   -0.7585   31.1651 C   0  0  0  0  0  0  0  0  0  0  0  0
  -24.4989   -0.8326   29.9153 O   0  0  0  0  0  0  0  0  0  0  0  0
  -23.7417   -0.3554   28.9301 C   0  0  0  0  0  0  0  0  0  0  0  0
  -23.8777    0.7651   28.2416 C   0  0  0  0  0  0  0  0  0  0  0  0
  -22.9735    1.2915   27.3771 C   0  0  0  0  0  0  0  0  0  0  0  0
  -22.1020    1.8128   27.4893 C   0  0  0  0  0  0  0  0  0  0  0  0
  -21.1267    1.0618   28.4896 C   0  0  0  0  0  0  0  0  0  0  0  0
  -21.3341   -0.0209   29.2836 C   0  0  0  0  0  0  0  0  0  0  0  0
  -22.3523   -0.2605   29.8398 C   0  0  0  0  0  0  0  0  0  0  0  0
  4  7  1  0
  7  8  1  0
  8  9  2  0
  9 10  1  0
 10 11  2  0
 11 12  1  0
 12 13  2  0
  8 14  1  0
 13 14  1  0
  1  2  2  0
  2  6  1  0
  6  5  2  0
  5  4  1  0
  4  3  2  0
  3  1  1  0
M  END

$$$$
