No_1457-gen_results/8p0m/2024-11-26-14-13-15/
     RDKit          3D

  7  6  0  0  0  0  0  0  0  0999 V2000
  -28.0162   -0.8135   28.8779 C   0  0  0  0  0  0  0  0  0  0  0  0
  -28.4690   -0.7850   29.8287 C   0  0  0  0  0  0  0  0  0  0  0  0
  -26.5042   -0.7777   28.8766 C   0  0  0  0  0  0  0  0  0  0  0  0
  -26.0808   -1.8936   29.1655 F   0  0  0  0  0  0  0  0  0  0  0  0
  -25.7418   -0.1688   28.0463 F   0  0  0  0  0  0  0  0  0  0  0  0
  -27.9651   -0.4488   30.8779 O   0  0  0  0  0  0  0  0  0  0  0  0
  -29.7803   -1.2665   29.9271 O   0  0  0  0  0  0  0  0  0  0  0  0
  1  2  1  0
  1  3  1  0
  3  4  1  0
  3  5  1  0
  2  6  1  0
  2  7  2  0
M  END

$$$$
