No_1469-gen_results/8p0m/2024-11-26-14-13-15/
     RDKit          3D

 26 28  0  0  0  0  0  0  0  0999 V2000
  -28.0162   -0.8135   28.8779 C   0  0  0  0  0  0  0  0  0  0  0  0
  -28.4690   -0.7850   29.8287 C   0  0  0  0  0  0  0  0  0  0  0  0
  -27.0871    0.2903   28.6377 C   0  0  0  0  0  0  0  0  0  0  0  0
  -26.2516    0.4114   27.4223 C   0  0  0  0  0  0  0  0  0  0  0  0
  -28.3913    0.1041   30.9805 C   0  0  0  0  0  0  0  0  0  0  0  0
  -27.5332    1.1666   30.7866 C   0  0  0  0  0  0  0  0  0  0  0  0
  -26.8281    1.2557   29.6454 C   0  0  0  0  0  0  0  0  0  0  0  0
  -24.9668    0.4106   27.5252 C   0  0  0  0  0  0  0  0  0  0  0  0
  -24.2606    0.1651   28.7211 C   0  0  0  0  0  0  0  0  0  0  0  0
  -22.8025    0.3417   28.7027 C   0  0  0  0  0  0  0  0  0  0  0  0
  -22.2130    1.1395   27.7293 C   0  0  0  0  0  0  0  0  0  0  0  0
  -22.9458    1.6505   26.6537 C   0  0  0  0  0  0  0  0  0  0  0  0
  -24.3179    1.3047   26.5366 C   0  0  0  0  0  0  0  0  0  0  0  0
  -26.9341    0.2181   26.1895 C   0  0  0  0  0  0  0  0  0  0  0  0
  -26.5519    0.0797   25.1212 N   0  0  0  0  0  0  0  0  0  0  0  0
  -28.2288    0.6098   26.1768 O   0  0  0  0  0  0  0  0  0  0  0  0
  -20.9185    1.4828   27.8684 O   0  0  0  0  0  0  0  0  0  0  0  0
  -27.3586    2.0867   31.7797 O   0  0  0  0  0  0  0  0  0  0  0  0
  -27.4925    3.3638   31.6253 C   0  0  0  0  0  0  0  0  0  0  0  0
  -26.4414    4.0759   31.8318 C   0  0  0  0  0  0  0  0  0  0  0  0
  -26.3787    5.5400   31.5119 C   0  0  0  0  0  0  0  0  0  0  0  0
  -25.1915    6.2899   31.7335 C   0  0  0  0  0  0  0  0  0  0  0  0
  -24.0938    5.7614   32.4763 C   0  0  0  0  0  0  0  0  0  0  0  0
  -24.1106    4.4174   32.7596 C   0  0  0  0  0  0  0  0  0  0  0  0
  -25.1692    3.6610   32.4639 C   0  0  0  0  0  0  0  0  0  0  0  0
  -28.4627    3.7740   31.0317 F   0  0  0  0  0  0  0  0  0  0  0  0
  3  4  1  0
  4 14  1  0
 14 15  1  0
 14 16  2  0
 11 17  1  0
  6 18  1  0
 18 19  1  0
 19 26  1  0
  4  8  1  0
 19 20  1  0
  8  9  2  0
  9 10  1  0
 10 11  2  0
 11 12  1  0
 12 13  2  0
 13  8  1  0
  1  2  2  0
  2  5  1  0
  5  6  2  0
  6  7  1  0
  7  3  2  0
  3  1  1  0
 20 21  2  0
 21 22  1  0
 22 23  2  0
 23 24  1  0
 24 25  2  0
 25 20  1  0
M  END

$$$$
