No_1972-gen_results/8p0m/2024-11-26-14-13-15/
     RDKit          3D

 27 29  0  0  0  0  0  0  0  0999 V2000
  -28.0162   -0.8135   28.8779 C   0  0  0  0  0  0  0  0  0  0  0  0
  -27.0636   -0.1190   28.6079 C   0  0  0  0  0  0  0  0  0  0  0  0
  -25.7923   -0.4302   29.0761 C   0  0  0  0  0  0  0  0  0  0  0  0
  -25.5756   -1.5654   29.9363 C   0  0  0  0  0  0  0  0  0  0  0  0
  -26.7354   -2.3004   30.2173 C   0  0  0  0  0  0  0  0  0  0  0  0
  -27.9184   -1.9537   29.7629 C   0  0  0  0  0  0  0  0  0  0  0  0
  -27.1057    1.1023   27.7593 C   0  0  0  0  0  0  0  0  0  0  0  0
  -27.8512    1.5044   27.1726 N   0  0  0  0  0  0  0  0  0  0  0  0
  -25.9292    1.8108   27.6220 F   0  0  0  0  0  0  0  0  0  0  0  0
  -27.9724    2.1116   25.9448 C   0  0  0  0  0  0  0  0  0  0  0  0
  -28.6150    1.7700   24.9126 C   0  0  0  0  0  0  0  0  0  0  0  0
  -28.4603    0.5775   24.4084 C   0  0  0  0  0  0  0  0  0  0  0  0
  -27.6781   -0.3972   25.0859 C   0  0  0  0  0  0  0  0  0  0  0  0
  -26.4912    0.0928   25.5953 C   0  0  0  0  0  0  0  0  0  0  0  0
  -25.7953    1.0703   24.7402 C   0  0  0  0  0  0  0  0  0  0  0  0
  -25.4881   -0.8507   26.0896 C   0  0  0  0  0  0  0  0  0  0  0  0
  -24.3444    1.2042   24.9343 C   0  0  0  0  0  0  0  0  0  0  0  0
  -24.2658   -0.3034   26.3697 C   0  0  0  0  0  0  0  0  0  0  0  0
  -23.6688    0.6079   25.8541 C   0  0  0  0  0  0  0  0  0  0  0  0
  -29.2933    1.5136   27.7753 C   0  0  0  0  0  0  0  0  0  0  0  0
  -28.1901    3.6992   26.3607 C   0  0  0  0  0  0  0  0  0  0  0  0
  -29.5948    2.0925   28.5531 C   0  0  0  0  0  0  0  0  0  0  0  0
  -30.8059    1.8367   29.4179 C   0  0  0  0  0  0  0  0  0  0  0  0
  -31.0779    2.5529   30.6225 C   0  0  0  0  0  0  0  0  0  0  0  0
  -30.2761    3.6328   30.9613 C   0  0  0  0  0  0  0  0  0  0  0  0
  -29.1483    3.9738   30.2518 C   0  0  0  0  0  0  0  0  0  0  0  0
  -28.7959    3.2631   29.1869 C   0  0  0  0  0  0  0  0  0  0  0  0
  2  7  1  0
  7  8  1  0
  7  9  1  0
  8 10  1  0
 10 11  2  3
 11 12  1  0
 12 13  1  0
 13 14  1  0
  8 20  1  0
 10 21  1  0
 20 22  1  0
  1  2  2  0
  2  3  1  0
  3  4  2  0
  4  5  1  0
  5  6  2  0
  6  1  1  0
 22 23  2  0
 23 24  1  0
 24 25  2  0
 25 26  1  0
 26 27  2  0
 27 22  1  0
 14 15  2  0
 15 17  1  0
 17 19  2  0
 19 18  1  0
 18 16  2  0
 16 14  1  0
M  END

$$$$
