No_1352-gen_results/8p0m/2024-11-26-14-13-15/
     RDKit          3D

 27 30  0  0  0  0  0  0  0  0999 V2000
  -28.1229   -1.3353   28.4874 O   0  0  0  0  0  0  0  0  0  0  0  0
  -28.5208   -0.4363   29.0779 C   0  0  0  0  0  0  0  0  0  0  0  0
  -29.6218   -0.0586   29.1075 O   0  0  0  0  0  0  0  0  0  0  0  0
  -27.4876    0.2764   29.8718 N   0  0  0  0  0  0  0  0  0  0  0  0
  -26.1481   -0.0440   29.9616 C   0  0  0  0  0  0  0  0  0  0  0  0
  -25.2357    1.0335   29.9797 C   0  0  0  0  0  0  0  0  0  0  0  0
  -23.8685    0.7953   29.7956 C   0  0  0  0  0  0  0  0  0  0  0  0
  -23.4144   -0.5692   29.6885 C   0  0  0  0  0  0  0  0  0  0  0  0
  -24.3533   -1.5730   29.6661 C   0  0  0  0  0  0  0  0  0  0  0  0
  -25.7134   -1.3195   29.7245 C   0  0  0  0  0  0  0  0  0  0  0  0
  -21.7282   -0.7991   29.5868 Cl  0  0  0  0  0  0  0  0  0  0  0  0
  -27.9321    1.4992   30.6550 C   0  0  0  0  0  0  0  0  0  0  0  0
  -29.2245    1.6241   30.9030 C   0  0  0  0  0  0  0  0  0  0  0  0
  -30.1253    1.2377   29.7889 C   0  0  0  0  0  0  0  0  0  0  0  0
  -29.7048    0.7642   32.0980 C   0  0  0  0  0  0  0  0  0  0  0  0
  -28.8782    0.9814   33.1270 C   0  0  0  0  0  0  0  0  0  0  0  0
  -28.9926    0.0771   34.3088 C   0  0  0  0  0  0  0  0  0  0  0  0
  -29.5300    3.1057   31.1280 C   0  0  0  0  0  0  0  0  0  0  0  0
  -29.6024   -0.7875   34.3546 N   0  0  0  0  0  0  0  0  0  0  0  0
  -30.5312   -1.1507   33.3576 C   0  0  0  0  0  0  0  0  0  0  0  0
  -30.4784   -0.3564   32.1797 C   0  0  0  0  0  0  0  0  0  0  0  0
  -28.6511    3.9943   31.1143 C   0  0  0  0  0  0  0  0  0  0  0  0
  -30.9201    3.4750   31.4992 C   0  0  0  0  0  0  0  0  0  0  0  0
  -28.7737    5.1051   31.2868 C   0  0  0  0  0  0  0  0  0  0  0  0
  -31.1082    4.8345   31.7520 C   0  0  0  0  0  0  0  0  0  0  0  0
  -30.0634    5.7044   31.6561 C   0  0  0  0  0  0  0  0  0  0  0  0
  -31.1110    1.7438   29.2698 O   0  0  0  0  0  0  0  0  0  0  0  0
  1  2  2  0
  2  3  1  0
  2  4  1  0
  4  5  1  0
  8 11  1  0
  4 12  1  0
 12 13  1  0
  3 14  1  0
 13 14  1  0
 13 15  1  0
 13 18  1  0
 14 27  2  0
 18 22  2  0
 22 24  1  0
 24 26  2  0
 26 25  1  0
 25 23  2  0
 23 18  1  0
  5  6  2  0
  6  7  1  0
  7  8  2  0
  8  9  1  0
  9 10  2  0
 10  5  1  0
 15 16  2  0
 16 17  1  0
 17 19  2  0
 19 20  1  0
 20 21  2  0
 21 15  1  0
M  END

$$$$
