No_122-gen_results/8p0m/2024-11-26-14-13-15/
     RDKit          3D

 20 22  0  0  0  0  0  0  0  0999 V2000
  -28.0162   -0.8135   28.8779 C   0  0  0  0  0  0  0  0  0  0  0  0
  -27.0636   -0.1189   28.6079 C   0  0  0  0  0  0  0  0  0  0  0  0
  -25.7923   -0.4302   29.0761 C   0  0  0  0  0  0  0  0  0  0  0  0
  -25.5756   -1.5654   29.9363 C   0  0  0  0  0  0  0  0  0  0  0  0
  -26.7354   -2.3004   30.2173 C   0  0  0  0  0  0  0  0  0  0  0  0
  -27.9184   -1.9537   29.7629 C   0  0  0  0  0  0  0  0  0  0  0  0
  -27.1057    1.1023   27.7593 C   0  0  0  0  0  0  0  0  0  0  0  0
  -26.7157    2.2350   27.9945 C   0  0  0  0  0  0  0  0  0  0  0  0
  -26.0688    2.4770   29.3567 C   0  0  0  0  0  0  0  0  0  0  0  0
  -26.2621    3.4491   30.0956 C   0  0  0  0  0  0  0  0  0  0  0  0
  -25.6340    3.5822   31.4192 C   0  0  0  0  0  0  0  0  0  0  0  0
  -24.6717    2.6589   31.7915 C   0  0  0  0  0  0  0  0  0  0  0  0
  -24.3736    1.6329   30.9475 C   0  0  0  0  0  0  0  0  0  0  0  0
  -25.0017    1.5278   29.7386 C   0  0  0  0  0  0  0  0  0  0  0  0
  -24.9308    0.2086   29.2049 C   0  0  0  0  0  0  0  0  0  0  0  0
  -28.3777    1.0798   27.1786 F   0  0  0  0  0  0  0  0  0  0  0  0
  -25.8525    4.8140   32.2973 C   0  0  0  0  0  0  0  0  0  0  0  0
  -25.8275    5.7643   31.8831 O   0  0  0  0  0  0  0  0  0  0  0  0
  -26.3490    4.4364   33.5467 O   0  0  0  0  0  0  0  0  0  0  0  0
  -26.8516    3.4529   27.2383 C   0  0  0  0  0  0  0  0  0  0  0  0
  2  7  1  0
  7  8  2  0
  8  9  1  0
  3 15  1  0
 14 15  1  0
  7 16  1  0
 11 17  1  0
 17 18  2  0
 17 19  1  0
  8 20  1  0
  1  2  2  0
  2  3  1  0
  3  4  2  0
  4  5  1  0
  5  6  2  0
  6  1  1  0
  9 10  2  0
 10 11  1  0
 11 12  2  0
 12 13  1  0
 13 14  2  0
 14  9  1  0
M  END

$$$$
