No_1788-gen_results/8p0m/2024-11-26-14-13-15/
     RDKit          3D

 19 21  0  0  0  0  0  0  0  0999 V2000
  -28.0162   -0.8135   28.8779 C   0  0  0  0  0  0  0  0  0  0  0  0
  -27.0636   -0.1190   28.6079 C   0  0  0  0  0  0  0  0  0  0  0  0
  -26.9716    0.7139   27.5060 C   0  0  0  0  0  0  0  0  0  0  0  0
  -28.1053    0.7744   26.6421 C   0  0  0  0  0  0  0  0  0  0  0  0
  -29.2041    0.1179   27.0477 C   0  0  0  0  0  0  0  0  0  0  0  0
  -29.2127   -0.6088   28.1281 C   0  0  0  0  0  0  0  0  0  0  0  0
  -25.7106    1.4518   27.1380 C   0  0  0  0  0  0  0  0  0  0  0  0
  -24.6052    0.9253   27.6902 C   0  0  0  0  0  0  0  0  0  0  0  0
  -23.3376    1.6509   27.5495 C   0  0  0  0  0  0  0  0  0  0  0  0
  -22.1759    1.2277   28.2868 C   0  0  0  0  0  0  0  0  0  0  0  0
  -22.1814    0.0854   29.0261 C   0  0  0  0  0  0  0  0  0  0  0  0
  -23.3607   -0.6935   29.1008 C   0  0  0  0  0  0  0  0  0  0  0  0
  -24.5305   -0.2411   28.4874 C   0  0  0  0  0  0  0  0  0  0  0  0
  -25.7159   -0.6069   29.1263 C   0  0  0  0  0  0  0  0  0  0  0  0
  -25.7376   -1.5573   29.9905 O   0  0  0  0  0  0  0  0  0  0  0  0
  -25.7533    2.4979   26.1763 C   0  0  0  0  0  0  0  0  0  0  0  0
  -30.4397    0.3173   26.2661 C   0  0  0  0  0  0  0  0  0  0  0  0
  -30.6517    1.1527   25.7106 O   0  0  0  0  0  0  0  0  0  0  0  0
  -31.2657   -0.7295   26.2903 O   0  0  0  0  0  0  0  0  0  0  0  0
  3  7  1  0
  7  8  1  0
  2 14  1  0
 13 14  1  0
 14 15  2  0
  7 16  1  0
  5 17  1  0
 17 18  2  0
 17 19  1  0
  1  2  2  0
  2  3  1  0
  3  4  2  0
  4  5  1  0
  5  6  2  0
  6  1  1  0
  8  9  2  0
  9 10  1  0
 10 11  2  0
 11 12  1  0
 12 13  2  0
 13  8  1  0
M  END

$$$$
