No_1025-gen_results/8p0m/2024-11-26-14-13-15/
     RDKit          3D

 25 28  0  0  0  0  0  0  0  0999 V2000
  -28.0162   -0.8135   28.8779 C   0  0  0  0  0  0  0  0  0  0  0  0
  -28.4690   -0.7850   29.8287 C   0  0  0  0  0  0  0  0  0  0  0  0
  -26.5455   -0.8762   28.8500 C   0  0  0  0  0  0  0  0  0  0  0  0
  -25.8041   -1.0324   30.0571 C   0  0  0  0  0  0  0  0  0  0  0  0
  -26.5373   -1.0386   31.2171 C   0  0  0  0  0  0  0  0  0  0  0  0
  -27.8843   -0.9532   31.1862 C   0  0  0  0  0  0  0  0  0  0  0  0
  -24.3555   -1.1121   30.0346 C   0  0  0  0  0  0  0  0  0  0  0  0
  -23.7079   -1.1920   30.8827 C   0  0  0  0  0  0  0  0  0  0  0  0
  -22.1991   -1.0954   30.9345 C   0  0  0  0  0  0  0  0  0  0  0  0
  -21.6564   -0.8348   29.7237 C   0  0  0  0  0  0  0  0  0  0  0  0
  -22.4112   -0.6494   28.5512 C   0  0  0  0  0  0  0  0  0  0  0  0
  -23.8549   -0.7781   28.7009 C   0  0  0  0  0  0  0  0  0  0  0  0
  -25.8849   -0.8531   27.7454 F   0  0  0  0  0  0  0  0  0  0  0  0
  -24.6704   -0.6527   27.7375 N   0  0  0  0  0  0  0  0  0  0  0  0
  -24.3195    0.1425   26.4741 C   0  0  0  0  0  0  0  0  0  0  0  0
  -24.1517   -1.8466   27.2635 C   0  0  0  0  0  0  0  0  0  0  0  0
  -24.8785   -2.7115   27.8327 O   0  0  0  0  0  0  0  0  0  0  0  0
  -24.5343   -1.7292   26.1932 O   0  0  0  0  0  0  0  0  0  0  0  0
  -24.7958   -0.1581   25.3427 C   0  0  0  0  0  0  0  0  0  0  0  0
  -24.9700    1.6500   26.9119 C   0  0  0  0  0  0  0  0  0  0  0  0
  -23.9973    2.6673   26.6865 C   0  0  0  0  0  0  0  0  0  0  0  0
  -24.4880    4.0180   26.9672 C   0  0  0  0  0  0  0  0  0  0  0  0
  -25.8016    4.2360   27.3522 C   0  0  0  0  0  0  0  0  0  0  0  0
  -26.6308    3.1321   27.5209 C   0  0  0  0  0  0  0  0  0  0  0  0
  -26.1934    1.8808   27.2860 C   0  0  0  0  0  0  0  0  0  0  0  0
  4  7  1  0
  3 13  1  0
 12 14  1  0
 14 15  1  0
 14 16  1  0
 16 17  2  0
 16 18  1  0
 15 19  2  0
 18 19  1  0
 15 20  1  0
 20 21  2  0
 21 22  1  0
 22 23  2  0
 23 24  1  0
 24 25  2  0
 25 20  1  0
  1  2  2  0
  2  6  1  0
  6  5  2  0
  5  4  1  0
  4  3  2  0
  3  1  1  0
  7  8  2  0
  8  9  1  0
  9 10  2  0
 10 11  1  0
 11 12  2  0
 12  7  1  0
M  END

$$$$
