No_1403-gen_results/8p0m/2024-11-26-14-13-15/
     RDKit          3D

 29 31  0  0  0  0  0  0  0  0999 V2000
  -28.0162   -0.8135   28.8779 C   0  0  0  0  0  0  0  0  0  0  0  0
  -28.4690   -0.7850   29.8287 C   0  0  0  0  0  0  0  0  0  0  0  0
  -28.1960    0.3478   28.0550 C   0  0  0  0  0  0  0  0  0  0  0  0
  -29.0191    1.3501   28.3782 C   0  0  0  0  0  0  0  0  0  0  0  0
  -29.6249    1.2683   29.6012 C   0  0  0  0  0  0  0  0  0  0  0  0
  -29.3821    0.1816   30.4004 C   0  0  0  0  0  0  0  0  0  0  0  0
  -27.4591    0.3787   26.7048 C   0  0  0  0  0  0  0  0  0  0  0  0
  -26.1346    0.3565   26.8185 C   0  0  0  0  0  0  0  0  0  0  0  0
  -25.2867    0.8953   25.8267 C   0  0  0  0  0  0  0  0  0  0  0  0
  -23.9038    0.9697   25.9673 C   0  0  0  0  0  0  0  0  0  0  0  0
  -23.2955    0.7039   27.2298 C   0  0  0  0  0  0  0  0  0  0  0  0
  -24.1359    0.1955   28.2683 C   0  0  0  0  0  0  0  0  0  0  0  0
  -25.4715    0.0820   28.0834 C   0  0  0  0  0  0  0  0  0  0  0  0
  -23.4558   -0.0394   29.5482 C   0  0  0  0  0  0  0  0  0  0  0  0
  -22.4470    0.2788   29.8644 C   0  0  0  0  0  0  0  0  0  0  0  0
  -24.3223   -0.8478   30.4909 C   0  0  0  0  0  0  0  0  0  0  0  0
  -29.2588    2.6953   27.4194 Cl  0  0  0  0  0  0  0  0  0  0  0  0
  -24.9575   -0.2371   31.5822 C   0  0  0  0  0  0  0  0  0  0  0  0
  -24.4360   -2.2263   30.2400 C   0  0  0  0  0  0  0  0  0  0  0  0
  -25.1191    1.1641   31.6351 C   0  0  0  0  0  0  0  0  0  0  0  0
  -25.8373    1.7995   32.6653 C   0  0  0  0  0  0  0  0  0  0  0  0
  -26.0842    3.2061   32.6764 C   0  0  0  0  0  0  0  0  0  0  0  0
  -25.5206    3.9810   31.6417 C   0  0  0  0  0  0  0  0  0  0  0  0
  -24.8343    3.3649   30.6215 C   0  0  0  0  0  0  0  0  0  0  0  0
  -24.6108    2.0169   30.6560 C   0  0  0  0  0  0  0  0  0  0  0  0
  -28.4727   -1.9457   30.9791 C   0  0  0  0  0  0  0  0  0  0  0  0
  -28.4504   -1.7887   32.0870 O   0  0  0  0  0  0  0  0  0  0  0  0
  -28.2156   -3.1609   30.3687 O   0  0  0  0  0  0  0  0  0  0  0  0
  -25.3862   -1.0370   32.6935 C   0  0  0  0  0  0  0  0  0  0  0  0
  3  7  1  0
  7  8  1  0
 12 14  1  0
 14 15  2  0
 14 16  1  0
  4 17  1  0
 16 18  1  0
 16 19  1  0
 18 20  1  0
  2 26  1  0
 26 27  2  0
 26 28  1  0
 18 29  1  0
  1  2  2  0
  2  6  1  0
  6  5  2  0
  5  4  1  0
  4  3  2  0
  3  1  1  0
  8  9  2  0
  9 10  1  0
 10 11  2  0
 11 12  1  0
 12 13  2  0
 13  8  1  0
 20 21  2  0
 21 22  1  0
 22 23  2  0
 23 24  1  0
 24 25  2  0
 25 20  1  0
M  END

$$$$
