No_1602-gen_results/8p0m/2024-11-26-14-13-15/
     RDKit          3D

 26 26  0  0  0  0  0  0  0  0999 V2000
  -28.0162   -0.8135   28.8779 C   0  0  0  0  0  0  0  0  0  0  0  0
  -27.0636   -0.1189   28.6079 C   0  0  0  0  0  0  0  0  0  0  0  0
  -25.7647   -0.3897   29.0360 C   0  0  0  0  0  0  0  0  0  0  0  0
  -24.5516    0.4058   28.7646 C   0  0  0  0  0  0  0  0  0  0  0  0
  -24.6957    1.4480   27.7988 C   0  0  0  0  0  0  0  0  0  0  0  0
  -25.9755    1.7250   27.3077 C   0  0  0  0  0  0  0  0  0  0  0  0
  -27.0718    1.0134   27.6535 C   0  0  0  0  0  0  0  0  0  0  0  0
  -29.2099   -0.0501   29.3493 C   0  0  0  0  0  0  0  0  0  0  0  0
  -30.3469   -0.8660   29.6614 C   0  0  0  0  0  0  0  0  0  0  0  0
  -23.4932    2.1959   27.4902 C   0  0  0  0  0  0  0  0  0  0  0  0
  -22.3357    1.8372   27.8234 O   0  0  0  0  0  0  0  0  0  0  0  0
  -23.6487    3.3679   27.0336 F   0  0  0  0  0  0  0  0  0  0  0  0
  -31.1091   -0.4995   30.6470 O   0  0  0  0  0  0  0  0  0  0  0  0
  -30.7534   -1.8634   29.0799 O   0  0  0  0  0  0  0  0  0  0  0  0
  -28.8508    0.7263   30.4311 O   0  0  0  0  0  0  0  0  0  0  0  0
  -25.4578   -1.5078   29.9684 C   0  0  0  0  0  0  0  0  0  0  0  0
  -25.6111   -1.4425   31.0260 C   0  0  0  0  0  0  0  0  0  0  0  0
  -25.1413   -2.7233   29.2175 C   0  0  0  0  0  0  0  0  0  0  0  0
  -25.1754   -3.6958   28.9215 C   0  0  0  0  0  0  0  0  0  0  0  0
  -25.0495   -5.1064   28.8684 C   0  0  0  0  0  0  0  0  0  0  0  0
  -23.9031   -5.5065   28.4554 N   0  0  0  0  0  0  0  0  0  0  0  0
  -26.0197   -5.8492   29.0718 O   0  0  0  0  0  0  0  0  0  0  0  0
  -28.6408    2.0960   30.3007 C   0  0  0  0  0  0  0  0  0  0  0  0
  -29.1333    2.7999   31.4032 C   0  0  0  0  0  0  0  0  0  0  0  0
  -29.1514    2.5024   32.5635 C   0  0  0  0  0  0  0  0  0  0  0  0
  -29.6767    3.2571   33.6750 C   0  0  0  0  0  0  0  0  0  0  0  0
  1  2  2  3
  2  3  1  0
  3  4  1  0
  4  5  1  0
  5  6  1  0
  2  7  1  0
  6  7  1  0
  1  8  1  0
  8  9  1  0
  5 10  1  0
 10 11  2  0
 10 12  1  0
  9 13  1  0
  9 14  2  0
  8 15  1  0
  3 16  1  0
 16 17  2  0
 16 18  1  0
 18 19  3  0
 19 20  1  0
 20 21  1  0
 20 22  2  0
 15 23  1  0
 23 24  1  0
 24 25  2  3
 25 26  1  0
M  END

$$$$
