No_124-gen_results/8p0m/2024-11-26-14-13-15/
     RDKit          3D

 15 15  0  0  0  0  0  0  0  0999 V2000
  -28.0162   -0.8135   28.8779 C   0  0  0  0  0  0  0  0  0  0  0  0
  -28.4690   -0.7850   29.8287 C   0  0  0  0  0  0  0  0  0  0  0  0
  -28.1816    0.4277   28.1134 C   0  0  0  0  0  0  0  0  0  0  0  0
  -27.4498    0.6435   26.8500 C   0  0  0  0  0  0  0  0  0  0  0  0
  -26.1815    0.0357   26.7145 C   0  0  0  0  0  0  0  0  0  0  0  0
  -25.7800   -0.9326   27.6938 C   0  0  0  0  0  0  0  0  0  0  0  0
  -26.5568   -1.2134   28.7413 C   0  0  0  0  0  0  0  0  0  0  0  0
  -28.5319   -1.9487   30.6145 O   0  0  0  0  0  0  0  0  0  0  0  0
  -29.0863    0.1524   30.5687 O   0  0  0  0  0  0  0  0  0  0  0  0
  -25.3666    0.2772   25.7072 F   0  0  0  0  0  0  0  0  0  0  0  0
  -25.9902   -2.1936   29.5268 O   0  0  0  0  0  0  0  0  0  0  0  0
  -27.6801    1.4375   25.6477 C   0  0  0  0  0  0  0  0  0  0  0  0
  -27.9217    2.7354   25.9255 C   0  0  0  0  0  0  0  0  0  0  0  0
  -28.6657    0.6984   24.7931 C   0  0  0  0  0  0  0  0  0  0  0  0
  -26.4508    1.7240   24.7139 C   0  0  0  0  0  0  0  0  0  0  0  0
  1  2  1  0
  2  8  2  0
  2  9  1  0
  5 10  1  0
  7 11  1  0
  4 12  1  0
 12 13  1  0
 12 14  1  0
 12 15  1  0
  1  3  2  0
  3  4  1  0
  4  5  2  0
  5  6  1  0
  6  7  2  0
  7  1  1  0
M  END

$$$$
