No_1702-gen_results/8p0m/2024-11-26-14-13-15/
     RDKit          3D

 17 18  0  0  0  0  0  0  0  0999 V2000
  -28.1229   -1.3353   28.4874 O   0  0  0  0  0  0  0  0  0  0  0  0
  -27.0637   -0.8242   28.8687 C   0  0  0  0  0  0  0  0  0  0  0  0
  -26.4017   -0.0623   28.6224 C   0  0  0  0  0  0  0  0  0  0  0  0
  -26.3805   -1.7991   29.9619 N   0  0  0  0  0  0  0  0  0  0  0  0
  -25.0334    0.3743   29.0484 C   0  0  0  0  0  0  0  0  0  0  0  0
  -24.5462   -0.4703   30.1069 C   0  0  0  0  0  0  0  0  0  0  0  0
  -25.2361   -1.5529   30.4712 C   0  0  0  0  0  0  0  0  0  0  0  0
  -26.8307    0.9807   27.5238 C   0  0  0  0  0  0  0  0  0  0  0  0
  -27.0620    2.1351   27.7177 C   0  0  0  0  0  0  0  0  0  0  0  0
  -26.8232    2.6833   28.9884 C   0  0  0  0  0  0  0  0  0  0  0  0
  -26.8889    3.7696   29.3567 C   0  0  0  0  0  0  0  0  0  0  0  0
  -27.2614    4.7983   28.3198 C   0  0  0  0  0  0  0  0  0  0  0  0
  -27.4945    4.3971   27.0334 C   0  0  0  0  0  0  0  0  0  0  0  0
  -27.3694    3.0525   26.7132 C   0  0  0  0  0  0  0  0  0  0  0  0
  -26.9796    0.3309   26.1967 C   0  0  0  0  0  0  0  0  0  0  0  0
  -27.2221   -2.9707   30.3083 C   0  0  0  0  0  0  0  0  0  0  0  0
  -28.1301    0.2938   25.6368 C   0  0  0  0  0  0  0  0  0  0  0  0
  1  2  2  0
  2  3  1  0
  2  4  1  0
  3  5  1  0
  4  7  1  0
  6  7  1  0
  3  8  1  0
  8  9  1  0
  8 15  1  0
  4 16  1  0
 15 17  1  0
  5  6  1  0
  9 10  2  0
 10 11  1  0
 11 12  2  0
 12 13  1  0
 13 14  2  0
 14  9  1  0
M  END

$$$$
