No_1301-gen_results/8p0m/2024-11-26-14-13-15/
     RDKit          3D

 15 15  0  0  0  0  0  0  0  0999 V2000
  -28.0162   -0.8135   28.8779 C   0  0  0  0  0  0  0  0  0  0  0  0
  -27.0636   -0.1189   28.6079 C   0  0  0  0  0  0  0  0  0  0  0  0
  -27.0010    0.6913   27.4910 C   0  0  0  0  0  0  0  0  0  0  0  0
  -25.7770    1.0214   26.9135 C   0  0  0  0  0  0  0  0  0  0  0  0
  -24.5088    0.7364   27.5686 C   0  0  0  0  0  0  0  0  0  0  0  0
  -24.5930   -0.0361   28.7390 C   0  0  0  0  0  0  0  0  0  0  0  0
  -25.8114   -0.4771   29.1584 C   0  0  0  0  0  0  0  0  0  0  0  0
  -28.5413   -0.5577   29.9857 O   0  0  0  0  0  0  0  0  0  0  0  0
  -23.1591    1.5446   26.9530 Cl  0  0  0  0  0  0  0  0  0  0  0  0
  -29.7587   -0.4600   30.3369 C   0  0  0  0  0  0  0  0  0  0  0  0
  -30.4711    0.4460   29.8198 C   0  0  0  0  0  0  0  0  0  0  0  0
  -32.1917    0.4221   29.4828 Br  0  0  0  0  0  0  0  0  0  0  0  0
  -29.8218    1.5268   29.3803 O   0  0  0  0  0  0  0  0  0  0  0  0
  -30.3226   -1.4312   31.3076 C   0  0  0  0  0  0  0  0  0  0  0  0
  -30.7084   -2.5621   31.0177 O   0  0  0  0  0  0  0  0  0  0  0  0
  1  2  1  0
  1  8  1  0
  5  9  1  0
  8 10  1  0
 10 11  1  0
 11 12  1  0
 11 13  2  0
 10 14  1  0
 14 15  1  0
  2  3  2  0
  3  4  1  0
  4  5  2  0
  5  6  1  0
  6  7  2  0
  7  2  1  0
M  END

$$$$
