No_1522-gen_results/8p0m/2024-11-26-14-13-15/
     RDKit          3D

 14 15  0  0  0  0  0  0  0  0999 V2000
  -28.0162   -0.8135   28.8779 C   0  0  0  0  0  0  0  0  0  0  0  0
  -28.4690   -0.7850   29.8287 C   0  0  0  0  0  0  0  0  0  0  0  0
  -27.1356    0.2359   28.5352 C   0  0  0  0  0  0  0  0  0  0  0  0
  -26.8745    1.2825   29.3982 C   0  0  0  0  0  0  0  0  0  0  0  0
  -27.5070    1.2380   30.6295 C   0  0  0  0  0  0  0  0  0  0  0  0
  -28.3269    0.1637   30.9240 C   0  0  0  0  0  0  0  0  0  0  0  0
  -26.4110    0.3070   27.2192 C   0  0  0  0  0  0  0  0  0  0  0  0
  -26.8746    0.8940   26.2226 C   0  0  0  0  0  0  0  0  0  0  0  0
  -28.1129    1.5868   26.3029 C   0  0  0  0  0  0  0  0  0  0  0  0
  -28.6636    2.0819   25.0458 C   0  0  0  0  0  0  0  0  0  0  0  0
  -29.8506    2.8061   25.0555 C   0  0  0  0  0  0  0  0  0  0  0  0
  -30.4236    3.2091   26.2660 C   0  0  0  0  0  0  0  0  0  0  0  0
  -29.8200    2.8052   27.4395 C   0  0  0  0  0  0  0  0  0  0  0  0
  -28.7124    2.1029   27.4661 C   0  0  0  0  0  0  0  0  0  0  0  0
  3  7  1  0
  7  8  2  3
  8  9  1  0
  1  2  2  0
  2  6  1  0
  6  5  2  0
  5  4  1  0
  4  3  2  0
  3  1  1  0
  9 10  2  0
 10 11  1  0
 11 12  2  0
 12 13  1  0
 13 14  2  0
 14  9  1  0
M  END

$$$$
