No_1444-gen_results/8p0m/2024-11-26-14-13-15/
     RDKit          3D

 11 11  0  0  0  0  0  0  0  0999 V2000
  -28.0162   -0.8135   28.8779 C   0  0  0  0  0  0  0  0  0  0  0  0
  -28.4690   -0.7850   29.8287 C   0  0  0  0  0  0  0  0  0  0  0  0
  -26.5042   -0.7777   28.8766 C   0  0  0  0  0  0  0  0  0  0  0  0
  -25.8305   -1.6807   29.6849 C   0  0  0  0  0  0  0  0  0  0  0  0
  -28.0065   -1.6474   31.0141 C   0  0  0  0  0  0  0  0  0  0  0  0
  -26.6094   -1.9242   30.9641 C   0  0  0  0  0  0  0  0  0  0  0  0
  -29.8849   -0.5937   29.9911 O   0  0  0  0  0  0  0  0  0  0  0  0
  -30.6114   -0.8617   30.7262 C   0  0  0  0  0  0  0  0  0  0  0  0
  -31.9885   -1.1838   30.4667 C   0  0  0  0  0  0  0  0  0  0  0  0
  -32.5138   -0.6255   29.5202 O   0  0  0  0  0  0  0  0  0  0  0  0
  -32.6980   -2.1710   31.1197 N   0  0  0  0  0  0  0  0  0  0  0  0
  2  7  1  0
  7  8  1  0
  8  9  1  0
  9 10  2  0
  9 11  1  0
  1  2  2  0
  2  5  1  0
  5  6  2  0
  6  4  1  0
  4  3  2  0
  3  1  1  0
M  END

$$$$
