No_1648-gen_results/8p0m/2024-11-26-14-13-15/
     RDKit          3D

 11 12  0  0  0  0  0  0  0  0999 V2000
  -28.1229   -1.3353   28.4874 O   0  0  0  0  0  0  0  0  0  0  0  0
  -27.4806   -0.4044   28.7094 C   0  0  0  0  0  0  0  0  0  0  0  0
  -27.1904    0.2460   29.5268 C   0  0  0  0  0  0  0  0  0  0  0  0
  -26.6021   -0.1576   27.5515 N   0  0  0  0  0  0  0  0  0  0  0  0
  -25.6821    0.8355   27.5846 C   0  0  0  0  0  0  0  0  0  0  0  0
  -27.9875    0.0498   30.8883 C   0  0  0  0  0  0  0  0  0  0  0  0
  -25.5187    1.5770   28.7207 C   0  0  0  0  0  0  0  0  0  0  0  0
  -26.2243    1.3434   29.7702 C   0  0  0  0  0  0  0  0  0  0  0  0
  -27.8262    0.2818   31.8800 C   0  0  0  0  0  0  0  0  0  0  0  0
  -26.7797    1.4568   32.0824 C   0  0  0  0  0  0  0  0  0  0  0  0
  -25.9770    1.8694   31.0758 C   0  0  0  0  0  0  0  0  0  0  0  0
  1  2  2  0
  2  3  1  0
  2  4  1  0
  5  7  1  0
  8  7  1  0
  5  4  1  0
  3  6  2  0
  6  9  1  0
  9 10  2  0
 10 11  1  0
 11  8  2  0
  8  3  1  0
M  END

$$$$
