No_1260-gen_results/8p0m/2024-11-26-14-13-15/
     RDKit          3D

 23 24  0  0  0  0  0  0  0  0999 V2000
  -28.0162   -0.8135   28.8779 C   0  0  0  0  0  0  0  0  0  0  0  0
  -28.4690   -0.7850   29.8287 C   0  0  0  0  0  0  0  0  0  0  0  0
  -26.5042   -0.7777   28.8766 C   0  0  0  0  0  0  0  0  0  0  0  0
  -25.8103   -0.8531   30.1028 C   0  0  0  0  0  0  0  0  0  0  0  0
  -27.9906   -0.8916   31.2257 C   0  0  0  0  0  0  0  0  0  0  0  0
  -26.6042   -0.8676   31.2652 C   0  0  0  0  0  0  0  0  0  0  0  0
  -29.9538   -0.7893   29.6417 N   0  0  0  0  0  0  0  0  0  0  0  0
  -30.5157   -0.0312   28.8183 C   0  0  0  0  0  0  0  0  0  0  0  0
  -31.7837   -0.4577   28.4284 C   0  0  0  0  0  0  0  0  0  0  0  0
  -30.8163   -1.0358   30.8445 C   0  0  0  0  0  0  0  0  0  0  0  0
  -32.0275   -1.2498   27.5921 C   0  0  0  0  0  0  0  0  0  0  0  0
  -33.3358   -1.7966   27.1995 C   0  0  0  0  0  0  0  0  0  0  0  0
  -33.4199   -2.7933   26.1974 C   0  0  0  0  0  0  0  0  0  0  0  0
  -32.2407   -3.2740   25.6015 C   0  0  0  0  0  0  0  0  0  0  0  0
  -31.1010   -2.6325   25.6537 C   0  0  0  0  0  0  0  0  0  0  0  0
  -30.9212   -1.7390   26.6174 C   0  0  0  0  0  0  0  0  0  0  0  0
  -32.8522    0.1859   29.1955 C   0  0  0  0  0  0  0  0  0  0  0  0
  -29.9128    0.8014   28.0869 O   0  0  0  0  0  0  0  0  0  0  0  0
  -30.9661   -1.6538   31.6446 C   0  0  0  0  0  0  0  0  0  0  0  0
  -30.3084   -2.9653   31.7163 C   0  0  0  0  0  0  0  0  0  0  0  0
  -30.3602   -3.6714   32.8778 C   0  0  0  0  0  0  0  0  0  0  0  0
  -31.1861   -3.2562   33.9140 C   0  0  0  0  0  0  0  0  0  0  0  0
  -31.8657   -2.0776   33.8724 C   0  0  0  0  0  0  0  0  0  0  0  0
  2  7  1  0
  7  8  1  0
  8  9  1  0
  7 10  1  0
  9 17  1  0
  8 18  2  0
 10 19  3  0
 19 20  1  0
 20 21  2  3
 21 22  1  0
 22 23  2  0
  9 11  1  0
 11 12  2  0
 12 13  1  0
 13 14  2  0
 14 15  1  0
 15 16  2  0
 16 11  1  0
  1  2  2  0
  2  5  1  0
  5  6  2  0
  6  4  1  0
  4  3  2  0
  3  1  1  0
M  END

$$$$
