No_1828-gen_results/8p0m/2024-11-26-14-13-15/
     RDKit          3D

 20 21  0  0  0  0  0  0  0  0999 V2000
  -28.0162   -0.8135   28.8779 C   0  0  0  0  0  0  0  0  0  0  0  0
  -27.0636   -0.1190   28.6079 C   0  0  0  0  0  0  0  0  0  0  0  0
  -25.7647   -0.3897   29.0360 C   0  0  0  0  0  0  0  0  0  0  0  0
  -25.5296   -1.5302   29.9014 C   0  0  0  0  0  0  0  0  0  0  0  0
  -26.6888   -2.2893   30.1810 C   0  0  0  0  0  0  0  0  0  0  0  0
  -27.8727   -1.9508   29.7373 C   0  0  0  0  0  0  0  0  0  0  0  0
  -29.1941   -2.9228   30.2191 Cl  0  0  0  0  0  0  0  0  0  0  0  0
  -24.8139    0.5573   28.7778 F   0  0  0  0  0  0  0  0  0  0  0  0
  -27.1626    1.0598   27.8198 N   0  0  0  0  0  0  0  0  0  0  0  0
  -26.6214    1.2317   26.5972 C   0  0  0  0  0  0  0  0  0  0  0  0
  -25.6146    0.6637   26.2326 C   0  0  0  0  0  0  0  0  0  0  0  0
  -27.7792    1.0401   25.6497 C   0  0  0  0  0  0  0  0  0  0  0  0
  -27.4162    2.1618   28.6434 C   0  0  0  0  0  0  0  0  0  0  0  0
  -27.7333    0.2074   24.6319 C   0  0  0  0  0  0  0  0  0  0  0  0
  -28.8952   -0.1004   23.9038 C   0  0  0  0  0  0  0  0  0  0  0  0
  -30.0211    0.6511   24.0562 C   0  0  0  0  0  0  0  0  0  0  0  0
  -30.0822    1.6500   25.0666 C   0  0  0  0  0  0  0  0  0  0  0  0
  -28.9938    1.8434   25.8733 C   0  0  0  0  0  0  0  0  0  0  0  0
  -26.5000    3.0771   29.0958 C   0  0  0  0  0  0  0  0  0  0  0  0
  -26.8583    4.1368   29.8741 C   0  0  0  0  0  0  0  0  0  0  0  0
  6  7  1  0
  3  8  1  0
  2  9  1  0
  9 10  1  0
 10 11  1  0
 10 12  1  0
  9 13  1  0
 13 19  2  3
 19 20  1  0
 12 14  2  0
 14 15  1  0
 15 16  2  0
 16 17  1  0
 17 18  2  0
 18 12  1  0
  1  2  2  0
  2  3  1  0
  3  4  2  0
  4  5  1  0
  5  6  2  0
  6  1  1  0
M  END

$$$$
