No_1741-gen_results/8p0m/2024-11-26-14-13-15/
     RDKit          3D

 24 25  0  0  0  0  0  0  0  0999 V2000
  -28.0162   -0.8135   28.8779 C   0  0  0  0  0  0  0  0  0  0  0  0
  -28.4690   -0.7850   29.8287 C   0  0  0  0  0  0  0  0  0  0  0  0
  -27.1356    0.2359   28.5352 C   0  0  0  0  0  0  0  0  0  0  0  0
  -26.8745    1.2825   29.3982 C   0  0  0  0  0  0  0  0  0  0  0  0
  -28.3613    0.1987   30.9244 C   0  0  0  0  0  0  0  0  0  0  0  0
  -27.5277    1.2234   30.6356 C   0  0  0  0  0  0  0  0  0  0  0  0
  -26.3879    0.2914   27.2334 C   0  0  0  0  0  0  0  0  0  0  0  0
  -25.1510    0.3034   27.2565 C   0  0  0  0  0  0  0  0  0  0  0  0
  -24.2763    0.0438   28.3453 C   0  0  0  0  0  0  0  0  0  0  0  0
  -22.9638    0.5704   28.3991 C   0  0  0  0  0  0  0  0  0  0  0  0
  -22.0408    0.1384   29.3909 C   0  0  0  0  0  0  0  0  0  0  0  0
  -22.4974   -0.6344   30.4382 C   0  0  0  0  0  0  0  0  0  0  0  0
  -24.5303   -0.8813   29.4374 C   0  0  0  0  0  0  0  0  0  0  0  0
  -23.6559   -1.2256   30.3703 C   0  0  0  0  0  0  0  0  0  0  0  0
  -27.1957    0.3668   26.0725 C   0  0  0  0  0  0  0  0  0  0  0  0
  -26.5639    0.1744   25.0284 F   0  0  0  0  0  0  0  0  0  0  0  0
  -27.6744    1.6662   25.9675 F   0  0  0  0  0  0  0  0  0  0  0  0
  -28.3077   -0.3912   26.1022 F   0  0  0  0  0  0  0  0  0  0  0  0
  -27.2747    2.3383   31.6368 C   0  0  0  0  0  0  0  0  0  0  0  0
  -27.8830    3.3234   31.7321 O   0  0  0  0  0  0  0  0  0  0  0  0
  -26.1341    2.0676   32.3788 O   0  0  0  0  0  0  0  0  0  0  0  0
  -29.5095   -1.9144   30.3135 C   0  0  0  0  0  0  0  0  0  0  0  0
  -29.0867   -2.9184   30.5564 O   0  0  0  0  0  0  0  0  0  0  0  0
  -30.6728   -1.5710   30.6388 O   0  0  0  0  0  0  0  0  0  0  0  0
  3  7  1  0
  7  8  1  0
  8  9  1  0
  7 15  1  0
 15 16  1  0
 15 17  1  0
 15 18  1  0
  6 19  1  0
 19 20  2  0
 19 21  1  0
  2 22  1  0
 22 23  2  0
 22 24  1  0
  1  2  2  0
  2  5  1  0
  5  6  2  0
  6  4  1  0
  4  3  2  0
  3  1  1  0
  9 10  2  0
 10 11  1  0
 11 12  2  0
 12 14  1  0
 14 13  2  0
 13  9  1  0
M  END

$$$$
