No_16-gen_results/8p0m/2024-11-26-14-13-15/
     RDKit          3D

 21 23  0  0  0  0  0  0  0  0999 V2000
  -28.0162   -0.8135   28.8779 C   0  0  0  0  0  0  0  0  0  0  0  0
  -27.0636   -0.1189   28.6079 C   0  0  0  0  0  0  0  0  0  0  0  0
  -25.7923   -0.4302   29.0761 C   0  0  0  0  0  0  0  0  0  0  0  0
  -25.5756   -1.5654   29.9363 C   0  0  0  0  0  0  0  0  0  0  0  0
  -26.7354   -2.3004   30.2173 C   0  0  0  0  0  0  0  0  0  0  0  0
  -27.9184   -1.9537   29.7629 C   0  0  0  0  0  0  0  0  0  0  0  0
  -27.1057    1.1023   27.7593 C   0  0  0  0  0  0  0  0  0  0  0  0
  -26.7157    2.2350   27.9945 C   0  0  0  0  0  0  0  0  0  0  0  0
  -27.6806    0.8547   26.4259 C   0  0  0  0  0  0  0  0  0  0  0  0
  -26.0318    2.5935   29.1910 C   0  0  0  0  0  0  0  0  0  0  0  0
  -26.8615    3.3798   27.0755 C   0  0  0  0  0  0  0  0  0  0  0  0
  -27.4568    3.2690   25.8921 C   0  0  0  0  0  0  0  0  0  0  0  0
  -27.8759    1.9029   25.5140 C   0  0  0  0  0  0  0  0  0  0  0  0
  -26.5116    2.7363   30.4957 C   0  0  0  0  0  0  0  0  0  0  0  0
  -24.5033    2.6259   29.1215 C   0  0  0  0  0  0  0  0  0  0  0  0
  -27.6870    3.0701   30.6499 N   0  0  0  0  0  0  0  0  0  0  0  0
  -25.6757    2.5042   31.6572 C   0  0  0  0  0  0  0  0  0  0  0  0
  -28.4487    3.1250   31.4484 C   0  0  0  0  0  0  0  0  0  0  0  0
  -26.4685    2.5922   32.9354 C   0  0  0  0  0  0  0  0  0  0  0  0
  -27.8233    2.9598   32.8713 C   0  0  0  0  0  0  0  0  0  0  0  0
  -23.7489    1.8267   29.6905 O   0  0  0  0  0  0  0  0  0  0  0  0
  2  7  1  0
  8 10  1  0
 10 14  1  0
 10 15  1  0
 15 21  2  0
  1  2  2  0
  2  3  1  0
  3  4  2  0
  4  5  1  0
  5  6  2  0
  6  1  1  0
  7  8  2  0
  8 11  1  0
 11 12  2  0
 12 13  1  0
 13  9  2  0
  9  7  1  0
 14 16  2  0
 16 18  1  0
 18 20  2  0
 20 19  1  0
 19 17  2  0
 17 14  1  0
M  END

$$$$
