No_1156-gen_results/8p0m/2024-11-26-14-13-15/
     RDKit          3D

 18 20  0  0  0  0  0  0  0  0999 V2000
  -28.1229   -1.3353   28.4874 O   0  0  0  0  0  0  0  0  0  0  0  0
  -27.4806   -0.4044   28.7094 C   0  0  0  0  0  0  0  0  0  0  0  0
  -26.3804   -0.0867   27.9394 C   0  0  0  0  0  0  0  0  0  0  0  0
  -27.8993    0.6459   29.6321 N   0  0  0  0  0  0  0  0  0  0  0  0
  -26.3190    0.9178   27.1016 C   0  0  0  0  0  0  0  0  0  0  0  0
  -25.1519   -0.8370   28.1792 C   0  0  0  0  0  0  0  0  0  0  0  0
  -25.1266    1.1744   26.2946 C   0  0  0  0  0  0  0  0  0  0  0  0
  -23.8823   -0.4760   27.5957 C   0  0  0  0  0  0  0  0  0  0  0  0
  -23.9475    0.5684   26.6281 C   0  0  0  0  0  0  0  0  0  0  0  0
  -29.0765    0.3913   30.4223 C   0  0  0  0  0  0  0  0  0  0  0  0
  -27.1034    1.7507   29.9171 C   0  0  0  0  0  0  0  0  0  0  0  0
  -26.5352    1.7399   31.3010 C   0  0  0  0  0  0  0  0  0  0  0  0
  -25.5018    2.2628   31.7062 C   0  0  0  0  0  0  0  0  0  0  0  0
  -25.1025    2.3187   33.1068 C   0  0  0  0  0  0  0  0  0  0  0  0
  -26.0342    1.7741   33.9988 C   0  0  0  0  0  0  0  0  0  0  0  0
  -27.1581    1.1745   33.5691 C   0  0  0  0  0  0  0  0  0  0  0  0
  -27.4678    1.1921   32.2485 C   0  0  0  0  0  0  0  0  0  0  0  0
  -28.6476    0.4997   31.6833 C   0  0  0  0  0  0  0  0  0  0  0  0
  1  2  2  0
  2  3  1  0
  2  4  1  0
  4 10  1  0
  4 11  1  0
 11 12  1  0
 17 18  1  0
 10 18  1  0
 12 13  2  0
 13 14  1  0
 14 15  2  0
 15 16  1  0
 16 17  2  0
 17 12  1  0
  3  5  2  0
  5  7  1  0
  7  9  2  0
  9  8  1  0
  8  6  2  0
  6  3  1  0
M  END

$$$$
