No_1000-gen_results/8p0m/2024-11-26-14-13-15/
     RDKit          3D

 25 26  0  0  0  0  0  0  0  0999 V2000
  -28.0162   -0.8135   28.8779 C   0  0  0  0  0  0  0  0  0  0  0  0
  -27.0636   -0.1189   28.6079 C   0  0  0  0  0  0  0  0  0  0  0  0
  -26.9716    0.7139   27.5060 C   0  0  0  0  0  0  0  0  0  0  0  0
  -28.1053    0.7744   26.6421 C   0  0  0  0  0  0  0  0  0  0  0  0
  -29.2041    0.1179   27.0477 C   0  0  0  0  0  0  0  0  0  0  0  0
  -29.2127   -0.6088   28.1281 C   0  0  0  0  0  0  0  0  0  0  0  0
  -25.8738    1.4073   27.1728 F   0  0  0  0  0  0  0  0  0  0  0  0
  -30.3669    0.2295   26.1371 C   0  0  0  0  0  0  0  0  0  0  0  0
  -30.3063   -0.1170   24.9554 O   0  0  0  0  0  0  0  0  0  0  0  0
  -31.5495    0.5057   26.6110 O   0  0  0  0  0  0  0  0  0  0  0  0
  -28.0181   -1.6596   30.1419 C   0  0  0  0  0  0  0  0  0  0  0  0
  -27.1285   -2.4802   30.3635 O   0  0  0  0  0  0  0  0  0  0  0  0
  -29.0321   -1.6213   30.9048 O   0  0  0  0  0  0  0  0  0  0  0  0
  -27.9761    1.6580   25.4582 C   0  0  0  0  0  0  0  0  0  0  0  0
  -29.4605   -2.6933   31.6312 C   0  0  0  0  0  0  0  0  0  0  0  0
  -30.7091   -3.2920   31.3043 C   0  0  0  0  0  0  0  0  0  0  0  0
  -31.5674   -2.6814   30.6444 C   0  0  0  0  0  0  0  0  0  0  0  0
  -32.5164   -2.9462   30.2278 C   0  0  0  0  0  0  0  0  0  0  0  0
  -30.9320   -4.6766   31.5986 C   0  0  0  0  0  0  0  0  0  0  0  0
  -32.1682   -5.2239   31.1716 C   0  0  0  0  0  0  0  0  0  0  0  0
  -32.9956   -4.3555   30.4468 C   0  0  0  0  0  0  0  0  0  0  0  0
  -34.2972   -4.9083   29.9972 C   0  0  0  0  0  0  0  0  0  0  0  0
  -34.8947   -5.6905   30.6162 F   0  0  0  0  0  0  0  0  0  0  0  0
  -35.0973   -3.7635   29.7706 F   0  0  0  0  0  0  0  0  0  0  0  0
  -34.0080   -5.3453   28.7191 F   0  0  0  0  0  0  0  0  0  0  0  0
  3  7  1  0
  5  8  1  0
  8  9  2  0
  8 10  1  0
  1 11  1  0
 11 12  2  0
 11 13  1  0
  4 14  1  0
 13 15  1  0
 15 16  1  0
 21 22  1  0
 22 23  1  0
 22 24  1  0
 22 25  1  0
  1  2  2  0
  2  3  1  0
  3  4  2  0
  4  5  1  0
  5  6  2  0
  6  1  1  0
 16 17  2  0
 17 18  1  0
 18 21  2  0
 21 20  1  0
 20 19  2  0
 19 16  1  0
M  END

$$$$
