No_1635-gen_results/8p0m/2024-11-26-14-13-15/
     RDKit          3D

 15 17  0  0  0  0  0  0  0  0999 V2000
  -28.1229   -1.3353   28.4874 O   0  0  0  0  0  0  0  0  0  0  0  0
  -28.5208   -0.4363   29.0779 C   0  0  0  0  0  0  0  0  0  0  0  0
  -29.6977    0.0507   28.9764 C   0  0  0  0  0  0  0  0  0  0  0  0
  -27.4735    0.3426   29.7907 N   0  0  0  0  0  0  0  0  0  0  0  0
  -27.8125    1.4527   30.5890 C   0  0  0  0  0  0  0  0  0  0  0  0
  -30.6222   -0.3879   28.2063 C   0  0  0  0  0  0  0  0  0  0  0  0
  -29.1203    1.8292   30.4734 C   0  0  0  0  0  0  0  0  0  0  0  0
  -30.0367    1.2835   29.7459 C   0  0  0  0  0  0  0  0  0  0  0  0
  -31.6353    0.3136   27.8463 C   0  0  0  0  0  0  0  0  0  0  0  0
  -32.0600    1.4251   28.5797 C   0  0  0  0  0  0  0  0  0  0  0  0
  -31.2381    1.9331   29.4945 C   0  0  0  0  0  0  0  0  0  0  0  0
  -26.0920   -0.3153   30.0034 C   0  0  0  0  0  0  0  0  0  0  0  0
  -25.4132    0.0178   30.8213 C   0  0  0  0  0  0  0  0  0  0  0  0
  -25.5996    1.3343   31.5371 C   0  0  0  0  0  0  0  0  0  0  0  0
  -26.8553    1.9371   31.4719 C   0  0  0  0  0  0  0  0  0  0  0  0
  1  2  2  0
  2  3  1  0
  2  4  1  0
  4  5  1  0
  5  7  1  0
  4 12  1  0
 13 14  1  0
  5 15  1  0
  8  7  1  0
 15 14  1  0
 13 12  1  0
  3  6  2  0
  6  9  1  0
  9 10  2  0
 10 11  1  0
 11  8  2  0
  8  3  1  0
M  END

$$$$
