No_1237-gen_results/8p0m/2024-11-26-14-13-15/
     RDKit          3D

 14 15  0  0  0  0  0  0  0  0999 V2000
  -28.0162   -0.8135   28.8779 C   0  0  0  0  0  0  0  0  0  0  0  0
  -28.4690   -0.7850   29.8287 C   0  0  0  0  0  0  0  0  0  0  0  0
  -26.9162   -1.5644   28.7368 F   0  0  0  0  0  0  0  0  0  0  0  0
  -28.1645    0.0261   27.7584 C   0  0  0  0  0  0  0  0  0  0  0  0
  -27.1847    0.3116   26.8074 C   0  0  0  0  0  0  0  0  0  0  0  0
  -29.4669    0.1341   30.2370 C   0  0  0  0  0  0  0  0  0  0  0  0
  -29.7713    1.0006   29.1434 C   0  0  0  0  0  0  0  0  0  0  0  0
  -29.1521    1.0655   27.9542 C   0  0  0  0  0  0  0  0  0  0  0  0
  -25.7868    0.3433   27.1479 C   0  0  0  0  0  0  0  0  0  0  0  0
  -24.8702    1.1980   26.4765 C   0  0  0  0  0  0  0  0  0  0  0  0
  -23.5628    1.3691   26.9856 C   0  0  0  0  0  0  0  0  0  0  0  0
  -23.0650    0.5774   28.0322 C   0  0  0  0  0  0  0  0  0  0  0  0
  -23.9228   -0.3509   28.6328 C   0  0  0  0  0  0  0  0  0  0  0  0
  -25.2169   -0.4245   28.2583 C   0  0  0  0  0  0  0  0  0  0  0  0
  1  3  1  0
  4  5  1  0
  5  9  1  0
  1  2  2  0
  2  6  1  0
  6  7  2  0
  7  8  1  0
  8  4  2  0
  4  1  1  0
  9 10  2  0
 10 11  1  0
 11 12  2  0
 12 13  1  0
 13 14  2  0
 14  9  1  0
M  END

$$$$
