No_1697-gen_results/8p0m/2024-11-26-14-13-15/
     RDKit          3D

 10 10  0  0  0  0  0  0  0  0999 V2000
  -28.1229   -1.3353   28.4874 O   0  0  0  0  0  0  0  0  0  0  0  0
  -27.0637   -0.8242   28.8687 C   0  0  0  0  0  0  0  0  0  0  0  0
  -26.4017   -0.0623   28.6224 C   0  0  0  0  0  0  0  0  0  0  0  0
  -26.3805   -1.7991   29.9619 N   0  0  0  0  0  0  0  0  0  0  0  0
  -25.0334    0.3743   29.0484 C   0  0  0  0  0  0  0  0  0  0  0  0
  -24.2291    1.4474   28.6285 C   0  0  0  0  0  0  0  0  0  0  0  0
  -24.7930    2.2384   27.5681 C   0  0  0  0  0  0  0  0  0  0  0  0
  -26.0246    1.9553   27.0799 C   0  0  0  0  0  0  0  0  0  0  0  0
  -26.7498    0.9381   27.4878 C   0  0  0  0  0  0  0  0  0  0  0  0
  -26.7751   -2.9391   30.1498 C   0  0  0  0  0  0  0  0  0  0  0  0
  1  2  2  0
  2  3  1  0
  2  4  1  0
  4 10  2  0
  3  5  2  0
  5  6  1  0
  6  7  2  0
  7  8  1  0
  8  9  2  0
  9  3  1  0
M  END

$$$$
