No_1766-gen_results/8p0m/2024-11-26-14-13-15/
     RDKit          3D

 20 20  0  0  0  0  0  0  0  0999 V2000
  -28.0162   -0.8135   28.8779 C   0  0  0  0  0  0  0  0  0  0  0  0
  -28.4690   -0.7850   29.8287 C   0  0  0  0  0  0  0  0  0  0  0  0
  -26.5042   -0.7777   28.8766 C   0  0  0  0  0  0  0  0  0  0  0  0
  -25.8552   -1.6534   29.6136 N   0  0  0  0  0  0  0  0  0  0  0  0
  -28.1381   -1.8885   30.9026 C   0  0  0  0  0  0  0  0  0  0  0  0
  -26.5964   -2.0371   30.8532 C   0  0  0  0  0  0  0  0  0  0  0  0
  -24.6190   -2.1182   29.4263 C   0  0  0  0  0  0  0  0  0  0  0  0
  -23.4883   -1.4744   30.0916 C   0  0  0  0  0  0  0  0  0  0  0  0
  -24.3910   -3.2249   28.8374 O   0  0  0  0  0  0  0  0  0  0  0  0
  -22.5686   -0.8159   29.1642 C   0  0  0  0  0  0  0  0  0  0  0  0
  -22.0239    0.5035   29.5741 C   0  0  0  0  0  0  0  0  0  0  0  0
  -21.8257    1.2247   28.3260 C   0  0  0  0  0  0  0  0  0  0  0  0
  -28.6712   -3.1319   30.6069 O   0  0  0  0  0  0  0  0  0  0  0  0
  -28.4617   -1.5764   32.3765 C   0  0  0  0  0  0  0  0  0  0  0  0
  -28.5049   -4.2219   31.3453 C   0  0  0  0  0  0  0  0  0  0  0  0
  -29.8418   -5.1565   31.1922 C   0  0  0  0  0  0  0  0  0  0  0  0
  -30.0867   -5.8452   32.2104 C   0  0  0  0  0  0  0  0  0  0  0  0
  -30.1460   -5.4575   33.3714 C   0  0  0  0  0  0  0  0  0  0  0  0
  -30.4675   -6.3020   34.5437 C   0  0  0  0  0  0  0  0  0  0  0  0
  -30.7964   -7.5990   34.2836 C   0  0  0  0  0  0  0  0  0  0  0  0
  1  2  1  0
  1  3  1  0
  3  4  1  0
  2  5  1  0
  4  6  1  0
  5  6  1  0
  4  7  1  0
  7  8  1  0
  7  9  2  0
  8 10  1  0
 10 11  1  0
 11 12  1  0
  5 13  1  0
  5 14  1  0
 13 15  1  0
 15 16  1  0
 16 17  1  0
 17 18  2  3
 18 19  1  0
 19 20  2  0
M  END

$$$$
