No_1341-gen_results/8p0m/2024-11-26-14-13-15/
     RDKit          3D

 20 20  0  0  0  0  0  0  0  0999 V2000
  -28.0162   -0.8135   28.8779 C   0  0  0  0  0  0  0  0  0  0  0  0
  -27.0636   -0.1189   28.6079 C   0  0  0  0  0  0  0  0  0  0  0  0
  -26.9287    1.1713   29.0083 C   0  0  0  0  0  0  0  0  0  0  0  0
  -25.7702    2.0341   28.6884 C   0  0  0  0  0  0  0  0  0  0  0  0
  -24.7141    1.4431   27.9188 C   0  0  0  0  0  0  0  0  0  0  0  0
  -24.8590    0.0783   27.5836 C   0  0  0  0  0  0  0  0  0  0  0  0
  -25.9647   -0.6606   27.9164 C   0  0  0  0  0  0  0  0  0  0  0  0
  -27.9821   -1.6367   30.0748 N   0  0  0  0  0  0  0  0  0  0  0  0
  -29.2163   -0.4132   28.6627 O   0  0  0  0  0  0  0  0  0  0  0  0
  -29.0156   -2.4825   30.5856 C   0  0  0  0  0  0  0  0  0  0  0  0
  -23.5339    2.1607   27.5674 C   0  0  0  0  0  0  0  0  0  0  0  0
  -22.6620    1.7036   27.2238 F   0  0  0  0  0  0  0  0  0  0  0  0
  -23.2121    3.0001   28.6625 F   0  0  0  0  0  0  0  0  0  0  0  0
  -23.9504    3.1650   26.6664 F   0  0  0  0  0  0  0  0  0  0  0  0
  -26.6625   -2.0575   30.6196 C   0  0  0  0  0  0  0  0  0  0  0  0
  -28.9437   -3.8355   30.2829 C   0  0  0  0  0  0  0  0  0  0  0  0
  -30.2479   -4.8380   30.6680 P   0  0  0  0  0  0  0  0  0  0  0  0
  -31.3160   -3.9147   31.0226 O   0  0  0  0  0  0  0  0  0  0  0  0
  -29.8324   -5.6074   31.8770 O   0  0  0  0  0  0  0  0  0  0  0  0
  -30.4719   -5.4466   29.3609 O   0  0  0  0  0  0  0  0  0  0  0  0
  1  2  1  0
  1  8  1  0
  1  9  2  0
  8 10  1  0
  5 11  1  0
 11 12  1  0
 11 13  1  0
 11 14  1  0
  8 15  1  0
 10 16  1  0
 16 17  1  0
 17 18  1  0
 17 19  1  0
 17 20  2  0
  2  3  2  0
  3  4  1  0
  4  5  2  0
  5  6  1  0
  6  7  2  0
  7  2  1  0
M  END

$$$$
