No_1748-gen_results/8p0m/2024-11-26-14-13-15/
     RDKit          3D

 12 12  0  0  0  0  0  0  0  0999 V2000
  -28.0162   -0.8135   28.8779 C   0  0  0  0  0  0  0  0  0  0  0  0
  -27.0636   -0.1189   28.6079 C   0  0  0  0  0  0  0  0  0  0  0  0
  -26.8756    1.1325   28.9134 C   0  0  0  0  0  0  0  0  0  0  0  0
  -27.9014    1.8066   29.6436 C   0  0  0  0  0  0  0  0  0  0  0  0
  -29.0458   -0.2316   29.7181 C   0  0  0  0  0  0  0  0  0  0  0  0
  -28.9402    1.0517   30.0597 C   0  0  0  0  0  0  0  0  0  0  0  0
  -30.0593   -1.0632   30.0946 O   0  0  0  0  0  0  0  0  0  0  0  0
  -25.6684    1.9363   28.4484 C   0  0  0  0  0  0  0  0  0  0  0  0
  -24.9035    1.9175   27.6382 Cl  0  0  0  0  0  0  0  0  0  0  0  0
  -25.4375    3.0978   29.5382 C   0  0  0  0  0  0  0  0  0  0  0  0
  -25.7949    2.4645   29.4513 O   0  0  0  0  0  0  0  0  0  0  0  0
  -25.6873    1.6372   30.6835 C   0  0  0  0  0  0  0  0  0  0  0  0
  5  7  1  0
  3  8  1  0
  8  9  1  0
  8 10  1  0
 10 11  1  0
 11 12  1  0
  1  2  2  0
  2  3  1  0
  3  4  2  0
  4  6  1  0
  6  5  2  0
  5  1  1  0
M  END

$$$$
