No_1150-gen_results/8p0m/2024-11-26-14-13-15/
     RDKit          3D

 35 37  0  0  0  0  0  0  0  0999 V2000
  -28.0162   -0.8135   28.8779 C   0  0  0  0  0  0  0  0  0  0  0  0
  -28.4690   -0.7850   29.8287 C   0  0  0  0  0  0  0  0  0  0  0  0
  -28.1960    0.3478   28.0550 C   0  0  0  0  0  0  0  0  0  0  0  0
  -29.0191    1.3501   28.3782 C   0  0  0  0  0  0  0  0  0  0  0  0
  -29.4107    0.1803   30.3782 C   0  0  0  0  0  0  0  0  0  0  0  0
  -29.6059    1.2495   29.6193 C   0  0  0  0  0  0  0  0  0  0  0  0
  -27.4478    0.3799   26.7122 C   0  0  0  0  0  0  0  0  0  0  0  0
  -26.3948   -0.3659   26.7282 F   0  0  0  0  0  0  0  0  0  0  0  0
  -26.9979    1.6510   26.4073 F   0  0  0  0  0  0  0  0  0  0  0  0
  -28.2459    0.0532   25.6706 F   0  0  0  0  0  0  0  0  0  0  0  0
  -30.5442    2.3263   30.0555 C   0  0  0  0  0  0  0  0  0  0  0  0
  -30.1685    3.2120   30.7642 O   0  0  0  0  0  0  0  0  0  0  0  0
  -31.7196    2.2715   29.5087 O   0  0  0  0  0  0  0  0  0  0  0  0
  -28.2541   -2.0721   30.8191 C   0  0  0  0  0  0  0  0  0  0  0  0
  -27.5978   -3.0742   30.3681 N   0  0  0  0  0  0  0  0  0  0  0  0
  -26.3532   -3.0204   29.8576 C   0  0  0  0  0  0  0  0  0  0  0  0
  -25.4733   -1.9499   29.9220 C   0  0  0  0  0  0  0  0  0  0  0  0
  -25.8466   -4.2475   29.4984 N   0  0  0  0  0  0  0  0  0  0  0  0
  -24.1562   -2.1454   29.4382 C   0  0  0  0  0  0  0  0  0  0  0  0
  -24.6270   -4.4010   28.9480 C   0  0  0  0  0  0  0  0  0  0  0  0
  -24.1767   -5.5235   28.4497 N   0  0  0  0  0  0  0  0  0  0  0  0
  -23.6847   -3.2678   28.9083 C   0  0  0  0  0  0  0  0  0  0  0  0
  -28.3156   -4.3286   30.4093 C   0  0  0  0  0  0  0  0  0  0  0  0
  -29.8492   -4.2621   30.4996 C   0  0  0  0  0  0  0  0  0  0  0  0
  -30.4703   -5.3530   30.1106 C   0  0  0  0  0  0  0  0  0  0  0  0
  -31.8540   -5.3016   29.9608 C   0  0  0  0  0  0  0  0  0  0  0  0
  -32.5434   -4.1491   30.3928 C   0  0  0  0  0  0  0  0  0  0  0  0
  -31.8348   -3.0546   30.8657 C   0  0  0  0  0  0  0  0  0  0  0  0
  -30.4636   -3.0788   30.9114 C   0  0  0  0  0  0  0  0  0  0  0  0
  -32.6157   -1.8415   31.2611 C   0  0  0  0  0  0  0  0  0  0  0  0
  -33.0121   -1.1539   30.4449 O   0  0  0  0  0  0  0  0  0  0  0  0
  -32.3922   -1.4685   32.5117 O   0  0  0  0  0  0  0  0  0  0  0  0
  -23.2209   -0.9073   29.3988 C   0  0  0  0  0  0  0  0  0  0  0  0
  -22.7913   -0.3487   30.3090 C   0  0  0  0  0  0  0  0  0  0  0  0
  -22.0069    0.9303   30.2048 C   0  0  0  0  0  0  0  0  0  0  0  0
  3  7  1  0
  7  8  1  0
  7  9  1  0
  7 10  1  0
  6 11  1  0
 11 12  2  0
 11 13  1  0
  2 14  1  0
 14 15  1  0
 15 16  1  0
 20 21  1  0
 15 23  1  0
 23 24  1  0
 28 30  1  0
 30 31  2  0
 30 32  1  0
 19 33  1  0
 33 34  2  3
 34 35  1  0
 24 25  2  0
 25 26  1  0
 26 27  2  0
 27 28  1  0
 28 29  2  0
 29 24  1  0
 16 17  2  0
 17 19  1  0
 19 22  2  0
 22 20  1  0
 20 18  2  0
 18 16  1  0
  1  2  2  0
  2  5  1  0
  5  6  2  0
  6  4  1  0
  4  3  2  0
  3  1  1  0
M  END

$$$$
