No_1034-gen_results/8p0m/2024-11-26-14-13-15/
     RDKit          3D

  8  7  0  0  0  0  0  0  0  0999 V2000
  -28.1493   -0.8198   28.9079 Cl  0  0  0  0  0  0  0  0  0  0  0  0
  -28.5324   -0.0471   29.7727 C   0  0  0  0  0  0  0  0  0  0  0  0
  -29.6682   -0.0995   30.1894 F   0  0  0  0  0  0  0  0  0  0  0  0
  -27.6716    0.9796   30.3307 C   0  0  0  0  0  0  0  0  0  0  0  0
  -27.6814    1.3448   31.2901 C   0  0  0  0  0  0  0  0  0  0  0  0
  -26.7580    2.3849   31.9161 C   0  0  0  0  0  0  0  0  0  0  0  0
  -25.7125    2.8516   31.0490 C   0  0  0  0  0  0  0  0  0  0  0  0
  -25.6548    2.2797   29.7977 C   0  0  0  0  0  0  0  0  0  0  0  0
  1  2  1  0
  2  3  1  0
  2  4  1  0
  4  5  2  3
  5  6  1  0
  6  7  2  3
  7  8  1  0
M  END

$$$$
