No_1241-gen_results/8p0m/2024-11-26-14-13-15/
     RDKit          3D

 10 11  0  0  0  0  0  0  0  0999 V2000
  -28.0162   -0.8135   28.8779 C   0  0  0  0  0  0  0  0  0  0  0  0
  -28.4690   -0.7850   29.8287 C   0  0  0  0  0  0  0  0  0  0  0  0
  -27.1356    0.2359   28.5352 C   0  0  0  0  0  0  0  0  0  0  0  0
  -26.8745    1.2825   29.3982 C   0  0  0  0  0  0  0  0  0  0  0  0
  -27.5070    1.2380   30.6295 C   0  0  0  0  0  0  0  0  0  0  0  0
  -28.3269    0.1637   30.9240 C   0  0  0  0  0  0  0  0  0  0  0  0
  -26.4110    0.3070   27.2192 C   0  0  0  0  0  0  0  0  0  0  0  0
  -25.6218    1.4685   26.9657 C   0  0  0  0  0  0  0  0  0  0  0  0
  -25.3842    2.4307   27.8965 C   0  0  0  0  0  0  0  0  0  0  0  0
  -26.0450    2.3828   29.1207 C   0  0  0  0  0  0  0  0  0  0  0  0
  4 10  2  0
 10  9  1  0
  9  8  2  0
  8  7  1  0
  7  3  2  0
  1  2  2  0
  2  6  1  0
  6  5  2  0
  5  4  1  0
  4  3  1  0
  3  1  1  0
M  END

$$$$
