No_1265-gen_results/8p0m/2024-11-26-14-13-15/
     RDKit          3D

 25 26  0  0  0  0  0  0  0  0999 V2000
  -28.0162   -0.8135   28.8779 C   0  0  0  0  0  0  0  0  0  0  0  0
  -27.0636   -0.1189   28.6079 C   0  0  0  0  0  0  0  0  0  0  0  0
  -26.9716    0.7139   27.5060 C   0  0  0  0  0  0  0  0  0  0  0  0
  -28.1053    0.7744   26.6421 C   0  0  0  0  0  0  0  0  0  0  0  0
  -29.2008    0.1044   27.0527 C   0  0  0  0  0  0  0  0  0  0  0  0
  -29.2096   -0.6029   28.1853 C   0  0  0  0  0  0  0  0  0  0  0  0
  -30.5115    0.2088   25.9012 Cl  0  0  0  0  0  0  0  0  0  0  0  0
  -25.8730   -0.1869   29.3768 F   0  0  0  0  0  0  0  0  0  0  0  0
  -28.2796   -1.6313   30.0932 C   0  0  0  0  0  0  0  0  0  0  0  0
  -28.3764   -1.0973   31.2248 O   0  0  0  0  0  0  0  0  0  0  0  0
  -28.1309   -2.9091   30.0296 O   0  0  0  0  0  0  0  0  0  0  0  0
  -27.9384    1.7793   25.2311 Cl  0  0  0  0  0  0  0  0  0  0  0  0
  -25.3653    1.4067   27.1035 Cl  0  0  0  0  0  0  0  0  0  0  0  0
  -29.2451   -1.5849   32.1674 C   0  0  0  0  0  0  0  0  0  0  0  0
  -29.1742   -0.9881   33.4032 C   0  0  0  0  0  0  0  0  0  0  0  0
  -28.3258    0.0996   33.5693 C   0  0  0  0  0  0  0  0  0  0  0  0
  -28.0942    0.6187   34.8633 C   0  0  0  0  0  0  0  0  0  0  0  0
  -27.2057    1.7662   35.0677 C   0  0  0  0  0  0  0  0  0  0  0  0
  -26.5620    2.3429   33.9195 C   0  0  0  0  0  0  0  0  0  0  0  0
  -26.7645    1.7170   32.6547 C   0  0  0  0  0  0  0  0  0  0  0  0
  -27.5910    0.6691   32.5496 C   0  0  0  0  0  0  0  0  0  0  0  0
  -26.0075    2.3332   31.5361 C   0  0  0  0  0  0  0  0  0  0  0  0
  -26.5182    3.2441   30.8109 N   0  0  0  0  0  0  0  0  0  0  0  0
  -25.8079    3.7793   29.7855 C   0  0  0  0  0  0  0  0  0  0  0  0
  -26.4348    4.8735   28.9935 C   0  0  0  0  0  0  0  0  0  0  0  0
  5  7  1  0
  2  8  1  0
  1  9  1  0
  9 10  1  0
  9 11  2  0
  4 12  1  0
  3 13  1  0
 10 14  1  0
 14 15  2  3
 15 16  1  0
 20 22  1  0
 22 23  2  3
 23 24  1  0
 24 25  2  0
  1  2  2  0
  2  3  1  0
  3  4  2  0
  4  5  1  0
  5  6  2  0
  6  1  1  0
 16 17  2  0
 17 18  1  0
 18 19  2  0
 19 20  1  0
 20 21  2  0
 21 16  1  0
M  END

$$$$
