No_1626-gen_results/8p0m/2024-11-26-14-13-15/
     RDKit          3D

 35 39  0  0  0  0  0  0  0  0999 V2000
  -28.0162   -0.8135   28.8779 C   0  0  0  0  0  0  0  0  0  0  0  0
  -28.4690   -0.7850   29.8287 C   0  0  0  0  0  0  0  0  0  0  0  0
  -27.1356    0.2359   28.5352 C   0  0  0  0  0  0  0  0  0  0  0  0
  -26.8745    1.2825   29.3982 C   0  0  0  0  0  0  0  0  0  0  0  0
  -28.3613    0.1987   30.9244 C   0  0  0  0  0  0  0  0  0  0  0  0
  -27.5277    1.2234   30.6356 C   0  0  0  0  0  0  0  0  0  0  0  0
  -26.3879    0.2914   27.2334 C   0  0  0  0  0  0  0  0  0  0  0  0
  -25.9210    1.4278   27.1199 F   0  0  0  0  0  0  0  0  0  0  0  0
  -25.4260   -0.6253   27.2072 F   0  0  0  0  0  0  0  0  0  0  0  0
  -27.1530    0.1872   26.1225 F   0  0  0  0  0  0  0  0  0  0  0  0
  -29.4004   -2.0190   30.3273 C   0  0  0  0  0  0  0  0  0  0  0  0
  -30.4718   -2.0019   30.0416 O   0  0  0  0  0  0  0  0  0  0  0  0
  -28.8327   -3.0168   30.9835 O   0  0  0  0  0  0  0  0  0  0  0  0
  -27.2829    2.3359   31.6095 C   0  0  0  0  0  0  0  0  0  0  0  0
  -27.4790    2.3732   32.6901 O   0  0  0  0  0  0  0  0  0  0  0  0
  -26.6105    3.3793   30.9865 O   0  0  0  0  0  0  0  0  0  0  0  0
  -26.5835    4.0545   30.2311 C   0  0  0  0  0  0  0  0  0  0  0  0
  -26.6521    5.4570   30.3760 C   0  0  0  0  0  0  0  0  0  0  0  0
  -26.5150    6.3270   29.2365 C   0  0  0  0  0  0  0  0  0  0  0  0
  -26.2536    5.7505   27.9729 C   0  0  0  0  0  0  0  0  0  0  0  0
  -26.0700    4.4125   27.8248 C   0  0  0  0  0  0  0  0  0  0  0  0
  -26.2073    3.6509   28.8676 C   0  0  0  0  0  0  0  0  0  0  0  0
  -26.9242    2.3983   28.7086 O   0  0  0  0  0  0  0  0  0  0  0  0
  -26.9089    6.0759   31.6458 C   0  0  0  0  0  0  0  0  0  0  0  0
  -26.1158    6.2915   32.4119 C   0  0  0  0  0  0  0  0  0  0  0  0
  -26.3042    6.8732   33.7862 C   0  0  0  0  0  0  0  0  0  0  0  0
  -28.2659    6.2639   31.9295 C   0  0  0  0  0  0  0  0  0  0  0  0
  -28.6651    6.7588   33.2261 C   0  0  0  0  0  0  0  0  0  0  0  0
  -27.6466    7.0724   34.1233 C   0  0  0  0  0  0  0  0  0  0  0  0
  -24.5337    6.1598   32.2452 C   0  0  0  0  0  0  0  0  0  0  0  0
  -23.6943    7.0928   32.7508 C   0  0  0  0  0  0  0  0  0  0  0  0
  -23.7595    7.2519   34.1441 C   0  0  0  0  0  0  0  0  0  0  0  0
  -25.2275    7.4746   34.6502 C   0  0  0  0  0  0  0  0  0  0  0  0
  -26.6196    7.7943   29.4079 C   0  0  0  0  0  0  0  0  0  0  0  0
  -26.2414    8.6545   28.7281 C   0  0  0  0  0  0  0  0  0  0  0  0
  3  7  1  0
  7  8  1  0
  7  9  1  0
  7 10  1  0
  2 11  1  0
 11 12  2  0
 11 13  1  0
  6 14  1  0
 14 15  2  0
 14 16  1  0
 16 17  1  0
  4 23  1  0
 22 23  1  0
 18 24  1  0
 19 34  1  0
 34 35  2  0
 17 18  2  0
 18 19  1  0
 19 20  2  0
 20 21  1  0
 21 22  2  0
 22 17  1  0
 26 33  1  0
 33 32  2  0
 32 31  1  0
 31 30  2  0
 30 25  1  0
 24 25  2  0
 25 26  1  0
 26 29  2  0
 29 28  1  0
 28 27  2  0
 27 24  1  0
  1  2  2  0
  2  5  1  0
  5  6  2  0
  6  4  1  0
  4  3  2  0
  3  1  1  0
M  END

$$$$
