No_1787-gen_results/8p0m/2024-11-26-14-13-15/
     RDKit          3D

 35 38  0  0  0  0  0  0  0  0999 V2000
  -28.1229   -1.3353   28.4874 O   0  0  0  0  0  0  0  0  0  0  0  0
  -27.4806   -0.4044   28.7094 C   0  0  0  0  0  0  0  0  0  0  0  0
  -26.4599   -0.1104   28.0051 N   0  0  0  0  0  0  0  0  0  0  0  0
  -25.4297    0.8788   28.3572 C   0  0  0  0  0  0  0  0  0  0  0  0
  -24.3600    1.0559   27.5650 C   0  0  0  0  0  0  0  0  0  0  0  0
  -27.7374    0.5007   29.9644 C   0  0  0  0  0  0  0  0  0  0  0  0
  -24.3412    1.6188   26.4311 C   0  0  0  0  0  0  0  0  0  0  0  0
  -23.1172    1.8808   25.6302 C   0  0  0  0  0  0  0  0  0  0  0  0
  -22.0414    2.0892   26.4860 C   0  0  0  0  0  0  0  0  0  0  0  0
  -21.9176    1.6537   27.7799 C   0  0  0  0  0  0  0  0  0  0  0  0
  -23.0844    1.2405   28.3648 C   0  0  0  0  0  0  0  0  0  0  0  0
  -25.6810    1.5283   29.6004 C   0  0  0  0  0  0  0  0  0  0  0  0
  -26.8093    1.3800   30.3995 C   0  0  0  0  0  0  0  0  0  0  0  0
  -28.9300    0.0721   30.7114 C   0  0  0  0  0  0  0  0  0  0  0  0
  -29.7072    1.1669   31.0962 C   0  0  0  0  0  0  0  0  0  0  0  0
  -30.7679    0.8253   31.8917 C   0  0  0  0  0  0  0  0  0  0  0  0
  -31.0922   -0.5179   32.1483 C   0  0  0  0  0  0  0  0  0  0  0  0
  -30.3048   -1.5469   31.6914 C   0  0  0  0  0  0  0  0  0  0  0  0
  -29.1704   -1.2445   30.9893 C   0  0  0  0  0  0  0  0  0  0  0  0
  -22.9994    0.8546   29.8091 C   0  0  0  0  0  0  0  0  0  0  0  0
  -22.9447   -0.2709   30.1605 O   0  0  0  0  0  0  0  0  0  0  0  0
  -23.0717    1.8925   30.6526 O   0  0  0  0  0  0  0  0  0  0  0  0
  -31.8381    2.0624   32.4254 Cl  0  0  0  0  0  0  0  0  0  0  0  0
  -25.4014    1.4399   25.5911 O   0  0  0  0  0  0  0  0  0  0  0  0
  -25.6571    0.3905   24.7288 C   0  0  0  0  0  0  0  0  0  0  0  0
  -26.9590   -0.1970   24.9492 C   0  0  0  0  0  0  0  0  0  0  0  0
  -28.0015    0.4831   24.3575 C   0  0  0  0  0  0  0  0  0  0  0  0
  -29.3347   -0.0170   24.4545 C   0  0  0  0  0  0  0  0  0  0  0  0
  -30.4738    0.5902   24.6453 C   0  0  0  0  0  0  0  0  0  0  0  0
  -30.5106    1.5785   25.0406 C   0  0  0  0  0  0  0  0  0  0  0  0
  -29.2747    2.4997   25.0218 C   0  0  0  0  0  0  0  0  0  0  0  0
  -27.9603    1.6780   23.8376 C   0  0  0  0  0  0  0  0  0  0  0  0
  -31.7216    2.5069   25.3402 C   0  0  0  0  0  0  0  0  0  0  0  0
  -31.8279    3.9170   26.3812 Br  0  0  0  0  0  0  0  0  0  0  0  0
  -32.9566    1.9408   25.5946 C   0  0  0  0  0  0  0  0  0  0  0  0
  1  2  2  0
  2  3  1  0
  3  4  1  0
  4  5  1  0
  2  6  1  0
  4 12  1  0
  6 14  1  0
 11 20  1  0
 20 21  1  0
 20 22  2  0
 16 23  1  0
  7 24  1  0
 24 25  1  0
 25 26  1  0
 26 27  1  0
 30 33  1  0
 33 34  1  0
 33 35  1  0
 12 13  1  0
 13  6  1  0
  5  7  1  0
  7  8  2  0
  8  9  1  0
  9 10  2  0
 10 11  1  0
 11  5  2  0
 27 28  2  0
 28 29  1  0
 29 30  2  0
 30 31  1  0
 31 32  2  0
 32 27  1  0
 14 15  2  0
 15 16  1  0
 16 17  2  0
 17 18  1  0
 18 19  2  0
 19 14  1  0
M  END

$$$$
