No_1384-gen_results/8p0m/2024-11-26-14-13-15/
     RDKit          3D

 14 14  0  0  0  0  0  0  0  0999 V2000
  -28.0162   -0.8135   28.8779 C   0  0  0  0  0  0  0  0  0  0  0  0
  -28.4690   -0.7850   29.8287 C   0  0  0  0  0  0  0  0  0  0  0  0
  -27.0871    0.2903   28.6377 C   0  0  0  0  0  0  0  0  0  0  0  0
  -26.8317    1.2487   29.5869 C   0  0  0  0  0  0  0  0  0  0  0  0
  -28.3914    0.0801   31.0065 C   0  0  0  0  0  0  0  0  0  0  0  0
  -27.4940    1.1521   30.7841 C   0  0  0  0  0  0  0  0  0  0  0  0
  -26.2087    0.3944   27.1645 Cl  0  0  0  0  0  0  0  0  0  0  0  0
  -29.4742   -1.9977   30.2381 C   0  0  0  0  0  0  0  0  0  0  0  0
  -29.1508   -3.2186   30.3050 O   0  0  0  0  0  0  0  0  0  0  0  0
  -30.7402   -1.7555   30.4816 O   0  0  0  0  0  0  0  0  0  0  0  0
  -25.8142    2.2157   29.1596 C   0  0  0  0  0  0  0  0  0  0  0  0
  -24.4491    2.0032   29.2328 C   0  0  0  0  0  0  0  0  0  0  0  0
  -23.6133    2.4213   28.2620 N   0  0  0  0  0  0  0  0  0  0  0  0
  -23.9176    1.3666   30.2550 O   0  0  0  0  0  0  0  0  0  0  0  0
  3  7  1  0
  2  8  1  0
  8  9  2  0
  8 10  1  0
  4 11  1  0
 11 12  1  0
 12 13  1  0
 12 14  2  0
  1  2  2  0
  2  5  1  0
  5  6  2  0
  6  4  1  0
  4  3  2  0
  3  1  1  0
M  END

$$$$
