No_1437-gen_results/8p0m/2024-11-26-14-13-15/
     RDKit          3D

 21 23  0  0  0  0  0  0  0  0999 V2000
  -28.0162   -0.8135   28.8779 C   0  0  0  0  0  0  0  0  0  0  0  0
  -28.4690   -0.7850   29.8287 C   0  0  0  0  0  0  0  0  0  0  0  0
  -28.1816    0.4277   28.1134 C   0  0  0  0  0  0  0  0  0  0  0  0
  -27.4498    0.6435   26.8500 C   0  0  0  0  0  0  0  0  0  0  0  0
  -27.8596    1.4573   25.9076 C   0  0  0  0  0  0  0  0  0  0  0  0
  -29.4263    0.1097   30.4178 C   0  0  0  0  0  0  0  0  0  0  0  0
  -29.6233    1.2198   29.7351 C   0  0  0  0  0  0  0  0  0  0  0  0
  -28.9609    1.4529   28.5513 C   0  0  0  0  0  0  0  0  0  0  0  0
  -28.7869    2.5467   26.3167 C   0  0  0  0  0  0  0  0  0  0  0  0
  -29.4265    2.4288   27.5639 C   0  0  0  0  0  0  0  0  0  0  0  0
  -26.2731   -0.5166   26.3400 Cl  0  0  0  0  0  0  0  0  0  0  0  0
  -28.2282   -2.1332   30.8086 C   0  0  0  0  0  0  0  0  0  0  0  0
  -28.3968   -3.0804   30.4613 O   0  0  0  0  0  0  0  0  0  0  0  0
  -27.7254   -1.7889   32.0253 O   0  0  0  0  0  0  0  0  0  0  0  0
  -30.5242    2.1386   30.1963 O   0  0  0  0  0  0  0  0  0  0  0  0
  -30.0632    3.2058   30.8615 C   0  0  0  0  0  0  0  0  0  0  0  0
  -30.7383    3.5004   32.0449 C   0  0  0  0  0  0  0  0  0  0  0  0
  -30.2263    4.4900   32.7726 C   0  0  0  0  0  0  0  0  0  0  0  0
  -28.9451    3.9481   30.5322 C   0  0  0  0  0  0  0  0  0  0  0  0
  -28.4494    4.9684   31.2567 C   0  0  0  0  0  0  0  0  0  0  0  0
  -29.1410    5.2938   32.4496 C   0  0  0  0  0  0  0  0  0  0  0  0
  4 11  1  0
  2 12  1  0
 12 13  2  0
 12 14  1  0
  7 15  1  0
 15 16  1  0
  3  4  2  0
  4  5  1  0
  5  9  2  0
  9 10  1  0
 10  8  2  0
 16 17  2  0
 17 18  1  0
 18 21  2  0
 21 20  1  0
 20 19  2  0
 19 16  1  0
  1  2  2  0
  2  6  1  0
  6  7  2  0
  7  8  1  0
  8  3  1  0
  3  1  1  0
M  END

$$$$
