No_1016-gen_results/8p0m/2024-11-26-14-13-15/
     RDKit          3D

 16 17  0  0  0  0  0  0  0  0999 V2000
  -28.0162   -0.8135   28.8779 C   0  0  0  0  0  0  0  0  0  0  0  0
  -28.4690   -0.7850   29.8287 C   0  0  0  0  0  0  0  0  0  0  0  0
  -26.5042   -0.7777   28.8766 C   0  0  0  0  0  0  0  0  0  0  0  0
  -25.9150   -0.6580   29.9230 C   0  0  0  0  0  0  0  0  0  0  0  0
  -30.0078   -0.8570   29.8768 C   0  0  0  0  0  0  0  0  0  0  0  0
  -26.5279   -0.6329   31.1908 C   0  0  0  0  0  0  0  0  0  0  0  0
  -27.9294   -0.7307   31.1655 C   0  0  0  0  0  0  0  0  0  0  0  0
  -30.6244   -1.7404   30.3461 O   0  0  0  0  0  0  0  0  0  0  0  0
  -30.6724    0.1390   29.1922 N   0  0  0  0  0  0  0  0  0  0  0  0
  -32.0879    0.0903   29.0215 C   0  0  0  0  0  0  0  0  0  0  0  0
  -29.9821    1.2776   28.6039 C   0  0  0  0  0  0  0  0  0  0  0  0
  -30.2033    2.4806   29.3573 C   0  0  0  0  0  0  0  0  0  0  0  0
  -29.4420    3.4459   29.0242 C   0  0  0  0  0  0  0  0  0  0  0  0
  -28.4935    3.4749   27.9284 C   0  0  0  0  0  0  0  0  0  0  0  0
  -28.3792    2.2895   27.2471 C   0  0  0  0  0  0  0  0  0  0  0  0
  -29.0669    1.1478   27.6447 C   0  0  0  0  0  0  0  0  0  0  0  0
  2  5  1  0
  5  8  2  0
  5  9  1  0
  9 10  1  0
  9 11  1  0
 11 12  2  0
 12 13  1  0
 13 14  2  0
 14 15  1  0
 15 16  2  0
 16 11  1  0
  1  2  2  0
  2  7  1  0
  7  6  2  0
  6  4  1  0
  4  3  2  0
  3  1  1  0
M  END

$$$$
