No_1859-gen_results/8p0m/2024-11-26-14-13-15/
     RDKit          3D

 29 31  0  0  0  0  0  0  0  0999 V2000
  -28.0162   -0.8135   28.8779 C   0  0  0  0  0  0  0  0  0  0  0  0
  -27.0636   -0.1189   28.6079 C   0  0  0  0  0  0  0  0  0  0  0  0
  -26.9287    1.1713   29.0083 C   0  0  0  0  0  0  0  0  0  0  0  0
  -25.7702    2.0341   28.6884 C   0  0  0  0  0  0  0  0  0  0  0  0
  -24.7141    1.4431   27.9188 C   0  0  0  0  0  0  0  0  0  0  0  0
  -24.8590    0.0783   27.5836 C   0  0  0  0  0  0  0  0  0  0  0  0
  -25.9647   -0.6606   27.9164 C   0  0  0  0  0  0  0  0  0  0  0  0
  -27.9820   -1.6112   30.1028 N   0  0  0  0  0  0  0  0  0  0  0  0
  -23.5351    2.1704   27.5550 C   0  0  0  0  0  0  0  0  0  0  0  0
  -22.3779    2.1928   27.8323 N   0  0  0  0  0  0  0  0  0  0  0  0
  -23.8244    2.9997   26.2855 C   0  0  0  0  0  0  0  0  0  0  0  0
  -29.2177   -0.4074   28.6711 O   0  0  0  0  0  0  0  0  0  0  0  0
  -29.0426   -2.4695   30.6129 C   0  0  0  0  0  0  0  0  0  0  0  0
  -26.6711   -2.0210   30.6732 C   0  0  0  0  0  0  0  0  0  0  0  0
  -29.8595   -2.8745   29.9615 C   0  0  0  0  0  0  0  0  0  0  0  0
  -30.6805   -4.0420   30.4947 C   0  0  0  0  0  0  0  0  0  0  0  0
  -30.3049   -4.8202   31.0453 C   0  0  0  0  0  0  0  0  0  0  0  0
  -29.0685   -4.5777   31.9488 C   0  0  0  0  0  0  0  0  0  0  0  0
  -28.5836   -3.2877   31.8034 C   0  0  0  0  0  0  0  0  0  0  0  0
  -21.9841    1.2894   28.8213 C   0  0  0  0  0  0  0  0  0  0  0  0
  -20.8279    0.3990   28.4378 C   0  0  0  0  0  0  0  0  0  0  0  0
  -22.6252    1.1050   29.8437 O   0  0  0  0  0  0  0  0  0  0  0  0
  -31.9173   -4.3243   29.5214 C   0  0  0  0  0  0  0  0  0  0  0  0
  -32.7908   -3.5852   29.2616 O   0  0  0  0  0  0  0  0  0  0  0  0
  -31.9367   -5.5594   28.8340 N   0  0  0  0  0  0  0  0  0  0  0  0
  -30.9361   -6.5199   28.9024 C   0  0  0  0  0  0  0  0  0  0  0  0
  -33.0650   -5.9326   28.0517 C   0  0  0  0  0  0  0  0  0  0  0  0
  -31.4280   -7.8324   28.7071 C   0  0  0  0  0  0  0  0  0  0  0  0
  -32.4310   -7.6723   27.7572 C   0  0  0  0  0  0  0  0  0  0  0  0
  1  2  1  0
  1  8  1  0
  5  9  1  0
  9 10  2  3
  9 11  1  0
  1 12  2  0
  8 13  1  0
  8 14  1  0
 10 20  1  0
 20 21  1  0
 20 22  2  0
 16 23  1  0
 23 24  2  0
 23 25  1  0
 25 26  1  0
 25 27  1  0
 26 28  1  0
 27 29  2  0
 28 29  2  0
  2  3  2  0
  3  4  1  0
  4  5  2  0
  5  6  1  0
  6  7  2  0
  7  2  1  0
 13 15  2  0
 15 16  1  0
 16 17  2  0
 17 18  1  0
 18 19  2  0
 19 13  1  0
M  END

$$$$
