No_1371-gen_results/8p0m/2024-11-26-14-13-15/
     RDKit          3D

 27 29  0  0  0  0  0  0  0  0999 V2000
  -28.1493   -0.8198   28.9079 Cl  0  0  0  0  0  0  0  0  0  0  0  0
  -28.5324   -0.0471   29.7727 C   0  0  0  0  0  0  0  0  0  0  0  0
  -29.7006    0.0350   30.2420 C   0  0  0  0  0  0  0  0  0  0  0  0
  -27.5805    1.1366   30.1199 C   0  0  0  0  0  0  0  0  0  0  0  0
  -26.2775    1.2440   29.6271 C   0  0  0  0  0  0  0  0  0  0  0  0
  -26.0612    1.7985   28.5388 C   0  0  0  0  0  0  0  0  0  0  0  0
  -25.3134    1.8583   27.8492 C   0  0  0  0  0  0  0  0  0  0  0  0
  -23.9361    1.1871   28.2171 C   0  0  0  0  0  0  0  0  0  0  0  0
  -24.0073    0.5914   29.4815 C   0  0  0  0  0  0  0  0  0  0  0  0
  -25.1886    0.5407   30.2193 C   0  0  0  0  0  0  0  0  0  0  0  0
  -30.0237    0.9541   31.2087 N   0  0  0  0  0  0  0  0  0  0  0  0
  -28.2333    1.9600   31.1794 C   0  0  0  0  0  0  0  0  0  0  0  0
  -29.3545    1.9043   31.6767 C   0  0  0  0  0  0  0  0  0  0  0  0
  -22.7153    1.3130   27.4576 C   0  0  0  0  0  0  0  0  0  0  0  0
  -21.7525    0.7286   27.9992 F   0  0  0  0  0  0  0  0  0  0  0  0
  -22.3159    2.7271   27.4335 F   0  0  0  0  0  0  0  0  0  0  0  0
  -22.9699    1.0461   26.1783 F   0  0  0  0  0  0  0  0  0  0  0  0
  -27.2084    3.0702   31.6280 C   0  0  0  0  0  0  0  0  0  0  0  0
  -27.7435    4.1839   31.9810 C   0  0  0  0  0  0  0  0  0  0  0  0
  -26.8970    5.2199   32.3693 C   0  0  0  0  0  0  0  0  0  0  0  0
  -25.4710    5.1372   32.3225 C   0  0  0  0  0  0  0  0  0  0  0  0
  -24.9360    3.8841   31.9384 C   0  0  0  0  0  0  0  0  0  0  0  0
  -25.7854    2.8759   31.5832 C   0  0  0  0  0  0  0  0  0  0  0  0
  -24.5591    6.2033   32.7977 C   0  0  0  0  0  0  0  0  0  0  0  0
  -24.9130    7.0343   33.3022 O   0  0  0  0  0  0  0  0  0  0  0  0
  -23.2830    5.7994   32.9115 O   0  0  0  0  0  0  0  0  0  0  0  0
  -29.8539    2.6734   32.5281 O   0  0  0  0  0  0  0  0  0  0  0  0
  1  2  1  0
  2  4  1  0
  4  5  1  0
  4 12  1  0
 11 13  1  0
 12 13  1  0
  8 14  1  0
 14 15  1  0
 14 16  1  0
 14 17  1  0
 12 18  1  0
 21 24  1  0
 24 25  1  0
 24 26  2  0
 13 27  2  0
 11  3  1  0
  3  2  1  0
 18 19  2  0
 19 20  1  0
 20 21  2  0
 21 22  1  0
 22 23  2  0
 23 18  1  0
  5  6  2  0
  6  7  1  0
  7  8  2  0
  8  9  1  0
  9 10  2  0
 10  5  1  0
M  END

$$$$
