No_1577-gen_results/8p0m/2024-11-26-14-13-15/
     RDKit          3D

 22 23  0  0  0  0  0  0  0  0999 V2000
  -28.0162   -0.8135   28.8779 C   0  0  0  0  0  0  0  0  0  0  0  0
  -27.0636   -0.1190   28.6079 C   0  0  0  0  0  0  0  0  0  0  0  0
  -25.7923   -0.4302   29.0761 C   0  0  0  0  0  0  0  0  0  0  0  0
  -24.5456    0.3494   28.8225 C   0  0  0  0  0  0  0  0  0  0  0  0
  -23.2409    0.0217   29.3323 C   0  0  0  0  0  0  0  0  0  0  0  0
  -27.8820   -1.8995   29.8633 C   0  0  0  0  0  0  0  0  0  0  0  0
  -26.6706   -2.3272   30.3212 C   0  0  0  0  0  0  0  0  0  0  0  0
  -25.5433   -1.5852   29.9316 C   0  0  0  0  0  0  0  0  0  0  0  0
  -22.1884    0.8224   28.9928 C   0  0  0  0  0  0  0  0  0  0  0  0
  -22.1616    1.7773   28.0238 C   0  0  0  0  0  0  0  0  0  0  0  0
  -24.5484    1.3977   27.8309 C   0  0  0  0  0  0  0  0  0  0  0  0
  -23.3870    2.0761   27.4709 C   0  0  0  0  0  0  0  0  0  0  0  0
  -29.2607   -2.8329   30.3477 Cl  0  0  0  0  0  0  0  0  0  0  0  0
  -23.5158    3.0367   26.5197 O   0  0  0  0  0  0  0  0  0  0  0  0
  -24.8335    3.4837   26.2589 C   0  0  0  0  0  0  0  0  0  0  0  0
  -27.1793    0.9015   27.7547 F   0  0  0  0  0  0  0  0  0  0  0  0
  -29.2970   -0.5895   28.5222 O   0  0  0  0  0  0  0  0  0  0  0  0
  -29.4908    0.3720   27.5917 C   0  0  0  0  0  0  0  0  0  0  0  0
  -30.4234    0.4362   26.9037 C   0  0  0  0  0  0  0  0  0  0  0  0
  -30.6535    1.4669   25.9119 C   0  0  0  0  0  0  0  0  0  0  0  0
  -29.6343    2.4669   25.7792 C   0  0  0  0  0  0  0  0  0  0  0  0
  -28.5451    2.4461   26.5958 C   0  0  0  0  0  0  0  0  0  0  0  0
  3  4  1  0
  6 13  1  0
 12 14  1  0
 14 15  1  0
  2 16  1  0
  1 17  1  0
 17 18  1  0
 18 19  2  3
 19 20  1  0
 20 21  2  3
 21 22  1  0
  1  2  2  0
  2  3  1  0
  3  8  2  0
  8  7  1  0
  7  6  2  0
  6  1  1  0
  4  5  2  0
  5  9  1  0
  9 10  2  0
 10 12  1  0
 12 11  2  0
 11  4  1  0
M  END

$$$$
