No_1698-gen_results/8p0m/2024-11-26-14-13-15/
     RDKit          3D

 17 18  0  0  0  0  0  0  0  0999 V2000
  -28.0162   -0.8135   28.8779 C   0  0  0  0  0  0  0  0  0  0  0  0
  -27.0636   -0.1189   28.6079 C   0  0  0  0  0  0  0  0  0  0  0  0
  -26.9287    1.1713   29.0083 C   0  0  0  0  0  0  0  0  0  0  0  0
  -27.9560    1.7411   29.7840 C   0  0  0  0  0  0  0  0  0  0  0  0
  -29.0569   -0.3271   29.7466 C   0  0  0  0  0  0  0  0  0  0  0  0
  -28.9828    0.9722   30.1516 C   0  0  0  0  0  0  0  0  0  0  0  0
  -25.9911   -0.6119   27.8566 O   0  0  0  0  0  0  0  0  0  0  0  0
  -24.6317   -0.3327   28.2530 C   0  0  0  0  0  0  0  0  0  0  0  0
  -23.9205   -1.2516   28.9900 C   0  0  0  0  0  0  0  0  0  0  0  0
  -22.6222   -0.9519   29.3203 C   0  0  0  0  0  0  0  0  0  0  0  0
  -24.0886    0.9101   27.8946 C   0  0  0  0  0  0  0  0  0  0  0  0
  -22.8136    1.2494   28.3161 C   0  0  0  0  0  0  0  0  0  0  0  0
  -22.0361    0.3303   28.9994 C   0  0  0  0  0  0  0  0  0  0  0  0
  -30.0438   -1.1276   30.1004 F   0  0  0  0  0  0  0  0  0  0  0  0
  -24.4018   -2.5506   29.2812 C   0  0  0  0  0  0  0  0  0  0  0  0
  -25.1934   -3.0561   28.8688 O   0  0  0  0  0  0  0  0  0  0  0  0
  -23.6967   -3.1898   30.2484 O   0  0  0  0  0  0  0  0  0  0  0  0
  2  7  1  0
  7  8  1  0
  5 14  1  0
  9 15  1  0
 15 16  2  0
 15 17  1  0
  8  9  2  0
  9 10  1  0
 10 13  2  0
 13 12  1  0
 12 11  2  0
 11  8  1  0
  1  2  2  0
  2  3  1  0
  3  4  2  0
  4  6  1  0
  6  5  2  0
  5  1  1  0
M  END

$$$$
