No_1046-gen_results/8p0m/2024-11-26-14-13-15/
     RDKit          3D

 28 30  0  0  0  0  0  0  0  0999 V2000
  -28.1229   -1.3353   28.4874 O   0  0  0  0  0  0  0  0  0  0  0  0
  -27.4806   -0.4044   28.7094 C   0  0  0  0  0  0  0  0  0  0  0  0
  -26.3804   -0.0867   27.9394 C   0  0  0  0  0  0  0  0  0  0  0  0
  -27.6664    0.4468   29.8988 N   0  0  0  0  0  0  0  0  0  0  0  0
  -26.4086    0.8567   26.8802 C   0  0  0  0  0  0  0  0  0  0  0  0
  -25.2466    1.1198   26.1102 C   0  0  0  0  0  0  0  0  0  0  0  0
  -23.9991    0.7500   26.5964 C   0  0  0  0  0  0  0  0  0  0  0  0
  -23.9411    0.0388   27.7865 C   0  0  0  0  0  0  0  0  0  0  0  0
  -25.0420   -0.3844   28.4675 C   0  0  0  0  0  0  0  0  0  0  0  0
  -28.7623    0.1142   30.7677 C   0  0  0  0  0  0  0  0  0  0  0  0
  -26.8511    1.5212   30.2105 C   0  0  0  0  0  0  0  0  0  0  0  0
  -26.3258    1.6272   31.1634 C   0  0  0  0  0  0  0  0  0  0  0  0
  -25.3945    2.7864   31.4181 C   0  0  0  0  0  0  0  0  0  0  0  0
  -25.1281    3.6371   30.3383 C   0  0  0  0  0  0  0  0  0  0  0  0
  -25.7620    3.3921   29.1189 C   0  0  0  0  0  0  0  0  0  0  0  0
  -26.6358    2.3526   29.0286 C   0  0  0  0  0  0  0  0  0  0  0  0
  -25.4484    4.4033   28.0719 C   0  0  0  0  0  0  0  0  0  0  0  0
  -26.0822    5.1064   27.3925 N   0  0  0  0  0  0  0  0  0  0  0  0
  -27.3578    5.1546   27.4368 C   0  0  0  0  0  0  0  0  0  0  0  0
  -24.1973    3.9577   27.5253 O   0  0  0  0  0  0  0  0  0  0  0  0
  -25.4194    6.3025   26.7680 C   0  0  0  0  0  0  0  0  0  0  0  0
  -27.5910    1.2208   26.3261 N   0  0  0  0  0  0  0  0  0  0  0  0
  -28.7373    1.1494   26.4663 C   0  0  0  0  0  0  0  0  0  0  0  0
  -29.7428    1.8054   25.7787 C   0  0  0  0  0  0  0  0  0  0  0  0
  -29.0512    2.4351   24.8539 C   0  0  0  0  0  0  0  0  0  0  0  0
  -27.5462    2.2257   25.0764 C   0  0  0  0  0  0  0  0  0  0  0  0
  -28.2950    5.5595   27.9881 C   0  0  0  0  0  0  0  0  0  0  0  0
  -29.7018    5.3209   27.8609 C   0  0  0  0  0  0  0  0  0  0  0  0
  1  2  2  0
  2  3  1  0
  2  4  1  0
  4 10  1  0
  4 11  1  0
 15 17  1  0
 17 18  1  0
 18 19  1  0
 17 20  2  0
 18 21  1  0
  5 22  1  0
 22 23  1  0
 23 24  2  0
 24 25  1  0
 22 26  1  0
 25 26  1  0
 19 27  2  3
 27 28  1  0
 11 12  2  0
 12 13  1  0
 13 14  2  0
 14 15  1  0
 15 16  2  0
 16 11  1  0
  3  5  1  0
  5  6  2  0
  6  7  1  0
  7  8  2  0
  8  9  1  0
  9  3  2  0
M  END

$$$$
