No_1871-gen_results/8p0m/2024-11-26-14-13-15/
     RDKit          3D

 23 25  0  0  0  0  0  0  0  0999 V2000
  -28.1229   -1.3353   28.4874 O   0  0  0  0  0  0  0  0  0  0  0  0
  -28.5208   -0.4363   29.0779 C   0  0  0  0  0  0  0  0  0  0  0  0
  -28.5894    0.5916   28.9464 C   0  0  0  0  0  0  0  0  0  0  0  0
  -29.1246   -0.9399   30.4266 N   0  0  0  0  0  0  0  0  0  0  0  0
  -29.2955    1.6366   29.4337 C   0  0  0  0  0  0  0  0  0  0  0  0
  -29.7997    0.0136   31.1592 C   0  0  0  0  0  0  0  0  0  0  0  0
  -29.8824    1.2875   30.7463 C   0  0  0  0  0  0  0  0  0  0  0  0
  -27.7572    0.8739   27.6342 C   0  0  0  0  0  0  0  0  0  0  0  0
  -26.7270    1.9246   27.7519 C   0  0  0  0  0  0  0  0  0  0  0  0
  -25.8451    2.1676   26.7394 C   0  0  0  0  0  0  0  0  0  0  0  0
  -24.7340    3.1488   26.8760 C   0  0  0  0  0  0  0  0  0  0  0  0
  -24.7874    3.8917   28.0108 C   0  0  0  0  0  0  0  0  0  0  0  0
  -25.7020    3.7171   28.9783 C   0  0  0  0  0  0  0  0  0  0  0  0
  -26.6653    2.7185   28.9021 C   0  0  0  0  0  0  0  0  0  0  0  0
  -25.5969    4.5829   30.2205 C   0  0  0  0  0  0  0  0  0  0  0  0
  -25.5341    4.0621   31.2820 O   0  0  0  0  0  0  0  0  0  0  0  0
  -25.5242    5.8687   30.0292 O   0  0  0  0  0  0  0  0  0  0  0  0
  -29.0101   -2.3249   30.8098 C   0  0  0  0  0  0  0  0  0  0  0  0
  -29.8064   -2.8244   31.7239 C   0  0  0  0  0  0  0  0  0  0  0  0
  -29.8735   -2.3959   32.7642 C   0  0  0  0  0  0  0  0  0  0  0  0
  -30.2963   -0.9831   33.1745 C   0  0  0  0  0  0  0  0  0  0  0  0
  -30.2783   -0.0593   32.5258 C   0  0  0  0  0  0  0  0  0  0  0  0
  -30.7705    1.1311   32.9860 C   0  0  0  0  0  0  0  0  0  0  0  0
  1  2  2  0
  2  3  1  0
  2  4  1  0
  4  6  1  0
  5  7  1  0
  3  8  1  0
  8  9  1  0
 13 15  1  0
 15 16  2  0
 15 17  1  0
  4 18  1  0
 18 19  1  0
 19 20  2  0
 20 21  1  0
  6 22  1  0
 21 22  1  0
 22 23  1  0
  3  5  1  0
  7  6  1  0
  9 10  2  0
 10 11  1  0
 11 12  2  0
 12 13  1  0
 13 14  2  0
 14  9  1  0
M  END

$$$$
