No_1505-gen_results/8p0m/2024-11-26-14-13-15/
     RDKit          3D

  8  8  0  0  0  0  0  0  0  0999 V2000
  -28.0162   -0.8135   28.8779 C   0  0  0  0  0  0  0  0  0  0  0  0
  -28.4690   -0.7850   29.8287 C   0  0  0  0  0  0  0  0  0  0  0  0
  -26.5042   -0.7777   28.8766 C   0  0  0  0  0  0  0  0  0  0  0  0
  -25.8305   -1.6807   29.6849 C   0  0  0  0  0  0  0  0  0  0  0  0
  -28.1490   -1.8854   30.9031 C   0  0  0  0  0  0  0  0  0  0  0  0
  -28.9302   -2.0829   32.0356 C   0  0  0  0  0  0  0  0  0  0  0  0
  -26.7271   -2.2585   30.7986 C   0  0  0  0  0  0  0  0  0  0  0  0
  -28.7029   -1.6824   33.0542 O   0  0  0  0  0  0  0  0  0  0  0  0
  1  2  1  0
  1  3  1  0
  3  4  1  0
  2  5  1  0
  5  6  2  0
  4  7  1  0
  5  7  1  0
  6  8  2  0
M  END

$$$$
