No_1961-gen_results/8p0m/2024-11-26-14-13-15/
     RDKit          3D

 13 13  0  0  0  0  0  0  0  0999 V2000
  -28.0162   -0.8135   28.8779 C   0  0  0  0  0  0  0  0  0  0  0  0
  -27.0636   -0.1189   28.6079 C   0  0  0  0  0  0  0  0  0  0  0  0
  -26.9716    0.7139   27.5060 C   0  0  0  0  0  0  0  0  0  0  0  0
  -25.8205    1.4909   27.1160 C   0  0  0  0  0  0  0  0  0  0  0  0
  -24.8579    1.3421   27.6008 C   0  0  0  0  0  0  0  0  0  0  0  0
  -24.6224    0.5295   28.8144 C   0  0  0  0  0  0  0  0  0  0  0  0
  -25.7344   -0.1811   29.1908 C   0  0  0  0  0  0  0  0  0  0  0  0
  -28.6330   -0.4621   30.2455 C   0  0  0  0  0  0  0  0  0  0  0  0
  -29.4914   -1.3109   30.7638 O   0  0  0  0  0  0  0  0  0  0  0  0
  -23.5138    2.1529   27.3010 C   0  0  0  0  0  0  0  0  0  0  0  0
  -23.4963    2.6224   26.1749 F   0  0  0  0  0  0  0  0  0  0  0  0
  -23.2503    3.1225   28.2151 F   0  0  0  0  0  0  0  0  0  0  0  0
  -22.3635    1.3562   27.3424 F   0  0  0  0  0  0  0  0  0  0  0  0
  1  2  2  3
  2  3  1  0
  3  4  1  0
  4  5  1  0
  5  6  1  0
  2  7  1  0
  6  7  1  0
  1  8  1  0
  8  9  1  0
  5 10  1  0
 10 11  1  0
 10 12  1  0
 10 13  1  0
M  END

$$$$
