No_140-gen_results/8p0m/2024-11-26-14-13-15/
     RDKit          3D

 22 25  0  0  0  0  0  0  0  0999 V2000
  -28.1229   -1.3353   28.4874 O   0  0  0  0  0  0  0  0  0  0  0  0
  -27.0637   -0.8242   28.8687 C   0  0  0  0  0  0  0  0  0  0  0  0
  -26.4017   -0.0623   28.6224 C   0  0  0  0  0  0  0  0  0  0  0  0
  -26.5721   -1.5844   30.1172 N   0  0  0  0  0  0  0  0  0  0  0  0
  -26.6982    0.9644   27.6453 C   0  0  0  0  0  0  0  0  0  0  0  0
  -27.5862    1.2950   27.2709 C   0  0  0  0  0  0  0  0  0  0  0  0
  -28.8244    0.9272   27.8593 C   0  0  0  0  0  0  0  0  0  0  0  0
  -30.0425    1.6171   27.3884 C   0  0  0  0  0  0  0  0  0  0  0  0
  -29.8642    2.4087   26.3012 C   0  0  0  0  0  0  0  0  0  0  0  0
  -28.6897    2.8167   25.6633 C   0  0  0  0  0  0  0  0  0  0  0  0
  -27.5774    2.3764   26.1591 C   0  0  0  0  0  0  0  0  0  0  0  0
  -27.3537   -2.7268   30.4632 C   0  0  0  0  0  0  0  0  0  0  0  0
  -25.1675   -1.6968   30.1811 C   0  0  0  0  0  0  0  0  0  0  0  0
  -24.9234    0.0223   29.2097 C   0  0  0  0  0  0  0  0  0  0  0  0
  -24.0760    1.0839   28.7771 C   0  0  0  0  0  0  0  0  0  0  0  0
  -24.4485   -0.9206   30.0361 C   0  0  0  0  0  0  0  0  0  0  0  0
  -24.3450    1.9666   27.7763 C   0  0  0  0  0  0  0  0  0  0  0  0
  -25.5598    2.0831   27.3713 C   0  0  0  0  0  0  0  0  0  0  0  0
  -26.0968    2.9104   26.2749 C   0  0  0  0  0  0  0  0  0  0  0  0
  -31.3675    1.1563   27.7891 C   0  0  0  0  0  0  0  0  0  0  0  0
  -32.1416    0.6417   27.2861 O   0  0  0  0  0  0  0  0  0  0  0  0
  -31.3618    1.0640   29.2878 O   0  0  0  0  0  0  0  0  0  0  0  0
  1  2  2  0
  2  3  1  0
  2  4  1  0
  4 12  1  0
  4 13  1  0
 13 16  1  0
 14 16  1  0
 11 19  1  0
 18 19  1  0
  8 20  1  0
 20 21  2  0
 20 22  1  0
  6  5  1  0
  3  5  2  0
  5 18  1  0
 18 17  2  0
 17 15  1  0
 15 14  2  0
 14  3  1  0
  6  7  2  0
  7  8  1  0
  8  9  2  0
  9 10  1  0
 10 11  2  0
 11  6  1  0
M  END

$$$$
