No_1060-gen_results/8p0m/2024-11-26-14-13-15/
     RDKit          3D

 19 21  0  0  0  0  0  0  0  0999 V2000
  -28.0162   -0.8135   28.8779 C   0  0  0  0  0  0  0  0  0  0  0  0
  -27.0636   -0.1190   28.6079 C   0  0  0  0  0  0  0  0  0  0  0  0
  -27.0010    0.6913   27.4910 C   0  0  0  0  0  0  0  0  0  0  0  0
  -25.8548    1.4825   27.0830 C   0  0  0  0  0  0  0  0  0  0  0  0
  -24.6901    1.4526   27.8807 C   0  0  0  0  0  0  0  0  0  0  0  0
  -24.7379    0.6010   29.0416 C   0  0  0  0  0  0  0  0  0  0  0  0
  -25.8234   -0.1688   29.3887 C   0  0  0  0  0  0  0  0  0  0  0  0
  -29.2150   -0.1726   29.0132 N   0  0  0  0  0  0  0  0  0  0  0  0
  -29.7200    0.5474   28.3236 C   0  0  0  0  0  0  0  0  0  0  0  0
  -29.3480    1.1490   27.1739 C   0  0  0  0  0  0  0  0  0  0  0  0
  -28.3167    1.0442   26.5989 C   0  0  0  0  0  0  0  0  0  0  0  0
  -23.4777    2.1369   27.5553 C   0  0  0  0  0  0  0  0  0  0  0  0
  -23.5055    2.8282   26.6410 F   0  0  0  0  0  0  0  0  0  0  0  0
  -22.3875    1.8661   28.1792 F   0  0  0  0  0  0  0  0  0  0  0  0
  -31.1911    0.6087   28.4749 N   0  0  0  0  0  0  0  0  0  0  0  0
  -31.7872    0.2052   29.5542 C   0  0  0  0  0  0  0  0  0  0  0  0
  -30.0141   -0.8148   30.1167 C   0  0  0  0  0  0  0  0  0  0  0  0
  -31.2295   -0.5543   30.3668 N   0  0  0  0  0  0  0  0  0  0  0  0
  -33.1238    0.5286   29.6663 N   0  0  0  0  0  0  0  0  0  0  0  0
  1  2  1  0
  1  8  1  0
  8  9  1  0
  3 11  1  0
 10 11  1  0
  5 12  1  0
 12 13  1  0
 12 14  1  0
  9 15  1  0
 15 16  1  0
  8 17  1  0
 16 18  1  0
 16 19  1  0
 10  9  1  0
 18 17  1  0
  2  3  2  0
  3  4  1  0
  4  5  2  0
  5  6  1  0
  6  7  2  0
  7  2  1  0
M  END

$$$$
