No_1796-gen_results/8p0m/2024-11-26-14-13-15/
     RDKit          3D

 24 25  0  0  0  0  0  0  0  0999 V2000
  -28.0162   -0.8135   28.8779 C   0  0  0  0  0  0  0  0  0  0  0  0
  -27.0636   -0.1190   28.6079 C   0  0  0  0  0  0  0  0  0  0  0  0
  -27.0010    0.6913   27.4910 C   0  0  0  0  0  0  0  0  0  0  0  0
  -28.1373    0.7363   26.6350 C   0  0  0  0  0  0  0  0  0  0  0  0
  -29.2360    0.0765   27.0690 C   0  0  0  0  0  0  0  0  0  0  0  0
  -29.2177   -0.6429   28.1747 C   0  0  0  0  0  0  0  0  0  0  0  0
  -30.4152    0.1590   26.1820 C   0  0  0  0  0  0  0  0  0  0  0  0
  -31.0232    1.1188   26.0346 N   0  0  0  0  0  0  0  0  0  0  0  0
  -30.8241   -0.9325   25.6274 O   0  0  0  0  0  0  0  0  0  0  0  0
  -30.7574    2.4451   26.7030 C   0  0  0  0  0  0  0  0  0  0  0  0
  -32.1741    1.3014   25.0359 C   0  0  0  0  0  0  0  0  0  0  0  0
  -28.0219   -1.6614   30.1650 C   0  0  0  0  0  0  0  0  0  0  0  0
  -28.7256   -1.6804   30.9557 F   0  0  0  0  0  0  0  0  0  0  0  0
  -26.7045   -1.4792   30.7150 F   0  0  0  0  0  0  0  0  0  0  0  0
  -25.7261    1.3814   27.0601 C   0  0  0  0  0  0  0  0  0  0  0  0
  -25.1162    2.2411   28.0601 C   0  0  0  0  0  0  0  0  0  0  0  0
  -23.7844    2.6410   27.7648 C   0  0  0  0  0  0  0  0  0  0  0  0
  -23.2729    2.3279   26.4683 C   0  0  0  0  0  0  0  0  0  0  0  0
  -23.9430    1.5868   25.5932 C   0  0  0  0  0  0  0  0  0  0  0  0
  -25.1669    1.0788   25.8816 C   0  0  0  0  0  0  0  0  0  0  0  0
  -27.7218   -2.9454   29.5609 F   0  0  0  0  0  0  0  0  0  0  0  0
  -25.6131    2.5759   29.3745 C   0  0  0  0  0  0  0  0  0  0  0  0
  -26.3006    3.6944   29.5442 N   0  0  0  0  0  0  0  0  0  0  0  0
  -27.0861    3.9746   30.5574 C   0  0  0  0  0  0  0  0  0  0  0  0
  5  7  1  0
  7  8  1  0
  7  9  2  0
  8 10  1  0
  8 11  1  0
  1 12  1  0
 12 13  1  0
 12 14  1  0
  3 15  1  0
 12 21  1  0
 16 22  1  0
 22 23  1  0
 23 24  2  0
 15 16  2  0
 16 17  1  0
 17 18  2  0
 18 19  1  0
 19 20  2  0
 20 15  1  0
  1  2  2  0
  2  3  1  0
  3  4  2  0
  4  5  1  0
  5  6  2  0
  6  1  1  0
M  END

$$$$
