No_1447-gen_results/8p0m/2024-11-26-14-13-15/
     RDKit          3D

 15 15  0  0  0  0  0  0  0  0999 V2000
  -28.0544   -1.0498   28.7246 N   0  0  0  0  0  0  0  0  0  0  0  0
  -27.7460   -0.0733   29.0098 C   0  0  0  0  0  0  0  0  0  0  0  0
  -27.1737    0.7565   28.1070 C   0  0  0  0  0  0  0  0  0  0  0  0
  -27.3702    0.6013   26.8571 C   0  0  0  0  0  0  0  0  0  0  0  0
  -26.6779    1.3647   25.8256 C   0  0  0  0  0  0  0  0  0  0  0  0
  -25.7484    2.3384   26.2151 C   0  0  0  0  0  0  0  0  0  0  0  0
  -25.5285    2.5826   27.5694 C   0  0  0  0  0  0  0  0  0  0  0  0
  -26.1617    1.8190   28.4417 C   0  0  0  0  0  0  0  0  0  0  0  0
  -27.7970    0.3460   30.2847 O   0  0  0  0  0  0  0  0  0  0  0  0
  -28.6091   -2.1341   29.7118 C   0  0  0  0  0  0  0  0  0  0  0  0
  -27.6848   -3.2594   29.9243 C   0  0  0  0  0  0  0  0  0  0  0  0
  -28.1507   -4.4000   30.2900 O   0  0  0  0  0  0  0  0  0  0  0  0
  -26.4103   -3.1380   29.7120 O   0  0  0  0  0  0  0  0  0  0  0  0
  -29.6728   -2.0290   30.1499 F   0  0  0  0  0  0  0  0  0  0  0  0
  -24.7019    3.5193   27.9221 F   0  0  0  0  0  0  0  0  0  0  0  0
  1  2  1  0
  2  3  1  0
  2  9  2  0
  1 10  1  0
 10 11  1  0
 11 12  1  0
 11 13  2  0
 10 14  1  0
  7 15  1  0
  3  4  2  0
  4  5  1  0
  5  6  2  0
  6  7  1  0
  7  8  2  0
  8  3  1  0
M  END

$$$$
