No_133-gen_results/8p0m/2024-11-26-14-13-15/
     RDKit          3D

  9  9  0  0  0  0  0  0  0  0999 V2000
  -28.0727   -1.2542   28.5316 F   0  0  0  0  0  0  0  0  0  0  0  0
  -27.3591   -0.3792   28.7224 C   0  0  0  0  0  0  0  0  0  0  0  0
  -26.8100    0.1885   27.6513 C   0  0  0  0  0  0  0  0  0  0  0  0
  -25.6015    0.9529   27.6828 C   0  0  0  0  0  0  0  0  0  0  0  0
  -25.0371    1.2332   29.0000 C   0  0  0  0  0  0  0  0  0  0  0  0
  -25.6162    0.5855   30.0870 C   0  0  0  0  0  0  0  0  0  0  0  0
  -26.6061   -0.2296   29.9624 C   0  0  0  0  0  0  0  0  0  0  0  0
  -23.9754    2.0624   29.0720 N   0  0  0  0  0  0  0  0  0  0  0  0
  -22.9007    1.7931   29.4977 C   0  0  0  0  0  0  0  0  0  0  0  0
  1  2  1  0
  5  8  1  0
  8  9  2  0
  2  3  2  0
  3  4  1  0
  4  5  2  0
  5  6  1  0
  6  7  2  0
  7  2  1  0
M  END

$$$$
