No_1283-gen_results/8p0m/2024-11-26-14-13-15/
     RDKit          3D

 15 16  0  0  0  0  0  0  0  0999 V2000
  -28.0162   -0.8135   28.8779 C   0  0  0  0  0  0  0  0  0  0  0  0
  -27.0636   -0.1189   28.6079 C   0  0  0  0  0  0  0  0  0  0  0  0
  -26.9716    0.7139   27.5060 C   0  0  0  0  0  0  0  0  0  0  0  0
  -28.1053    0.7744   26.6421 C   0  0  0  0  0  0  0  0  0  0  0  0
  -29.2008    0.1044   27.0527 C   0  0  0  0  0  0  0  0  0  0  0  0
  -29.2096   -0.6029   28.1853 C   0  0  0  0  0  0  0  0  0  0  0  0
  -30.3702    0.2264   26.1604 C   0  0  0  0  0  0  0  0  0  0  0  0
  -30.9870    1.1892   26.1601 O   0  0  0  0  0  0  0  0  0  0  0  0
  -30.4768   -0.7090   25.2126 O   0  0  0  0  0  0  0  0  0  0  0  0
  -25.6998   -0.2105   29.4319 C   0  0  0  0  0  0  0  0  0  0  0  0
  -25.1492    1.0369   29.9365 C   0  0  0  0  0  0  0  0  0  0  0  0
  -23.8013    0.9900   30.1775 C   0  0  0  0  0  0  0  0  0  0  0  0
  -23.0436   -0.1927   30.2103 C   0  0  0  0  0  0  0  0  0  0  0  0
  -23.6465   -1.3502   29.7587 C   0  0  0  0  0  0  0  0  0  0  0  0
  -24.9491   -1.3751   29.2690 C   0  0  0  0  0  0  0  0  0  0  0  0
  5  7  1  0
  7  8  1  0
  7  9  2  0
  2 10  1  0
  1  2  2  0
  2  3  1  0
  3  4  2  0
  4  5  1  0
  5  6  2  0
  6  1  1  0
 10 11  2  0
 11 12  1  0
 12 13  2  0
 13 14  1  0
 14 15  2  0
 15 10  1  0
M  END

$$$$
