No_1834-gen_results/8p0m/2024-11-26-14-13-15/
     RDKit          3D

 12 13  0  0  0  0  0  0  0  0999 V2000
  -28.0162   -0.8135   28.8779 C   0  0  0  0  0  0  0  0  0  0  0  0
  -28.4690   -0.7850   29.8287 C   0  0  0  0  0  0  0  0  0  0  0  0
  -26.5042   -0.7777   28.8766 C   0  0  0  0  0  0  0  0  0  0  0  0
  -25.6540   -0.6597   27.7191 C   0  0  0  0  0  0  0  0  0  0  0  0
  -29.9920   -0.8134   29.9579 C   0  0  0  0  0  0  0  0  0  0  0  0
  -24.2081   -0.6354   27.9684 C   0  0  0  0  0  0  0  0  0  0  0  0
  -23.7148   -0.7617   29.2554 C   0  0  0  0  0  0  0  0  0  0  0  0
  -24.5039   -0.8892   30.3377 C   0  0  0  0  0  0  0  0  0  0  0  0
  -25.8377   -0.9206   30.1886 C   0  0  0  0  0  0  0  0  0  0  0  0
  -27.8406   -0.9550   31.2067 C   0  0  0  0  0  0  0  0  0  0  0  0
  -26.6393   -0.9986   31.3460 C   0  0  0  0  0  0  0  0  0  0  0  0
  -30.5602   -0.2035   29.1665 O   0  0  0  0  0  0  0  0  0  0  0  0
  5 12  2  0
  5  2  1  0
  3  4  2  0
  4  6  1  0
  6  7  2  0
  7  8  1  0
  8  9  2  0
  1  2  2  0
  2 10  1  0
 10 11  2  0
 11  9  1  0
  9  3  1  0
  3  1  1  0
M  END

$$$$
