No_1430-gen_results/8p0m/2024-11-26-14-13-15/
     RDKit          3D

 12 13  0  0  0  0  0  0  0  0999 V2000
  -28.0162   -0.8135   28.8779 C   0  0  0  0  0  0  0  0  0  0  0  0
  -27.0636   -0.1189   28.6079 C   0  0  0  0  0  0  0  0  0  0  0  0
  -25.7923   -0.4302   29.0761 C   0  0  0  0  0  0  0  0  0  0  0  0
  -25.5756   -1.5654   29.9363 C   0  0  0  0  0  0  0  0  0  0  0  0
  -26.7354   -2.3004   30.2173 C   0  0  0  0  0  0  0  0  0  0  0  0
  -27.9184   -1.9537   29.7629 C   0  0  0  0  0  0  0  0  0  0  0  0
  -27.1059    1.0338   27.8185 N   0  0  0  0  0  0  0  0  0  0  0  0
  -26.2610    1.3293   26.9037 C   0  0  0  0  0  0  0  0  0  0  0  0
  -28.2389    1.8929   27.8972 C   0  0  0  0  0  0  0  0  0  0  0  0
  -26.2416    2.1196   26.0490 C   0  0  0  0  0  0  0  0  0  0  0  0
  -28.3634    2.9221   26.9363 C   0  0  0  0  0  0  0  0  0  0  0  0
  -27.3641    3.1134   26.0344 C   0  0  0  0  0  0  0  0  0  0  0  0
  2  7  1  0
  7  8  1  0
  7  9  1  0
 10 12  1  0
 11 12  1  0
  8 10  1  0
 11  9  1  0
  1  2  2  0
  2  3  1  0
  3  4  2  0
  4  5  1  0
  5  6  2  0
  6  1  1  0
M  END

$$$$
