No_1400-gen_results/8p0m/2024-11-26-14-13-15/
     RDKit          3D

 18 20  0  0  0  0  0  0  0  0999 V2000
  -28.0162   -0.8135   28.8779 C   0  0  0  0  0  0  0  0  0  0  0  0
  -28.4690   -0.7850   29.8287 C   0  0  0  0  0  0  0  0  0  0  0  0
  -27.0871    0.2903   28.6377 C   0  0  0  0  0  0  0  0  0  0  0  0
  -26.8317    1.2487   29.5869 C   0  0  0  0  0  0  0  0  0  0  0  0
  -29.4442   -1.9481   30.1840 C   0  0  0  0  0  0  0  0  0  0  0  0
  -27.4956    1.1303   30.8222 C   0  0  0  0  0  0  0  0  0  0  0  0
  -28.3376    0.0364   31.0331 C   0  0  0  0  0  0  0  0  0  0  0  0
  -30.3927   -1.8339   29.8638 O   0  0  0  0  0  0  0  0  0  0  0  0
  -29.0284   -2.8219   31.1506 O   0  0  0  0  0  0  0  0  0  0  0  0
  -26.3027    0.6489   27.3885 C   0  0  0  0  0  0  0  0  0  0  0  0
  -25.2135    1.1837   27.2956 C   0  0  0  0  0  0  0  0  0  0  0  0
  -24.8973    2.0991   28.4265 C   0  0  0  0  0  0  0  0  0  0  0  0
  -25.5937    2.0594   29.5763 C   0  0  0  0  0  0  0  0  0  0  0  0
  -23.7900    2.8759   28.2111 F   0  0  0  0  0  0  0  0  0  0  0  0
  -24.4673    1.3454   26.0607 C   0  0  0  0  0  0  0  0  0  0  0  0
  -24.8094    0.6389   24.9194 C   0  0  0  0  0  0  0  0  0  0  0  0
  -26.0717   -0.0333   25.0219 C   0  0  0  0  0  0  0  0  0  0  0  0
  -26.7522   -0.2253   26.2159 C   0  0  0  0  0  0  0  0  0  0  0  0
  2  5  1  0
  5  8  2  0
  5  9  1  0
 12 14  1  0
  4 13  2  0
 13 12  1  0
 12 11  2  0
 10  3  2  0
 10 11  1  0
 11 15  1  0
 15 16  2  0
 16 17  1  0
 17 18  2  0
 18 10  1  0
  1  2  2  0
  2  7  1  0
  7  6  2  0
  6  4  1  0
  4  3  1  0
  3  1  1  0
M  END

$$$$
