No_1516-gen_results/8p0m/2024-11-26-14-13-15/
     RDKit          3D

 20 21  0  0  0  0  0  0  0  0999 V2000
  -28.0727   -1.2542   28.5316 F   0  0  0  0  0  0  0  0  0  0  0  0
  -28.2662   -0.4214   29.1931 C   0  0  0  0  0  0  0  0  0  0  0  0
  -29.4445    0.0759   29.3394 C   0  0  0  0  0  0  0  0  0  0  0  0
  -29.7073    1.1743   30.2277 C   0  0  0  0  0  0  0  0  0  0  0  0
  -28.5970    1.7109   30.9109 C   0  0  0  0  0  0  0  0  0  0  0  0
  -27.3024    1.1821   30.7905 C   0  0  0  0  0  0  0  0  0  0  0  0
  -27.1217    0.1218   29.9802 C   0  0  0  0  0  0  0  0  0  0  0  0
  -25.7978   -0.4263   29.8450 C   0  0  0  0  0  0  0  0  0  0  0  0
  -24.8604    0.1867   29.2584 C   0  0  0  0  0  0  0  0  0  0  0  0
  -24.7985    0.9207   28.2502 C   0  0  0  0  0  0  0  0  0  0  0  0
  -23.6516    1.6433   27.7569 C   0  0  0  0  0  0  0  0  0  0  0  0
  -22.4549    1.4369   28.3587 C   0  0  0  0  0  0  0  0  0  0  0  0
  -23.4541    0.0634   29.9422 C   0  0  0  0  0  0  0  0  0  0  0  0
  -22.3632    0.6994   29.4769 C   0  0  0  0  0  0  0  0  0  0  0  0
  -25.6903   -1.8580   30.2515 C   0  0  0  0  0  0  0  0  0  0  0  0
  -23.9062    2.5535   26.6353 C   0  0  0  0  0  0  0  0  0  0  0  0
  -23.1453    3.3183   26.2765 F   0  0  0  0  0  0  0  0  0  0  0  0
  -25.0851    3.3006   26.9007 F   0  0  0  0  0  0  0  0  0  0  0  0
  -24.3052    1.7692   25.5494 F   0  0  0  0  0  0  0  0  0  0  0  0
  -26.3426    1.7705   31.4453 O   0  0  0  0  0  0  0  0  0  0  0  0
  1  2  1  0
  3  4  1  0
  5  6  1  0
  2  7  1  0
  6  7  1  0
  7  8  1  0
  8  9  1  0
  8 15  1  0
 11 16  1  0
 16 17  1  0
 16 18  1  0
 16 19  1  0
  6 20  2  0
  5  4  1  0
  3  2  1  0
  9 10  2  0
 10 11  1  0
 11 12  2  0
 12 14  1  0
 14 13  2  0
 13  9  1  0
M  END

$$$$
