No_15-gen_results/8p0m/2024-11-26-14-13-15/
     RDKit          3D

 17 18  0  0  0  0  0  0  0  0999 V2000
  -28.0162   -0.8135   28.8779 C   0  0  0  0  0  0  0  0  0  0  0  0
  -28.4690   -0.7850   29.8287 C   0  0  0  0  0  0  0  0  0  0  0  0
  -28.1960    0.3478   28.0550 C   0  0  0  0  0  0  0  0  0  0  0  0
  -27.4421    0.5100   26.7946 C   0  0  0  0  0  0  0  0  0  0  0  0
  -27.8427    1.3330   25.8056 C   0  0  0  0  0  0  0  0  0  0  0  0
  -29.4956    0.1092   30.3452 C   0  0  0  0  0  0  0  0  0  0  0  0
  -29.7284    1.1870   29.5687 C   0  0  0  0  0  0  0  0  0  0  0  0
  -29.0420    1.3665   28.3718 C   0  0  0  0  0  0  0  0  0  0  0  0
  -26.1281   -0.0671   26.6257 C   0  0  0  0  0  0  0  0  0  0  0  0
  -25.2466   -0.2457   27.7552 C   0  0  0  0  0  0  0  0  0  0  0  0
  -24.2715    0.4354   28.2098 C   0  0  0  0  0  0  0  0  0  0  0  0
  -23.4094    0.0736   29.2523 C   0  0  0  0  0  0  0  0  0  0  0  0
  -23.5515   -1.2086   29.7706 C   0  0  0  0  0  0  0  0  0  0  0  0
  -25.1747   -1.6490   28.4107 C   0  0  0  0  0  0  0  0  0  0  0  0
  -24.4006   -2.0483   29.3238 C   0  0  0  0  0  0  0  0  0  0  0  0
  -28.0482    0.6936   24.5735 C   0  0  0  0  0  0  0  0  0  0  0  0
  -25.5349   -0.0415   25.3818 C   0  0  0  0  0  0  0  0  0  0  0  0
  3  4  1  0
  4  5  1  0
  4  9  1  0
  9 10  1  0
  5 16  1  0
  9 17  1  0
 10 11  2  0
 11 12  1  0
 12 13  2  0
 13 15  1  0
 15 14  2  0
 14 10  1  0
  1  2  2  0
  2  6  1  0
  6  7  2  0
  7  8  1  0
  8  3  2  0
  3  1  1  0
M  END

$$$$
