No_1734-gen_results/8p0m/2024-11-26-14-13-15/
     RDKit          3D

 10 10  0  0  0  0  0  0  0  0999 V2000
  -28.0727   -1.2542   28.5316 F   0  0  0  0  0  0  0  0  0  0  0  0
  -27.3591   -0.3792   28.7224 C   0  0  0  0  0  0  0  0  0  0  0  0
  -26.9761   -0.0935   27.6617 F   0  0  0  0  0  0  0  0  0  0  0  0
  -27.9492    0.6817   29.3005 F   0  0  0  0  0  0  0  0  0  0  0  0
  -26.1865   -0.8372   29.5966 C   0  0  0  0  0  0  0  0  0  0  0  0
  -25.7196   -1.9796   29.7045 C   0  0  0  0  0  0  0  0  0  0  0  0
  -25.3606    0.2504   30.2699 C   0  0  0  0  0  0  0  0  0  0  0  0
  -24.1850    0.0393   30.7256 C   0  0  0  0  0  0  0  0  0  0  0  0
  -24.3685   -2.3134   30.2455 C   0  0  0  0  0  0  0  0  0  0  0  0
  -23.6773   -1.2657   30.8247 C   0  0  0  0  0  0  0  0  0  0  0  0
  1  2  1  0
  2  3  1  0
  2  4  1  0
  2  5  1  0
  5  6  2  0
  6  9  1  0
  9 10  2  0
 10  8  1  0
  8  7  2  0
  7  5  1  0
M  END

$$$$
