No_1912-gen_results/8p0m/2024-11-26-14-13-15/
     RDKit          3D

 16 17  0  0  0  0  0  0  0  0999 V2000
  -28.0162   -0.8135   28.8779 C   0  0  0  0  0  0  0  0  0  0  0  0
  -27.0636   -0.1189   28.6079 C   0  0  0  0  0  0  0  0  0  0  0  0
  -27.0010    0.6913   27.4910 C   0  0  0  0  0  0  0  0  0  0  0  0
  -28.1373    0.7363   26.6350 C   0  0  0  0  0  0  0  0  0  0  0  0
  -29.2360    0.0765   27.0690 C   0  0  0  0  0  0  0  0  0  0  0  0
  -29.2177   -0.6429   28.1747 C   0  0  0  0  0  0  0  0  0  0  0  0
  -30.4152    0.1590   26.1820 C   0  0  0  0  0  0  0  0  0  0  0  0
  -30.3887    0.0527   24.9904 O   0  0  0  0  0  0  0  0  0  0  0  0
  -31.6057    0.1379   26.7588 O   0  0  0  0  0  0  0  0  0  0  0  0
  -25.7070   -0.2005   29.4186 C   0  0  0  0  0  0  0  0  0  0  0  0
  -25.4880   -0.8309   30.2090 C   0  0  0  0  0  0  0  0  0  0  0  0
  -24.1918   -0.8980   30.9940 C   0  0  0  0  0  0  0  0  0  0  0  0
  -23.1640   -0.0714   30.5458 C   0  0  0  0  0  0  0  0  0  0  0  0
  -23.4261    0.7551   29.4447 C   0  0  0  0  0  0  0  0  0  0  0  0
  -24.7034    0.7470   28.7921 C   0  0  0  0  0  0  0  0  0  0  0  0
  -22.0184    1.5378   28.8571 Cl  0  0  0  0  0  0  0  0  0  0  0  0
  5  7  1  0
  7  8  1  0
  7  9  2  0
  2 10  1  0
 14 16  1  0
  1  2  2  0
  2  3  1  0
  3  4  2  0
  4  5  1  0
  5  6  2  0
  6  1  1  0
 10 11  2  0
 11 12  1  0
 12 13  2  0
 13 14  1  0
 14 15  2  0
 15 10  1  0
M  END

$$$$
