No_1824-gen_results/8p0m/2024-11-26-14-13-15/
     RDKit          3D

 26 28  0  0  0  0  0  0  0  0999 V2000
  -28.1229   -1.3353   28.4874 O   0  0  0  0  0  0  0  0  0  0  0  0
  -27.4806   -0.4044   28.7094 C   0  0  0  0  0  0  0  0  0  0  0  0
  -26.3804   -0.0867   27.9394 C   0  0  0  0  0  0  0  0  0  0  0  0
  -27.4232    0.1749   30.0549 N   0  0  0  0  0  0  0  0  0  0  0  0
  -26.1558    0.1159   26.9677 C   0  0  0  0  0  0  0  0  0  0  0  0
  -24.8999    0.6041   26.2249 C   0  0  0  0  0  0  0  0  0  0  0  0
  -24.0303    1.0547   26.9836 C   0  0  0  0  0  0  0  0  0  0  0  0
  -24.0378    0.9051   28.3738 C   0  0  0  0  0  0  0  0  0  0  0  0
  -25.1577    0.4744   28.9583 C   0  0  0  0  0  0  0  0  0  0  0  0
  -28.5814   -0.2291   30.9242 C   0  0  0  0  0  0  0  0  0  0  0  0
  -22.7468    1.7248   26.3957 C   0  0  0  0  0  0  0  0  0  0  0  0
  -21.8141    2.1057   27.2660 N   0  0  0  0  0  0  0  0  0  0  0  0
  -22.7637    2.2648   24.8209 Cl  0  0  0  0  0  0  0  0  0  0  0  0
  -28.2160   -0.4069   32.1200 C   0  0  0  0  0  0  0  0  0  0  0  0
  -27.0332    0.2053   32.7479 C   0  0  0  0  0  0  0  0  0  0  0  0
  -26.0773    0.6483   31.7965 C   0  0  0  0  0  0  0  0  0  0  0  0
  -26.2936    0.5562   30.5059 C   0  0  0  0  0  0  0  0  0  0  0  0
  -26.2958    1.8618   30.2337 C   0  0  0  0  0  0  0  0  0  0  0  0
  -24.5327   -0.7161   29.6997 C   0  0  0  0  0  0  0  0  0  0  0  0
  -26.7456    2.8109   30.8807 C   0  0  0  0  0  0  0  0  0  0  0  0
  -26.7848    4.2279   30.2868 C   0  0  0  0  0  0  0  0  0  0  0  0
  -26.1732    4.3787   29.0536 C   0  0  0  0  0  0  0  0  0  0  0  0
  -26.2327    5.6434   28.4241 C   0  0  0  0  0  0  0  0  0  0  0  0
  -25.8573    2.5756   28.8705 C   0  0  0  0  0  0  0  0  0  0  0  0
  -24.2993   -1.9800   29.1279 C   0  0  0  0  0  0  0  0  0  0  0  0
  -25.8552    5.6029   27.0884 C   0  0  0  0  0  0  0  0  0  0  0  0
  1  2  2  0
  2  3  1  0
  2  4  1  0
  4 10  1  0
  7 11  1  0
 11 12  1  0
 11 13  1  0
 14 15  1  0
 15 16  1  0
  4 17  1  0
 16 17  1  0
 17 18  1  0
  9 19  1  0
 18 20  1  0
 20 21  2  0
 21 22  1  0
 22 23  2  3
 18 24  1  0
 22 24  1  0
 19 25  1  0
 23 26  1  0
 10 14  1  0
  3  5  2  0
  5  6  1  0
  6  7  2  0
  7  8  1  0
  8  9  2  0
  9  3  1  0
M  END

$$$$
