No_166-gen_results/8p0m/2024-11-26-14-13-15/
     RDKit          3D

 14 16  0  0  0  0  0  0  0  0999 V2000
  -28.0162   -0.8135   28.8779 C   0  0  0  0  0  0  0  0  0  0  0  0
  -27.0636   -0.1189   28.6079 C   0  0  0  0  0  0  0  0  0  0  0  0
  -27.0010    0.6913   27.4910 C   0  0  0  0  0  0  0  0  0  0  0  0
  -28.1420    0.8282   26.7994 C   0  0  0  0  0  0  0  0  0  0  0  0
  -27.9310   -1.6069   30.1504 C   0  0  0  0  0  0  0  0  0  0  0  0
  -26.7094   -1.7845   30.7448 C   0  0  0  0  0  0  0  0  0  0  0  0
  -25.5731   -1.1815   30.3081 C   0  0  0  0  0  0  0  0  0  0  0  0
  -25.6842   -0.3065   29.2345 C   0  0  0  0  0  0  0  0  0  0  0  0
  -28.1056    1.5319   25.4838 C   0  0  0  0  0  0  0  0  0  0  0  0
  -26.8924    2.0642   25.0042 C   0  0  0  0  0  0  0  0  0  0  0  0
  -25.7431    1.1980   26.8598 C   0  0  0  0  0  0  0  0  0  0  0  0
  -24.5087    1.0357   27.5911 C   0  0  0  0  0  0  0  0  0  0  0  0
  -24.4885    0.2856   28.7365 C   0  0  0  0  0  0  0  0  0  0  0  0
  -25.7157    1.8995   25.6679 C   0  0  0  0  0  0  0  0  0  0  0  0
  2  3  1  0
 11 12  1  0
 12 13  2  0
 13  8  1  0
  1  2  2  0
  2  8  1  0
  8  7  2  0
  7  6  1  0
  6  5  2  0
  5  1  1  0
  3  4  2  0
  4  9  1  0
  9 10  2  0
 10 14  1  0
 14 11  2  0
 11  3  1  0
M  END

$$$$
