No_1616-gen_results/8p0m/2024-11-26-14-13-15/
     RDKit          3D

 26 29  0  0  0  0  0  0  0  0999 V2000
  -28.1493   -0.8198   28.9079 Cl  0  0  0  0  0  0  0  0  0  0  0  0
  -26.9116   -0.0797   28.9452 C   0  0  0  0  0  0  0  0  0  0  0  0
  -26.7384    1.0439   29.2534 C   0  0  0  0  0  0  0  0  0  0  0  0
  -25.4392    1.7115   29.2755 C   0  0  0  0  0  0  0  0  0  0  0  0
  -24.2813    0.9888   28.8542 C   0  0  0  0  0  0  0  0  0  0  0  0
  -22.9799    1.5423   28.8300 C   0  0  0  0  0  0  0  0  0  0  0  0
  -24.4685   -0.3246   28.4777 C   0  0  0  0  0  0  0  0  0  0  0  0
  -25.6932   -0.8813   28.5346 C   0  0  0  0  0  0  0  0  0  0  0  0
  -21.9045    0.8013   28.4945 N   0  0  0  0  0  0  0  0  0  0  0  0
  -22.7787    2.7969   28.8505 O   0  0  0  0  0  0  0  0  0  0  0  0
  -20.5290    1.2577   28.2163 C   0  0  0  0  0  0  0  0  0  0  0  0
  -21.9389   -0.6737   28.6483 C   0  0  0  0  0  0  0  0  0  0  0  0
  -23.2366   -1.2012   28.4225 C   0  0  0  0  0  0  0  0  0  0  0  0
  -27.8526    1.9997   29.6320 C   0  0  0  0  0  0  0  0  0  0  0  0
  -28.6637    2.4997   28.7914 C   0  0  0  0  0  0  0  0  0  0  0  0
  -29.7904    3.2078   29.1662 C   0  0  0  0  0  0  0  0  0  0  0  0
  -30.7347    3.7232   28.2293 C   0  0  0  0  0  0  0  0  0  0  0  0
  -30.4688    3.4561   26.8454 C   0  0  0  0  0  0  0  0  0  0  0  0
  -29.3497    2.7477   26.4403 C   0  0  0  0  0  0  0  0  0  0  0  0
  -28.4875    2.2830   27.3643 C   0  0  0  0  0  0  0  0  0  0  0  0
  -27.9293    2.2963   31.1126 C   0  0  0  0  0  0  0  0  0  0  0  0
  -28.6960    1.5432   31.9031 C   0  0  0  0  0  0  0  0  0  0  0  0
  -28.7818    1.8492   33.2609 C   0  0  0  0  0  0  0  0  0  0  0  0
  -27.2571    3.4303   31.6080 C   0  0  0  0  0  0  0  0  0  0  0  0
  -27.2806    3.7453   32.9774 C   0  0  0  0  0  0  0  0  0  0  0  0
  -28.0477    2.9312   33.8431 C   0  0  0  0  0  0  0  0  0  0  0  0
  1  2  1  0
  5  6  1  0
  6  9  1  0
  6 10  2  0
  9 11  1  0
  9 12  1  0
  7 13  1  0
  3 14  1  0
 14 15  1  0
 14 21  1  0
 13 12  1  0
 15 16  2  0
 16 17  1  0
 17 18  2  0
 18 19  1  0
 19 20  2  0
 20 15  1  0
 21 22  2  0
 22 23  1  0
 23 26  2  0
 26 25  1  0
 25 24  2  0
 24 21  1  0
  2  3  2  0
  3  4  1  0
  4  5  2  0
  5  7  1  0
  7  8  2  0
  8  2  1  0
M  END

$$$$
