No_1500-gen_results/8p0m/2024-11-26-14-13-15/
     RDKit          3D

 24 26  0  0  0  0  0  0  0  0999 V2000
  -28.0162   -0.8135   28.8779 C   0  0  0  0  0  0  0  0  0  0  0  0
  -27.0636   -0.1189   28.6079 C   0  0  0  0  0  0  0  0  0  0  0  0
  -25.7647   -0.3897   29.0360 C   0  0  0  0  0  0  0  0  0  0  0  0
  -25.5296   -1.5302   29.9014 C   0  0  0  0  0  0  0  0  0  0  0  0
  -26.6888   -2.2893   30.1810 C   0  0  0  0  0  0  0  0  0  0  0  0
  -27.8727   -1.9508   29.7373 C   0  0  0  0  0  0  0  0  0  0  0  0
  -24.7078    0.5670   28.7015 C   0  0  0  0  0  0  0  0  0  0  0  0
  -24.6780    1.8401   29.1492 C   0  0  0  0  0  0  0  0  0  0  0  0
  -24.7031    2.7747   28.6591 N   0  0  0  0  0  0  0  0  0  0  0  0
  -24.6321    1.9142   30.7414 C   0  0  0  0  0  0  0  0  0  0  0  0
  -24.9119    3.1357   31.3205 C   0  0  0  0  0  0  0  0  0  0  0  0
  -24.9351    3.1564   32.7711 C   0  0  0  0  0  0  0  0  0  0  0  0
  -25.2801    4.4536   33.3069 C   0  0  0  0  0  0  0  0  0  0  0  0
  -25.3385    5.5917   32.4342 C   0  0  0  0  0  0  0  0  0  0  0  0
  -25.2552    5.4645   31.0964 C   0  0  0  0  0  0  0  0  0  0  0  0
  -24.9822    4.2636   30.5603 C   0  0  0  0  0  0  0  0  0  0  0  0
  -24.9861    4.1159   29.1070 C   0  0  0  0  0  0  0  0  0  0  0  0
  -25.0559    5.0747   28.3209 O   0  0  0  0  0  0  0  0  0  0  0  0
  -23.6411    0.0972   27.8497 C   0  0  0  0  0  0  0  0  0  0  0  0
  -28.9487   -2.7468   30.0356 O   0  0  0  0  0  0  0  0  0  0  0  0
  -29.3068   -2.8718   31.3945 C   0  0  0  0  0  0  0  0  0  0  0  0
  -29.7194   -4.1999   31.6841 C   0  0  0  0  0  0  0  0  0  0  0  0
  -29.6811   -4.4910   32.8854 O   0  0  0  0  0  0  0  0  0  0  0  0
  -30.0010   -5.0123   30.8219 O   0  0  0  0  0  0  0  0  0  0  0  0
  3  7  1  0
  7  8  1  0
  8 10  1  0
 10 11  1  0
  9 17  1  0
 16 17  1  0
 17 18  2  0
  7 19  1  0
  6 20  1  0
 20 21  1  0
 21 22  1  0
 22 23  1  0
 22 24  2  0
  9  8  1  0
 11 12  2  0
 12 13  1  0
 13 14  2  0
 14 15  1  0
 15 16  2  0
 16 11  1  0
  1  2  2  0
  2  3  1  0
  3  4  2  0
  4  5  1  0
  5  6  2  0
  6  1  1  0
M  END

$$$$
