No_1393-gen_results/8p0m/2024-11-26-14-13-15/
     RDKit          3D

 16 17  0  0  0  0  0  0  0  0999 V2000
  -28.0162   -0.8135   28.8779 C   0  0  0  0  0  0  0  0  0  0  0  0
  -27.0636   -0.1190   28.6079 C   0  0  0  0  0  0  0  0  0  0  0  0
  -27.0010    0.6913   27.4910 C   0  0  0  0  0  0  0  0  0  0  0  0
  -28.1420    0.8282   26.7994 C   0  0  0  0  0  0  0  0  0  0  0  0
  -29.2898   -0.4871   28.3661 C   0  0  0  0  0  0  0  0  0  0  0  0
  -28.1796    1.6545   25.6431 C   0  0  0  0  0  0  0  0  0  0  0  0
  -29.2994    0.2379   27.2252 C   0  0  0  0  0  0  0  0  0  0  0  0
  -27.9608   -1.8202   30.3658 Cl  0  0  0  0  0  0  0  0  0  0  0  0
  -27.2597    1.8901   24.9337 O   0  0  0  0  0  0  0  0  0  0  0  0
  -29.4202    1.8935   25.1133 O   0  0  0  0  0  0  0  0  0  0  0  0
  -25.6404   -0.3155   29.3214 C   0  0  0  0  0  0  0  0  0  0  0  0
  -24.5900    0.1535   28.7837 C   0  0  0  0  0  0  0  0  0  0  0  0
  -23.3562    0.1848   29.3335 C   0  0  0  0  0  0  0  0  0  0  0  0
  -23.1965   -0.7336   30.4026 C   0  0  0  0  0  0  0  0  0  0  0  0
  -24.2971   -1.2922   31.0617 C   0  0  0  0  0  0  0  0  0  0  0  0
  -25.5307   -1.0887   30.4733 C   0  0  0  0  0  0  0  0  0  0  0  0
  4  6  1  0
  1  8  1  0
  6  9  2  0
  6 10  1  0
  2 11  1  0
 11 12  2  0
 12 13  1  0
 13 14  2  0
 14 15  1  0
 15 16  2  0
 16 11  1  0
  1  2  2  0
  2  3  1  0
  3  4  2  0
  4  7  1  0
  7  5  2  0
  5  1  1  0
M  END

$$$$
