No_1214-gen_results/8p0m/2024-11-26-14-13-15/
     RDKit          3D

 19 20  0  0  0  0  0  0  0  0999 V2000
  -28.0162   -0.8135   28.8779 C   0  0  0  0  0  0  0  0  0  0  0  0
  -27.0636   -0.1190   28.6079 C   0  0  0  0  0  0  0  0  0  0  0  0
  -25.7923   -0.4302   29.0761 C   0  0  0  0  0  0  0  0  0  0  0  0
  -25.5756   -1.5654   29.9363 C   0  0  0  0  0  0  0  0  0  0  0  0
  -26.7354   -2.3004   30.2173 C   0  0  0  0  0  0  0  0  0  0  0  0
  -27.9184   -1.9537   29.7629 C   0  0  0  0  0  0  0  0  0  0  0  0
  -27.1057    1.1023   27.7593 C   0  0  0  0  0  0  0  0  0  0  0  0
  -27.8576    1.5309   27.2156 C   0  0  0  0  0  0  0  0  0  0  0  0
  -27.8433    2.7213   26.2861 C   0  0  0  0  0  0  0  0  0  0  0  0
  -28.9357    3.2862   25.6170 C   0  0  0  0  0  0  0  0  0  0  0  0
  -30.1399    2.6209   25.6952 C   0  0  0  0  0  0  0  0  0  0  0  0
  -30.2383    1.4941   26.4532 C   0  0  0  0  0  0  0  0  0  0  0  0
  -29.2829    0.9986   27.1618 C   0  0  0  0  0  0  0  0  0  0  0  0
  -26.1128    2.0917   28.4153 C   0  0  0  0  0  0  0  0  0  0  0  0
  -26.1335    2.4574   29.6951 C   0  0  0  0  0  0  0  0  0  0  0  0
  -25.2208    3.4119   30.1045 C   0  0  0  0  0  0  0  0  0  0  0  0
  -25.1406    3.6400   31.4483 F   0  0  0  0  0  0  0  0  0  0  0  0
  -23.9993    3.1345   29.7854 F   0  0  0  0  0  0  0  0  0  0  0  0
  -25.4775    4.6136   29.5369 F   0  0  0  0  0  0  0  0  0  0  0  0
  2  7  1  0
  7 14  1  0
 14 15  2  3
 15 16  1  0
 16 17  1  0
 16 18  1  0
 16 19  1  0
  7  8  1  0
  1  2  2  0
  2  3  1  0
  3  4  2  0
  4  5  1  0
  5  6  2  0
  6  1  1  0
  8  9  2  0
  9 10  1  0
 10 11  2  0
 11 12  1  0
 12 13  2  0
 13  8  1  0
M  END

$$$$
