No_1190-gen_results/8p0m/2024-11-26-14-13-15/
     RDKit          3D

 23 25  0  0  0  0  0  0  0  0999 V2000
  -28.0162   -0.8135   28.8779 C   0  0  0  0  0  0  0  0  0  0  0  0
  -28.4690   -0.7850   29.8287 C   0  0  0  0  0  0  0  0  0  0  0  0
  -26.5042   -0.7777   28.8766 C   0  0  0  0  0  0  0  0  0  0  0  0
  -25.8103   -0.8531   30.1028 C   0  0  0  0  0  0  0  0  0  0  0  0
  -27.9906   -0.8916   31.2257 C   0  0  0  0  0  0  0  0  0  0  0  0
  -26.6042   -0.8676   31.2652 C   0  0  0  0  0  0  0  0  0  0  0  0
  -30.0739   -0.8360   29.8615 C   0  0  0  0  0  0  0  0  0  0  0  0
  -30.6825   -0.0696   30.6918 O   0  0  0  0  0  0  0  0  0  0  0  0
  -30.6226   -1.5289   29.0126 O   0  0  0  0  0  0  0  0  0  0  0  0
  -25.6461   -0.7243   27.6859 C   0  0  0  0  0  0  0  0  0  0  0  0
  -25.2829    0.6524   27.3187 C   0  0  0  0  0  0  0  0  0  0  0  0
  -25.4133    1.0485   26.0265 C   0  0  0  0  0  0  0  0  0  0  0  0
  -24.7745    1.5916   28.2316 C   0  0  0  0  0  0  0  0  0  0  0  0
  -24.2569    2.7873   27.7446 C   0  0  0  0  0  0  0  0  0  0  0  0
  -24.9722    2.2610   25.5234 C   0  0  0  0  0  0  0  0  0  0  0  0
  -24.3848    3.1921   26.4128 C   0  0  0  0  0  0  0  0  0  0  0  0
  -25.9548    0.1248   25.0090 C   0  0  0  0  0  0  0  0  0  0  0  0
  -27.3885   -0.0572   24.9636 C   0  0  0  0  0  0  0  0  0  0  0  0
  -28.0718   -0.5590   23.9081 C   0  0  0  0  0  0  0  0  0  0  0  0
  -29.4334   -0.9055   24.0742 C   0  0  0  0  0  0  0  0  0  0  0  0
  -30.2701   -0.3410   25.0422 C   0  0  0  0  0  0  0  0  0  0  0  0
  -29.5517    0.4658   26.0237 C   0  0  0  0  0  0  0  0  0  0  0  0
  -28.1874    0.6500   26.0449 C   0  0  0  0  0  0  0  0  0  0  0  0
  2  7  1  0
  7  8  1  0
  7  9  2  0
  3 10  1  0
 10 11  1  0
 12 17  1  0
 17 18  1  0
 11 12  2  0
 12 15  1  0
 15 16  2  0
 16 14  1  0
 14 13  2  0
 13 11  1  0
 18 19  2  0
 19 20  1  0
 20 21  2  0
 21 22  1  0
 22 23  2  0
 23 18  1  0
  1  2  2  0
  2  5  1  0
  5  6  2  0
  6  4  1  0
  4  3  2  0
  3  1  1  0
M  END

$$$$
