No_1102-gen_results/8p0m/2024-11-26-14-13-15/
     RDKit          3D

 14 15  0  0  0  0  0  0  0  0999 V2000
  -28.0162   -0.8135   28.8779 C   0  0  0  0  0  0  0  0  0  0  0  0
  -27.0636   -0.1189   28.6079 C   0  0  0  0  0  0  0  0  0  0  0  0
  -27.0010    0.6913   27.4910 C   0  0  0  0  0  0  0  0  0  0  0  0
  -25.8548    1.4825   27.0830 C   0  0  0  0  0  0  0  0  0  0  0  0
  -24.9008    1.3894   27.5922 C   0  0  0  0  0  0  0  0  0  0  0  0
  -24.6783    0.5764   28.8299 C   0  0  0  0  0  0  0  0  0  0  0  0
  -25.7704   -0.2051   29.2800 C   0  0  0  0  0  0  0  0  0  0  0  0
  -29.2813   -0.1474   29.2516 C   0  0  0  0  0  0  0  0  0  0  0  0
  -29.5487    0.0933   30.4345 C   0  0  0  0  0  0  0  0  0  0  0  0
  -30.9493    0.2601   30.8622 C   0  0  0  0  0  0  0  0  0  0  0  0
  -31.2771    0.5121   32.1784 C   0  0  0  0  0  0  0  0  0  0  0  0
  -30.2560    0.6339   33.1216 C   0  0  0  0  0  0  0  0  0  0  0  0
  -28.9157    0.4751   32.7629 C   0  0  0  0  0  0  0  0  0  0  0  0
  -28.5370    0.2044   31.4048 C   0  0  0  0  0  0  0  0  0  0  0  0
  1  2  1  0
  1  8  1  0
  8  9  1  0
  2  3  2  0
  3  4  1  0
  4  5  2  0
  5  6  1  0
  6  7  2  0
  7  2  1  0
  9 10  2  0
 10 11  1  0
 11 12  2  0
 12 13  1  0
 13 14  2  0
 14  9  1  0
M  END

$$$$
