No_1223-gen_results/8p0m/2024-11-26-14-13-15/
     RDKit          3D

 26 27  0  0  0  0  0  0  0  0999 V2000
  -28.1229   -1.3353   28.4874 O   0  0  0  0  0  0  0  0  0  0  0  0
  -28.5208   -0.4363   29.0779 C   0  0  0  0  0  0  0  0  0  0  0  0
  -28.5894    0.5916   28.9464 C   0  0  0  0  0  0  0  0  0  0  0  0
  -28.7865   -0.8872   30.4874 N   0  0  0  0  0  0  0  0  0  0  0  0
  -27.7841    1.2822   27.9869 C   0  0  0  0  0  0  0  0  0  0  0  0
  -27.2940    2.5462   27.9405 C   0  0  0  0  0  0  0  0  0  0  0  0
  -26.4932    3.1208   26.8267 C   0  0  0  0  0  0  0  0  0  0  0  0
  -26.0139    2.2175   25.8520 C   0  0  0  0  0  0  0  0  0  0  0  0
  -26.4277    0.9050   25.9133 C   0  0  0  0  0  0  0  0  0  0  0  0
  -27.2284    0.4525   26.9170 C   0  0  0  0  0  0  0  0  0  0  0  0
  -29.2247   -0.0437   31.5440 C   0  0  0  0  0  0  0  0  0  0  0  0
  -28.6879   -2.3562   30.8402 C   0  0  0  0  0  0  0  0  0  0  0  0
  -30.3430    0.4876   31.2544 C   0  0  0  0  0  0  0  0  0  0  0  0
  -30.2825    1.7476   30.3557 C   0  0  0  0  0  0  0  0  0  0  0  0
  -29.4445    1.8040   29.4964 C   0  0  0  0  0  0  0  0  0  0  0  0
  -31.2430    2.8186   30.5527 C   0  0  0  0  0  0  0  0  0  0  0  0
  -32.0628    2.8496   31.3048 O   0  0  0  0  0  0  0  0  0  0  0  0
  -31.0740    3.8820   29.6552 N   0  0  0  0  0  0  0  0  0  0  0  0
  -31.8651    5.0241   29.6847 C   0  0  0  0  0  0  0  0  0  0  0  0
  -27.4419   -2.8046   30.6438 C   0  0  0  0  0  0  0  0  0  0  0  0
  -27.2991   -4.2053   30.1288 C   0  0  0  0  0  0  0  0  0  0  0  0
  -28.2866   -4.9301   30.3404 F   0  0  0  0  0  0  0  0  0  0  0  0
  -26.3183   -4.6983   29.5509 F   0  0  0  0  0  0  0  0  0  0  0  0
  -25.9374    0.0010   24.9130 C   0  0  0  0  0  0  0  0  0  0  0  0
  -31.7492    5.7815   28.6490 C   0  0  0  0  0  0  0  0  0  0  0  0
  -32.2507    6.8581   28.3483 C   0  0  0  0  0  0  0  0  0  0  0  0
  1  2  2  0
  2  3  1  0
  2  4  1  0
  3  5  1  0
  4 11  1  0
  4 12  1  0
 11 13  1  0
 13 14  1  0
  3 15  1  0
 14 15  1  0
 14 16  1  0
 16 17  2  0
 16 18  1  0
 18 19  1  0
 12 20  1  0
 20 21  2  3
 21 22  1  0
 21 23  1  0
  9 24  1  0
 19 25  2  3
 25 26  1  0
  5  6  2  0
  6  7  1  0
  7  8  2  0
  8  9  1  0
  9 10  2  0
 10  5  1  0
M  END

$$$$
