No_1167-gen_results/8p0m/2024-11-26-14-13-15/
     RDKit          3D

 23 25  0  0  0  0  0  0  0  0999 V2000
  -28.0162   -0.8135   28.8779 C   0  0  0  0  0  0  0  0  0  0  0  0
  -28.4690   -0.7850   29.8287 C   0  0  0  0  0  0  0  0  0  0  0  0
  -26.5042   -0.7777   28.8766 C   0  0  0  0  0  0  0  0  0  0  0  0
  -25.8103   -0.8531   30.1028 C   0  0  0  0  0  0  0  0  0  0  0  0
  -30.0136   -0.8410   29.8508 C   0  0  0  0  0  0  0  0  0  0  0  0
  -26.5670   -0.8850   31.2517 C   0  0  0  0  0  0  0  0  0  0  0  0
  -27.9411   -0.9069   31.1850 C   0  0  0  0  0  0  0  0  0  0  0  0
  -30.6563   -1.6921   30.1809 O   0  0  0  0  0  0  0  0  0  0  0  0
  -30.6002    0.3117   29.2879 N   0  0  0  0  0  0  0  0  0  0  0  0
  -32.0122    0.3629   29.1074 C   0  0  0  0  0  0  0  0  0  0  0  0
  -29.8375    1.4756   28.8674 C   0  0  0  0  0  0  0  0  0  0  0  0
  -30.0220    1.7941   27.6448 C   0  0  0  0  0  0  0  0  0  0  0  0
  -32.2950    0.9219   27.7777 C   0  0  0  0  0  0  0  0  0  0  0  0
  -33.6719    0.9100   27.3624 C   0  0  0  0  0  0  0  0  0  0  0  0
  -31.3499    1.6925   27.1020 C   0  0  0  0  0  0  0  0  0  0  0  0
  -34.5567    0.5810   28.0548 N   0  0  0  0  0  0  0  0  0  0  0  0
  -33.9211    1.1925   26.1314 O   0  0  0  0  0  0  0  0  0  0  0  0
  -35.7208    0.3921   27.9918 C   0  0  0  0  0  0  0  0  0  0  0  0
  -25.6446   -0.6756   27.6564 C   0  0  0  0  0  0  0  0  0  0  0  0
  -24.3370   -0.2220   27.7753 C   0  0  0  0  0  0  0  0  0  0  0  0
  -23.6811   -0.4576   29.0383 C   0  0  0  0  0  0  0  0  0  0  0  0
  -24.3952   -0.6478   30.1607 C   0  0  0  0  0  0  0  0  0  0  0  0
  -22.1986   -0.2282   29.0816 C   0  0  0  0  0  0  0  0  0  0  0  0
  2  5  1  0
  5  8  2  0
  5  9  1  0
  9 10  1  0
  9 11  1  0
 10 13  1  0
 13 14  1  0
 12 15  1  0
 13 15  1  0
 14 16  1  0
 14 17  2  0
 16 18  1  0
 21 23  1  0
 12 11  1  0
  4 22  2  0
 22 21  1  0
 21 20  2  0
 20 19  1  0
 19  3  2  0
  1  2  2  0
  2  7  1  0
  7  6  2  0
  6  4  1  0
  4  3  1  0
  3  1  1  0
M  END

$$$$
