No_1450-gen_results/8p0m/2024-11-26-14-13-15/
     RDKit          3D

 33 36  0  0  0  0  0  0  0  0999 V2000
  -28.1229   -1.3353   28.4874 O   0  0  0  0  0  0  0  0  0  0  0  0
  -27.0637   -0.8242   28.8687 C   0  0  0  0  0  0  0  0  0  0  0  0
  -26.4017   -0.0623   28.6224 C   0  0  0  0  0  0  0  0  0  0  0  0
  -26.3805   -1.7991   29.9619 N   0  0  0  0  0  0  0  0  0  0  0  0
  -25.0334    0.3743   29.0484 C   0  0  0  0  0  0  0  0  0  0  0  0
  -24.2291    1.4474   28.6285 C   0  0  0  0  0  0  0  0  0  0  0  0
  -24.7930    2.2384   27.5681 C   0  0  0  0  0  0  0  0  0  0  0  0
  -26.0246    1.9553   27.0799 C   0  0  0  0  0  0  0  0  0  0  0  0
  -26.7498    0.9381   27.4878 C   0  0  0  0  0  0  0  0  0  0  0  0
  -26.7751   -2.9391   30.1498 C   0  0  0  0  0  0  0  0  0  0  0  0
  -23.8177    3.5841   27.0636 Cl  0  0  0  0  0  0  0  0  0  0  0  0
  -22.9045    1.6895   29.1869 C   0  0  0  0  0  0  0  0  0  0  0  0
  -22.4648    0.9565   30.0013 O   0  0  0  0  0  0  0  0  0  0  0  0
  -22.1939    2.6290   28.6632 O   0  0  0  0  0  0  0  0  0  0  0  0
  -26.0537   -4.0550   29.3751 C   0  0  0  0  0  0  0  0  0  0  0  0
  -24.7766   -3.6877   28.9553 C   0  0  0  0  0  0  0  0  0  0  0  0
  -27.9729   -3.2077   30.6472 N   0  0  0  0  0  0  0  0  0  0  0  0
  -28.7245   -2.2787   31.2750 C   0  0  0  0  0  0  0  0  0  0  0  0
  -28.5577   -4.5449   30.7098 C   0  0  0  0  0  0  0  0  0  0  0  0
  -23.8889   -4.7355   28.5663 C   0  0  0  0  0  0  0  0  0  0  0  0
  -24.4902   -5.9885   28.6219 C   0  0  0  0  0  0  0  0  0  0  0  0
  -26.0760   -5.4432   29.5640 C   0  0  0  0  0  0  0  0  0  0  0  0
  -30.0754   -4.4415   30.8677 C   0  0  0  0  0  0  0  0  0  0  0  0
  -30.2821   -3.1985   31.2848 C   0  0  0  0  0  0  0  0  0  0  0  0
  -30.7905   -4.7655   29.6204 C   0  0  0  0  0  0  0  0  0  0  0  0
  -32.2045   -4.9353   29.5483 Cl  0  0  0  0  0  0  0  0  0  0  0  0
  -30.4600   -5.4373   31.9738 C   0  0  0  0  0  0  0  0  0  0  0  0
  -31.2415   -4.9243   32.9919 C   0  0  0  0  0  0  0  0  0  0  0  0
  -31.4923   -5.7395   33.9284 N   0  0  0  0  0  0  0  0  0  0  0  0
  -30.1239   -6.7985   31.9309 C   0  0  0  0  0  0  0  0  0  0  0  0
  -30.3712   -7.6560   32.9449 C   0  0  0  0  0  0  0  0  0  0  0  0
  -31.0762   -7.1000   34.0149 C   0  0  0  0  0  0  0  0  0  0  0  0
  -30.0204   -4.9100   28.5523 O   0  0  0  0  0  0  0  0  0  0  0  0
  1  2  2  0
  2  3  1  0
  2  4  1  0
  4 10  1  0
  7 11  1  0
  6 12  1  0
 12 13  1  0
 12 14  2  0
 10 15  1  0
 15 16  1  0
 10 17  1  0
 17 18  1  0
 17 19  1  0
 16 20  2  0
 20 21  1  0
 15 22  1  0
 21 22  2  0
 19 23  1  0
 18 24  1  0
 23 24  1  0
 23 25  1  0
 25 26  1  0
 23 27  1  0
 25 33  2  0
  3  5  2  0
  5  6  1  0
  6  7  2  0
  7  8  1  0
  8  9  2  0
  9  3  1  0
 27 28  2  0
 28 29  1  0
 29 32  2  0
 32 31  1  0
 31 30  2  0
 30 27  1  0
M  END

$$$$
