No_1845-gen_results/8p0m/2024-11-26-14-13-15/
     RDKit          3D

 14 15  0  0  0  0  0  0  0  0999 V2000
  -28.0162   -0.8135   28.8779 C   0  0  0  0  0  0  0  0  0  0  0  0
  -28.4690   -0.7850   29.8287 C   0  0  0  0  0  0  0  0  0  0  0  0
  -28.1816    0.4277   28.1134 C   0  0  0  0  0  0  0  0  0  0  0  0
  -27.4498    0.6435   26.8500 C   0  0  0  0  0  0  0  0  0  0  0  0
  -26.1815    0.0357   26.7145 C   0  0  0  0  0  0  0  0  0  0  0  0
  -25.7800   -0.9326   27.6938 C   0  0  0  0  0  0  0  0  0  0  0  0
  -26.5568   -1.2134   28.7413 C   0  0  0  0  0  0  0  0  0  0  0  0
  -28.3333   -2.0293   30.7374 C   0  0  0  0  0  0  0  0  0  0  0  0
  -27.0914   -2.7240   30.5686 C   0  0  0  0  0  0  0  0  0  0  0  0
  -26.1478   -2.3643   29.5692 C   0  0  0  0  0  0  0  0  0  0  0  0
  -25.0191   -3.1467   29.3249 C   0  0  0  0  0  0  0  0  0  0  0  0
  -23.7496   -2.6206   29.6067 C   0  0  0  0  0  0  0  0  0  0  0  0
  -25.1573   -4.5071   29.0077 C   0  0  0  0  0  0  0  0  0  0  0  0
  -26.2904   -5.0413   29.0089 O   0  0  0  0  0  0  0  0  0  0  0  0
 10 11  1  0
 11 12  1  0
 11 13  1  0
 13 14  2  0
  1  2  2  0
  2  8  1  0
  8  9  2  0
  9 10  1  0
 10  7  2  0
  1  3  1  0
  3  4  2  0
  4  5  1  0
  5  6  2  0
  6  7  1  0
  7  1  1  0
M  END

$$$$
