No_1659-gen_results/8p0m/2024-11-26-14-13-15/
     RDKit          3D

 27 29  0  0  0  0  0  0  0  0999 V2000
  -28.0162   -0.8135   28.8779 C   0  0  0  0  0  0  0  0  0  0  0  0
  -28.4690   -0.7850   29.8287 C   0  0  0  0  0  0  0  0  0  0  0  0
  -27.1356    0.2359   28.5352 C   0  0  0  0  0  0  0  0  0  0  0  0
  -26.8050    1.0509   29.2763 C   0  0  0  0  0  0  0  0  0  0  0  0
  -27.3158    1.1492   30.6054 C   0  0  0  0  0  0  0  0  0  0  0  0
  -28.1939    0.1246   30.9393 C   0  0  0  0  0  0  0  0  0  0  0  0
  -26.4862    0.2120   27.1229 C   0  0  0  0  0  0  0  0  0  0  0  0
  -25.1258    0.4926   27.0587 C   0  0  0  0  0  0  0  0  0  0  0  0
  -24.5837    1.4106   28.0035 C   0  0  0  0  0  0  0  0  0  0  0  0
  -23.2353    1.8780   27.9629 C   0  0  0  0  0  0  0  0  0  0  0  0
  -25.3996    1.6661   29.2395 C   0  0  0  0  0  0  0  0  0  0  0  0
  -22.2264    1.3998   28.1281 N   0  0  0  0  0  0  0  0  0  0  0  0
  -23.2819    3.1642   27.3808 O   0  0  0  0  0  0  0  0  0  0  0  0
  -21.9454    0.2037   28.8301 C   0  0  0  0  0  0  0  0  0  0  0  0
  -20.7884   -0.4376   28.6203 C   0  0  0  0  0  0  0  0  0  0  0  0
  -22.6941   -0.1991   29.9118 C   0  0  0  0  0  0  0  0  0  0  0  0
  -22.5137   -1.4323   30.6121 C   0  0  0  0  0  0  0  0  0  0  0  0
  -23.4576   -1.6615   31.6804 C   0  0  0  0  0  0  0  0  0  0  0  0
  -24.5689   -0.7739   31.9204 C   0  0  0  0  0  0  0  0  0  0  0  0
  -25.4725   -1.1535   32.9065 C   0  0  0  0  0  0  0  0  0  0  0  0
  -26.6092   -0.2083   33.1376 C   0  0  0  0  0  0  0  0  0  0  0  0
  -27.4681   -0.5556   34.1766 C   0  0  0  0  0  0  0  0  0  0  0  0
  -28.7397   -0.3630   34.0943 C   0  0  0  0  0  0  0  0  0  0  0  0
  -29.6135   -0.9170   35.0602 C   0  0  0  0  0  0  0  0  0  0  0  0
  -29.0865   -1.6362   36.1426 C   0  0  0  0  0  0  0  0  0  0  0  0
  -27.7438   -1.8339   36.2589 C   0  0  0  0  0  0  0  0  0  0  0  0
  -26.9004   -1.3187   35.2763 C   0  0  0  0  0  0  0  0  0  0  0  0
  9 10  1  0
 10 12  1  0
 10 13  2  0
 12 14  1  0
 14 15  2  0
 14 16  1  0
 16 17  2  3
 17 18  1  0
 18 19  2  3
 19 20  1  0
 20 21  2  3
 21 22  1  0
  1  2  2  0
  2  6  1  0
  6  5  2  0
  5  4  1  0
  3  1  1  0
 22 23  2  0
 23 24  1  0
 24 25  2  0
 25 26  1  0
 26 27  2  0
 27 22  1  0
  3  4  2  0
  4 11  1  0
 11  9  2  0
  9  8  1  0
  8  7  2  0
  7  3  1  0
M  END

$$$$
