No_1803-gen_results/8p0m/2024-11-26-14-13-15/
     RDKit          3D

 10 10  0  0  0  0  0  0  0  0999 V2000
  -28.0544   -1.0498   28.7246 N   0  0  0  0  0  0  0  0  0  0  0  0
  -27.7460   -0.0733   29.0098 C   0  0  0  0  0  0  0  0  0  0  0  0
  -27.0964    0.7843   28.1008 C   0  0  0  0  0  0  0  0  0  0  0  0
  -26.8414    0.3495   26.8004 C   0  0  0  0  0  0  0  0  0  0  0  0
  -26.2093    1.1856   25.8565 C   0  0  0  0  0  0  0  0  0  0  0  0
  -25.6913    2.4070   26.2238 C   0  0  0  0  0  0  0  0  0  0  0  0
  -25.8808    2.8844   27.5292 C   0  0  0  0  0  0  0  0  0  0  0  0
  -26.5196    2.1155   28.3934 C   0  0  0  0  0  0  0  0  0  0  0  0
  -27.2800    0.1416   30.4173 C   0  0  0  0  0  0  0  0  0  0  0  0
  -27.8597   -0.7023   31.3988 C   0  0  0  0  0  0  0  0  0  0  0  0
  1  2  2  0
  2  3  1  0
  2  9  1  0
  9 10  1  0
  3  4  2  0
  4  5  1  0
  5  6  2  0
  6  7  1  0
  7  8  2  0
  8  3  1  0
M  END

$$$$
