No_1078-gen_results/8p0m/2024-11-26-14-13-15/
     RDKit          3D

 10 10  0  0  0  0  0  0  0  0999 V2000
  -28.0162   -0.8135   28.8779 C   0  0  0  0  0  0  0  0  0  0  0  0
  -28.4690   -0.7850   29.8287 C   0  0  0  0  0  0  0  0  0  0  0  0
  -27.0871    0.2903   28.6377 C   0  0  0  0  0  0  0  0  0  0  0  0
  -26.7676    1.0274   29.4716 C   0  0  0  0  0  0  0  0  0  0  0  0
  -29.4593   -1.9217   30.2024 C   0  0  0  0  0  0  0  0  0  0  0  0
  -27.3079    1.0334   30.7802 C   0  0  0  0  0  0  0  0  0  0  0  0
  -28.2256   -0.0215   31.0470 C   0  0  0  0  0  0  0  0  0  0  0  0
  -29.7925   -1.7203   31.5943 F   0  0  0  0  0  0  0  0  0  0  0  0
  -28.8428   -3.0980   30.1712 F   0  0  0  0  0  0  0  0  0  0  0  0
  -30.5106   -1.9650   29.5146 F   0  0  0  0  0  0  0  0  0  0  0  0
  2  5  1  0
  5  8  1  0
  5  9  1  0
  5 10  1  0
  1  2  2  0
  2  7  1  0
  7  6  2  0
  6  4  1  0
  4  3  2  0
  3  1  1  0
M  END

$$$$
