No_1304-gen_results/8p0m/2024-11-26-14-13-15/
     RDKit          3D

 25 26  0  0  0  0  0  0  0  0999 V2000
  -28.0162   -0.8135   28.8779 C   0  0  0  0  0  0  0  0  0  0  0  0
  -27.0636   -0.1190   28.6079 C   0  0  0  0  0  0  0  0  0  0  0  0
  -27.0010    0.6913   27.4910 C   0  0  0  0  0  0  0  0  0  0  0  0
  -28.1373    0.7363   26.6350 C   0  0  0  0  0  0  0  0  0  0  0  0
  -28.1438    1.4322   25.4880 C   0  0  0  0  0  0  0  0  0  0  0  0
  -29.2801   -0.5524   28.2479 C   0  0  0  0  0  0  0  0  0  0  0  0
  -29.2552    0.0950   27.0446 C   0  0  0  0  0  0  0  0  0  0  0  0
  -27.2947    1.2701   24.6340 F   0  0  0  0  0  0  0  0  0  0  0  0
  -28.0747    2.8525   25.7005 F   0  0  0  0  0  0  0  0  0  0  0  0
  -29.4007    1.3814   24.8212 F   0  0  0  0  0  0  0  0  0  0  0  0
  -28.0240   -1.6080   30.1960 C   0  0  0  0  0  0  0  0  0  0  0  0
  -27.1088   -2.4359   30.3739 O   0  0  0  0  0  0  0  0  0  0  0  0
  -28.7018   -1.2763   31.2442 N   0  0  0  0  0  0  0  0  0  0  0  0
  -28.6891   -2.0828   32.4734 C   0  0  0  0  0  0  0  0  0  0  0  0
  -29.7146   -0.2330   31.2220 C   0  0  0  0  0  0  0  0  0  0  0  0
  -30.2112    0.1107   32.4635 C   0  0  0  0  0  0  0  0  0  0  0  0
  -29.2273   -1.5265   33.6173 C   0  0  0  0  0  0  0  0  0  0  0  0
  -30.1241   -0.5415   33.5890 C   0  0  0  0  0  0  0  0  0  0  0  0
  -31.1368    1.3612   32.3163 C   0  0  0  0  0  0  0  0  0  0  0  0
  -31.4796    2.2817   33.4724 Cl  0  0  0  0  0  0  0  0  0  0  0  0
  -31.6970    1.6691   31.0216 C   0  0  0  0  0  0  0  0  0  0  0  0
  -32.5300    1.0105   30.4533 N   0  0  0  0  0  0  0  0  0  0  0  0
  -33.0988    0.0118   30.7407 C   0  0  0  0  0  0  0  0  0  0  0  0
  -33.4385   -0.9151   30.2407 C   0  0  0  0  0  0  0  0  0  0  0  0
  -34.0536   -2.1272   30.7473 C   0  0  0  0  0  0  0  0  0  0  0  0
  4  5  1  0
  5  8  1  0
  5  9  1  0
  5 10  1  0
  1 11  1  0
 11 12  2  0
 11 13  1  0
 13 14  1  0
 13 15  1  0
 16 18  1  0
 17 18  1  0
 16 19  1  0
 19 20  1  0
 19 21  1  0
 21 22  1  0
 22 23  1  0
 23 24  2  3
 24 25  1  0
 14 17  1  0
 16 15  1  0
  1  2  2  0
  2  3  1  0
  3  4  2  0
  4  7  1  0
  7  6  2  0
  6  1  1  0
M  END

$$$$
