No_1579-gen_results/8p0m/2024-11-26-14-13-15/
     RDKit          3D

 35 37  0  0  0  0  0  0  0  0999 V2000
  -28.0162   -0.8135   28.8779 C   0  0  0  0  0  0  0  0  0  0  0  0
  -27.0636   -0.1189   28.6079 C   0  0  0  0  0  0  0  0  0  0  0  0
  -25.7647   -0.3897   29.0360 C   0  0  0  0  0  0  0  0  0  0  0  0
  -25.5296   -1.5302   29.9014 C   0  0  0  0  0  0  0  0  0  0  0  0
  -26.6888   -2.2893   30.1810 C   0  0  0  0  0  0  0  0  0  0  0  0
  -27.8727   -1.9508   29.7373 C   0  0  0  0  0  0  0  0  0  0  0  0
  -28.9304   -2.7298   30.1154 O   0  0  0  0  0  0  0  0  0  0  0  0
  -24.5394    0.4211   28.7421 C   0  0  0  0  0  0  0  0  0  0  0  0
  -24.5259    1.2743   27.7265 C   0  0  0  0  0  0  0  0  0  0  0  0
  -23.3174    1.9856   27.4033 C   0  0  0  0  0  0  0  0  0  0  0  0
  -22.1311    1.7374   28.0503 C   0  0  0  0  0  0  0  0  0  0  0  0
  -23.2983    0.1369   29.3770 C   0  0  0  0  0  0  0  0  0  0  0  0
  -22.1005    0.8185   29.0410 C   0  0  0  0  0  0  0  0  0  0  0  0
  -29.3101   -2.7539   31.4531 C   0  0  0  0  0  0  0  0  0  0  0  0
  -29.7956   -4.0479   31.8129 C   0  0  0  0  0  0  0  0  0  0  0  0
  -31.0287   -4.2081   31.6937 O   0  0  0  0  0  0  0  0  0  0  0  0
  -31.8680   -3.4144   31.3926 C   0  0  0  0  0  0  0  0  0  0  0  0
  -29.0179   -5.1022   31.2367 O   0  0  0  0  0  0  0  0  0  0  0  0
  -33.0337   -3.6830   30.9794 C   0  0  0  0  0  0  0  0  0  0  0  0
  -33.6957   -3.4733   30.1960 Cl  0  0  0  0  0  0  0  0  0  0  0  0
  -29.3012   -1.7009   32.3201 C   0  0  0  0  0  0  0  0  0  0  0  0
  -29.1012   -0.6655   32.0419 N   0  0  0  0  0  0  0  0  0  0  0  0
  -29.9211    0.2226   31.3856 C   0  0  0  0  0  0  0  0  0  0  0  0
  -30.8653   -0.3668   30.9032 F   0  0  0  0  0  0  0  0  0  0  0  0
  -30.4233    1.2516   32.3399 C   0  0  0  0  0  0  0  0  0  0  0  0
  -30.8408    2.3517   31.9775 C   0  0  0  0  0  0  0  0  0  0  0  0
  -31.4163    3.3525   32.8693 C   0  0  0  0  0  0  0  0  0  0  0  0
  -27.7336   -0.0490   32.4385 C   0  0  0  0  0  0  0  0  0  0  0  0
  -31.4063    3.0360   34.2297 C   0  0  0  0  0  0  0  0  0  0  0  0
  -30.9133    1.8209   34.6637 C   0  0  0  0  0  0  0  0  0  0  0  0
  -30.3896    0.8972   33.7334 C   0  0  0  0  0  0  0  0  0  0  0  0
  -27.0808   -0.5949   33.5238 C   0  0  0  0  0  0  0  0  0  0  0  0
  -25.7421   -0.1255   33.7220 C   0  0  0  0  0  0  0  0  0  0  0  0
  -25.1965    0.8032   32.8277 C   0  0  0  0  0  0  0  0  0  0  0  0
  -27.0970    0.9846   31.7059 C   0  0  0  0  0  0  0  0  0  0  0  0
  6  7  1  0
  3  8  1  0
  7 14  1  0
 14 15  1  0
 15 16  1  0
 16 17  1  0
 15 18  1  0
 17 19  2  3
 19 20  1  0
 14 21  1  0
 21 22  1  0
 22 23  1  0
 23 24  1  0
 23 25  1  0
 22 28  1  0
 28 32  2  3
 32 33  1  0
 33 34  2  0
 28 35  1  0
 25 26  2  0
 26 27  1  0
 27 29  2  0
 29 30  1  0
 30 31  2  0
 31 25  1  0
  1  2  2  0
  2  3  1  0
  3  4  2  0
  4  5  1  0
  5  6  2  0
  6  1  1  0
  8  9  2  0
  9 10  1  0
 10 11  2  0
 11 13  1  0
 13 12  2  0
 12  8  1  0
M  END

$$$$
