No_1009-gen_results/8p0m/2024-11-26-14-13-15/
     RDKit          3D

 13 13  0  0  0  0  0  0  0  0999 V2000
  -28.1146   -0.6256   29.0813 Br  0  0  0  0  0  0  0  0  0  0  0  0
  -28.0686    0.2105   30.1716 C   0  0  0  0  0  0  0  0  0  0  0  0
  -28.0003    0.8873   30.9176 C   0  0  0  0  0  0  0  0  0  0  0  0
  -27.7329    1.7228   31.9805 C   0  0  0  0  0  0  0  0  0  0  0  0
  -27.3559    2.7820   32.5146 C   0  0  0  0  0  0  0  0  0  0  0  0
  -26.8486    3.8421   33.1374 C   0  0  0  0  0  0  0  0  0  0  0  0
  -26.3252    4.9328   33.0509 N   0  0  0  0  0  0  0  0  0  0  0  0
  -25.6803    5.6570   33.9931 C   0  0  0  0  0  0  0  0  0  0  0  0
  -26.2623    5.5170   31.6833 C   0  0  0  0  0  0  0  0  0  0  0  0
  -26.7532    3.3940   34.5703 O   0  0  0  0  0  0  0  0  0  0  0  0
  -25.8865    6.7670   31.5683 C   0  0  0  0  0  0  0  0  0  0  0  0
  -25.2400    7.0808   33.7830 C   0  0  0  0  0  0  0  0  0  0  0  0
  -25.2764    7.5601   32.5445 C   0  0  0  0  0  0  0  0  0  0  0  0
  1  2  1  0
  2  3  3  0
  3  4  1  0
  4  5  2  3
  5  6  1  0
  6  7  1  0
  7  8  1  0
  7  9  1  0
  6 10  2  0
 11 13  1  0
 12 13  1  0
  8 12  1  0
 11  9  1  0
M  END

$$$$
