No_1508-gen_results/8p0m/2024-11-26-14-13-15/
     RDKit          3D

 27 29  0  0  0  0  0  0  0  0999 V2000
  -28.0162   -0.8135   28.8779 C   0  0  0  0  0  0  0  0  0  0  0  0
  -28.4690   -0.7850   29.8287 C   0  0  0  0  0  0  0  0  0  0  0  0
  -28.1816    0.4277   28.1134 C   0  0  0  0  0  0  0  0  0  0  0  0
  -28.9841    1.4155   28.5154 C   0  0  0  0  0  0  0  0  0  0  0  0
  -29.3802    0.1384   30.4612 C   0  0  0  0  0  0  0  0  0  0  0  0
  -29.5415    1.2736   29.7242 C   0  0  0  0  0  0  0  0  0  0  0  0
  -27.4586    0.4934   26.7701 C   0  0  0  0  0  0  0  0  0  0  0  0
  -26.0264    0.3840   26.7617 C   0  0  0  0  0  0  0  0  0  0  0  0
  -25.2370    0.2056   27.9261 C   0  0  0  0  0  0  0  0  0  0  0  0
  -23.8683    0.2883   27.8607 C   0  0  0  0  0  0  0  0  0  0  0  0
  -23.2742    0.9710   26.8042 C   0  0  0  0  0  0  0  0  0  0  0  0
  -24.0368    1.4183   25.7266 C   0  0  0  0  0  0  0  0  0  0  0  0
  -25.3854    1.1654   25.6866 C   0  0  0  0  0  0  0  0  0  0  0  0
  -28.1918    0.3603   25.6210 C   0  0  0  0  0  0  0  0  0  0  0  0
  -28.5618    1.0381   24.8126 N   0  0  0  0  0  0  0  0  0  0  0  0
  -28.4722    2.4553   25.1049 C   0  0  0  0  0  0  0  0  0  0  0  0
  -22.8170   -0.0122   28.8939 C   0  0  0  0  0  0  0  0  0  0  0  0
  -23.2395   -0.6144   30.0135 N   0  0  0  0  0  0  0  0  0  0  0  0
  -21.6280    0.4109   28.8828 O   0  0  0  0  0  0  0  0  0  0  0  0
  -22.3888   -1.0079   31.1742 C   0  0  0  0  0  0  0  0  0  0  0  0
  -29.6391    3.2387   24.5170 C   0  0  0  0  0  0  0  0  0  0  0  0
  -30.8545    2.9785   25.1239 C   0  0  0  0  0  0  0  0  0  0  0  0
  -31.9454    3.5643   24.4540 C   0  0  0  0  0  0  0  0  0  0  0  0
  -33.1663    3.7179   25.0590 C   0  0  0  0  0  0  0  0  0  0  0  0
  -33.3247    3.0884   26.3338 C   0  0  0  0  0  0  0  0  0  0  0  0
  -32.3771    2.4966   26.8387 C   0  0  0  0  0  0  0  0  0  0  0  0
  -31.0624    2.5236   26.4131 C   0  0  0  0  0  0  0  0  0  0  0  0
  3  7  1  0
  7 14  1  0
 14 15  2  3
 15 16  1  0
 10 17  1  0
 17 18  1  0
 17 19  2  0
 18 20  1  0
 16 21  1  0
 21 22  1  0
  7  8  1  0
 22 23  2  0
 23 24  1  0
 24 25  2  0
 25 26  1  0
 26 27  2  0
 27 22  1  0
  8  9  2  0
  9 10  1  0
 10 11  2  0
 11 12  1  0
 12 13  2  0
 13  8  1  0
  1  2  2  0
  2  5  1  0
  5  6  2  0
  6  4  1  0
  4  3  2  0
  3  1  1  0
M  END

$$$$
