No_171-gen_results/8p0m/2024-11-26-14-13-15/
     RDKit          3D

 13 13  0  0  0  0  0  0  0  0999 V2000
  -28.1229   -1.3353   28.4874 O   0  0  0  0  0  0  0  0  0  0  0  0
  -28.5208   -0.4363   29.0779 C   0  0  0  0  0  0  0  0  0  0  0  0
  -27.6655    0.1129   30.0346 C   0  0  0  0  0  0  0  0  0  0  0  0
  -29.7419    0.1102   28.8873 N   0  0  0  0  0  0  0  0  0  0  0  0
  -27.8398    1.2287   30.6424 C   0  0  0  0  0  0  0  0  0  0  0  0
  -30.6012   -0.3458   28.0242 C   0  0  0  0  0  0  0  0  0  0  0  0
  -26.3652   -0.6286   30.3303 C   0  0  0  0  0  0  0  0  0  0  0  0
  -26.9238    1.7551   31.6460 C   0  0  0  0  0  0  0  0  0  0  0  0
  -27.0676    3.0015   32.2357 C   0  0  0  0  0  0  0  0  0  0  0  0
  -25.4831   -0.1952   31.3680 C   0  0  0  0  0  0  0  0  0  0  0  0
  -25.7030    1.0513   31.9898 C   0  0  0  0  0  0  0  0  0  0  0  0
  -28.1051    3.4166   32.6083 C   0  0  0  0  0  0  0  0  0  0  0  0
  -28.3263    4.7742   33.1791 C   0  0  0  0  0  0  0  0  0  0  0  0
  1  2  2  0
  2  3  1  0
  2  4  1  0
  4  6  1  0
  9 12  1  0
 12 13  2  0
  9  8  1  0
  3  5  2  0
  5  8  1  0
  8 11  2  0
 11 10  1  0
 10  7  2  0
  7  3  1  0
M  END

$$$$
