No_1485-gen_results/8p0m/2024-11-26-14-13-15/
     RDKit          3D

 20 22  0  0  0  0  0  0  0  0999 V2000
  -28.0162   -0.8135   28.8779 C   0  0  0  0  0  0  0  0  0  0  0  0
  -28.4690   -0.7850   29.8287 C   0  0  0  0  0  0  0  0  0  0  0  0
  -26.5455   -0.8762   28.8500 C   0  0  0  0  0  0  0  0  0  0  0  0
  -25.8041   -1.0324   30.0571 C   0  0  0  0  0  0  0  0  0  0  0  0
  -27.9437   -0.9869   31.2075 C   0  0  0  0  0  0  0  0  0  0  0  0
  -26.5825   -1.0386   31.2231 C   0  0  0  0  0  0  0  0  0  0  0  0
  -29.9648   -0.7353   29.8902 N   0  0  0  0  0  0  0  0  0  0  0  0
  -30.7710   -1.5353   30.3549 C   0  0  0  0  0  0  0  0  0  0  0  0
  -32.1409   -1.3743   30.1446 C   0  0  0  0  0  0  0  0  0  0  0  0
  -30.5359   -0.0032   28.8359 C   0  0  0  0  0  0  0  0  0  0  0  0
  -31.8290    0.1800   28.6251 C   0  0  0  0  0  0  0  0  0  0  0  0
  -32.6736   -0.6202   29.3126 C   0  0  0  0  0  0  0  0  0  0  0  0
  -24.3715   -1.0826   30.0647 C   0  0  0  0  0  0  0  0  0  0  0  0
  -23.7248    0.2000   30.0495 C   0  0  0  0  0  0  0  0  0  0  0  0
  -22.5197    0.3499   29.2912 C   0  0  0  0  0  0  0  0  0  0  0  0
  -21.8674   -0.8990   28.9489 C   0  0  0  0  0  0  0  0  0  0  0  0
  -22.5790   -2.0535   28.9254 C   0  0  0  0  0  0  0  0  0  0  0  0
  -23.8028   -2.2006   29.4836 C   0  0  0  0  0  0  0  0  0  0  0  0
  -34.0159   -0.5332   29.1473 O   0  0  0  0  0  0  0  0  0  0  0  0
  -25.9198   -0.6364   27.6891 F   0  0  0  0  0  0  0  0  0  0  0  0
  2  7  1  0
  7  8  1  0
  7 10  1  0
  9 12  1  0
 11 12  1  0
  4 13  1  0
 12 19  1  0
  3 20  1  0
  8  9  1  0
 11 10  1  0
 13 14  2  0
 14 15  1  0
 15 16  2  0
 16 17  1  0
 17 18  2  0
 18 13  1  0
  1  2  2  0
  2  5  1  0
  5  6  2  0
  6  4  1  0
  4  3  2  0
  3  1  1  0
M  END

$$$$
