No_1689-gen_results/8p0m/2024-11-26-14-13-15/
     RDKit          3D

 20 22  0  0  0  0  0  0  0  0999 V2000
  -28.0162   -0.8135   28.8779 C   0  0  0  0  0  0  0  0  0  0  0  0
  -27.0636   -0.1189   28.6079 C   0  0  0  0  0  0  0  0  0  0  0  0
  -27.0010    0.6913   27.4910 C   0  0  0  0  0  0  0  0  0  0  0  0
  -25.8548    1.4825   27.0830 C   0  0  0  0  0  0  0  0  0  0  0  0
  -24.6901    1.4526   27.8807 C   0  0  0  0  0  0  0  0  0  0  0  0
  -24.7379    0.6010   29.0416 C   0  0  0  0  0  0  0  0  0  0  0  0
  -25.8234   -0.1688   29.3887 C   0  0  0  0  0  0  0  0  0  0  0  0
  -28.7350   -0.4637   30.1419 C   0  0  0  0  0  0  0  0  0  0  0  0
  -28.7831    0.6118   30.5175 C   0  0  0  0  0  0  0  0  0  0  0  0
  -29.5935    0.9569   31.7959 C   0  0  0  0  0  0  0  0  0  0  0  0
  -30.1904   -0.1138   32.4264 C   0  0  0  0  0  0  0  0  0  0  0  0
  -29.5331   -1.5073   30.9239 C   0  0  0  0  0  0  0  0  0  0  0  0
  -30.1678   -1.3200   32.0082 C   0  0  0  0  0  0  0  0  0  0  0  0
  -23.2900    2.2925   27.5015 Cl  0  0  0  0  0  0  0  0  0  0  0  0
  -28.0509    0.7776   26.6395 N   0  0  0  0  0  0  0  0  0  0  0  0
  -28.0205    0.7724   25.3279 C   0  0  0  0  0  0  0  0  0  0  0  0
  -28.9337    0.9582   24.6726 C   0  0  0  0  0  0  0  0  0  0  0  0
  -30.1556    0.6248   25.0685 C   0  0  0  0  0  0  0  0  0  0  0  0
  -30.3703    0.4354   26.4315 C   0  0  0  0  0  0  0  0  0  0  0  0
  -29.2940    0.5958   27.2556 C   0  0  0  0  0  0  0  0  0  0  0  0
  1  2  1  0
  1  8  1  0
  5 14  1  0
  3 15  1  0
 15 16  1  0
 17 18  1  0
 15 20  1  0
 19 20  1  0
 16 17  1  0
 18 19  1  0
  2  3  1  0
  3  4  2  0
  4  5  1  0
  5  6  2  0
  6  7  1  0
  7  2  2  0
  8  9  2  0
  9 10  1  0
 10 11  2  0
 11 13  1  0
 13 12  2  0
 12  8  1  0
M  END

$$$$
