No_1999-gen_results/8p0m/2024-11-26-14-13-15/
     RDKit          3D

 35 39  0  0  0  0  0  0  0  0999 V2000
  -28.0162   -0.8135   28.8779 C   0  0  0  0  0  0  0  0  0  0  0  0
  -27.0636   -0.1190   28.6079 C   0  0  0  0  0  0  0  0  0  0  0  0
  -25.7923   -0.4302   29.0761 C   0  0  0  0  0  0  0  0  0  0  0  0
  -24.5456    0.3494   28.8225 C   0  0  0  0  0  0  0  0  0  0  0  0
  -24.6586    1.4196   27.8878 C   0  0  0  0  0  0  0  0  0  0  0  0
  -25.9471    1.6811   27.3792 C   0  0  0  0  0  0  0  0  0  0  0  0
  -27.0439    0.9739   27.6871 C   0  0  0  0  0  0  0  0  0  0  0  0
  -28.9951   -0.6028   28.1730 F   0  0  0  0  0  0  0  0  0  0  0  0
  -28.4117   -0.6162   30.2431 F   0  0  0  0  0  0  0  0  0  0  0  0
  -23.4546    2.1453   27.5989 C   0  0  0  0  0  0  0  0  0  0  0  0
  -23.4455    3.1408   26.8395 N   0  0  0  0  0  0  0  0  0  0  0  0
  -22.1437    1.6581   28.0172 C   0  0  0  0  0  0  0  0  0  0  0  0
  -21.9735    0.7452   28.8808 N   0  0  0  0  0  0  0  0  0  0  0  0
  -23.1640   -0.0752   29.2474 C   0  0  0  0  0  0  0  0  0  0  0  0
  -22.9772   -1.1037   30.0544 N   0  0  0  0  0  0  0  0  0  0  0  0
  -24.5625    3.4057   26.0481 C   0  0  0  0  0  0  0  0  0  0  0  0
  -25.8544    2.8578   26.4341 C   0  0  0  0  0  0  0  0  0  0  0  0
  -21.1361    2.4205   27.7841 O   0  0  0  0  0  0  0  0  0  0  0  0
  -23.0946   -1.0268   31.4109 C   0  0  0  0  0  0  0  0  0  0  0  0
  -24.4553   -0.8619   32.0180 C   0  0  0  0  0  0  0  0  0  0  0  0
  -24.6818    0.4459   32.6701 C   0  0  0  0  0  0  0  0  0  0  0  0
  -26.0314    0.6380   33.1657 C   0  0  0  0  0  0  0  0  0  0  0  0
  -26.4930    1.9312   33.2964 C   0  0  0  0  0  0  0  0  0  0  0  0
  -25.7191    3.0517   32.8645 C   0  0  0  0  0  0  0  0  0  0  0  0
  -24.5589    2.7782   32.1042 C   0  0  0  0  0  0  0  0  0  0  0  0
  -24.1669    1.5729   31.9741 C   0  0  0  0  0  0  0  0  0  0  0  0
  -26.3198    4.4314   32.9625 C   0  0  0  0  0  0  0  0  0  0  0  0
  -27.1154    4.7278   33.7204 O   0  0  0  0  0  0  0  0  0  0  0  0
  -25.4508    5.3705   32.5173 O   0  0  0  0  0  0  0  0  0  0  0  0
  -26.0114    6.5929   32.1902 C   0  0  0  0  0  0  0  0  0  0  0  0
  -26.5753    7.2835   32.8607 C   0  0  0  0  0  0  0  0  0  0  0  0
  -25.5971    6.9121   30.7822 C   0  0  0  0  0  0  0  0  0  0  0  0
  -26.1383    8.0450   30.1408 C   0  0  0  0  0  0  0  0  0  0  0  0
  -27.1165    8.6012   32.3401 C   0  0  0  0  0  0  0  0  0  0  0  0
  -26.8402    8.9303   31.0182 C   0  0  0  0  0  0  0  0  0  0  0  0
  1  2  1  0
  1  8  1  0
  1  9  1  0
 10 12  1  0
 12 13  1  0
  4 14  1  0
 13 14  1  0
 14 15  1  0
 12 18  2  0
 15 19  1  0
 19 20  1  0
 24 27  1  0
 27 28  2  0
 27 29  1  0
 29 30  1  0
 20 21  1  0
  6 17  1  0
 17 16  2  0
 16 11  1  0
 11 10  2  0
 10  5  1  0
  2  3  2  0
  3  4  1  0
  4  5  2  0
  5  6  1  0
  6  7  2  0
  7  2  1  0
 30 31  2  0
 31 34  1  0
 34 35  2  0
 35 33  1  0
 33 32  2  0
 32 30  1  0
 21 22  2  0
 22 23  1  0
 23 24  2  0
 24 25  1  0
 25 26  2  0
 26 21  1  0
M  END

$$$$
