No_1580-gen_results/8p0m/2024-11-26-14-13-15/
     RDKit          3D

 24 26  0  0  0  0  0  0  0  0999 V2000
  -28.0162   -0.8135   28.8779 C   0  0  0  0  0  0  0  0  0  0  0  0
  -28.4690   -0.7850   29.8287 C   0  0  0  0  0  0  0  0  0  0  0  0
  -27.0871    0.2903   28.6377 C   0  0  0  0  0  0  0  0  0  0  0  0
  -26.2516    0.4114   27.4223 C   0  0  0  0  0  0  0  0  0  0  0  0
  -28.3913    0.1041   30.9805 C   0  0  0  0  0  0  0  0  0  0  0  0
  -27.5332    1.1666   30.7866 C   0  0  0  0  0  0  0  0  0  0  0  0
  -26.8281    1.2557   29.6454 C   0  0  0  0  0  0  0  0  0  0  0  0
  -25.1894    0.4694   27.3614 N   0  0  0  0  0  0  0  0  0  0  0  0
  -26.9789    0.3974   26.2798 O   0  0  0  0  0  0  0  0  0  0  0  0
  -24.2071    0.5277   28.5047 C   0  0  0  0  0  0  0  0  0  0  0  0
  -23.6590    1.6921   28.8573 C   0  0  0  0  0  0  0  0  0  0  0  0
  -23.9312   -0.6653   29.1939 C   0  0  0  0  0  0  0  0  0  0  0  0
  -22.9797   -0.6261   30.2299 C   0  0  0  0  0  0  0  0  0  0  0  0
  -22.6374    1.7369   29.9176 C   0  0  0  0  0  0  0  0  0  0  0  0
  -22.3582    0.5992   30.5989 C   0  0  0  0  0  0  0  0  0  0  0  0
  -23.8875    2.8704   28.2366 O   0  0  0  0  0  0  0  0  0  0  0  0
  -27.3527    2.1938   31.8602 C   0  0  0  0  0  0  0  0  0  0  0  0
  -27.7230    2.1342   33.2518 Cl  0  0  0  0  0  0  0  0  0  0  0  0
  -26.7074    3.4685   31.3772 C   0  0  0  0  0  0  0  0  0  0  0  0
  -27.3725    4.5352   31.7812 C   0  0  0  0  0  0  0  0  0  0  0  0
  -26.4979    5.4643   32.3013 C   0  0  0  0  0  0  0  0  0  0  0  0
  -25.2391    5.8141   31.6524 C   0  0  0  0  0  0  0  0  0  0  0  0
  -24.8071    4.6590   30.8985 C   0  0  0  0  0  0  0  0  0  0  0  0
  -25.4197    3.4963   30.8985 C   0  0  0  0  0  0  0  0  0  0  0  0
  3  4  1  0
  4  8  1  0
  4  9  2  0
  8 10  1  0
 11 16  1  0
  6 17  1  0
 17 18  1  0
 17 19  1  0
 10 11  2  0
 11 14  1  0
 14 15  2  0
 15 13  1  0
 13 12  2  0
 12 10  1  0
  1  2  2  0
  2  5  1  0
  5  6  2  0
  6  7  1  0
  7  3  2  0
  3  1  1  0
 19 20  2  0
 20 21  1  0
 21 22  2  0
 22 23  1  0
 23 24  2  0
 24 19  1  0
M  END

$$$$
