No_1801-gen_results/8p0m/2024-11-26-14-13-15/
     RDKit          3D

 20 24  0  0  0  0  0  0  0  0999 V2000
  -28.0162   -0.8135   28.8779 C   0  0  0  0  0  0  0  0  0  0  0  0
  -28.4690   -0.7850   29.8287 C   0  0  0  0  0  0  0  0  0  0  0  0
  -27.1356    0.2359   28.5352 C   0  0  0  0  0  0  0  0  0  0  0  0
  -26.3351    0.2900   27.2835 C   0  0  0  0  0  0  0  0  0  0  0  0
  -28.3692    0.1957   30.9236 C   0  0  0  0  0  0  0  0  0  0  0  0
  -27.5158    1.2655   30.6540 C   0  0  0  0  0  0  0  0  0  0  0  0
  -26.8411    1.2942   29.4761 C   0  0  0  0  0  0  0  0  0  0  0  0
  -25.3614    0.7752   26.9672 C   0  0  0  0  0  0  0  0  0  0  0  0
  -24.5497    1.3390   27.4392 C   0  0  0  0  0  0  0  0  0  0  0  0
  -23.3175    1.9567   26.8906 C   0  0  0  0  0  0  0  0  0  0  0  0
  -23.3275    2.0410   25.5313 C   0  0  0  0  0  0  0  0  0  0  0  0
  -24.2050    1.3652   24.7812 C   0  0  0  0  0  0  0  0  0  0  0  0
  -25.2497    0.7666   25.3892 C   0  0  0  0  0  0  0  0  0  0  0  0
  -27.1809   -0.0876   26.2419 O   0  0  0  0  0  0  0  0  0  0  0  0
  -26.4202    0.1881   25.0961 C   0  0  0  0  0  0  0  0  0  0  0  0
  -27.2892    2.3325   31.6284 C   0  0  0  0  0  0  0  0  0  0  0  0
  -26.5651    3.2282   31.4243 C   0  0  0  0  0  0  0  0  0  0  0  0
  -25.8410    3.3477   30.1487 C   0  0  0  0  0  0  0  0  0  0  0  0
  -26.0200    2.3736   29.1879 C   0  0  0  0  0  0  0  0  0  0  0  0
  -24.5755    2.1672   28.6508 C   0  0  0  0  0  0  0  0  0  0  0  0
  3  4  1  0
  4 14  1  0
 13 15  1  0
 14 15  1  0
  9 20  1  0
 19 20  1  0
  4  8  1  0
  7 19  1  0
 19 18  2  0
 18 17  1  0
 17 16  2  0
 16  6  1  0
  8  9  2  0
  9 10  1  0
 10 11  2  0
 11 12  1  0
 12 13  2  0
 13  8  1  0
  1  2  2  0
  2  5  1  0
  5  6  2  0
  6  7  1  0
  7  3  2  0
  3  1  1  0
M  END

$$$$
