No_1419-gen_results/8p0m/2024-11-26-14-13-15/
     RDKit          3D

 16 17  0  0  0  0  0  0  0  0999 V2000
  -28.0162   -0.8135   28.8779 C   0  0  0  0  0  0  0  0  0  0  0  0
  -27.0636   -0.1189   28.6079 C   0  0  0  0  0  0  0  0  0  0  0  0
  -25.7647   -0.3897   29.0360 C   0  0  0  0  0  0  0  0  0  0  0  0
  -24.5516    0.4058   28.7646 C   0  0  0  0  0  0  0  0  0  0  0  0
  -24.6957    1.4480   27.7988 C   0  0  0  0  0  0  0  0  0  0  0  0
  -23.5821    2.2166   27.4626 C   0  0  0  0  0  0  0  0  0  0  0  0
  -22.3295    1.8428   27.9660 C   0  0  0  0  0  0  0  0  0  0  0  0
  -22.1809    0.8284   28.8814 C   0  0  0  0  0  0  0  0  0  0  0  0
  -23.3190    0.0774   29.2471 C   0  0  0  0  0  0  0  0  0  0  0  0
  -27.9056   -1.8765   29.8669 C   0  0  0  0  0  0  0  0  0  0  0  0
  -26.6648   -2.3322   30.2886 C   0  0  0  0  0  0  0  0  0  0  0  0
  -25.5477   -1.5609   29.9180 C   0  0  0  0  0  0  0  0  0  0  0  0
  -29.0812   -2.6967   30.2508 C   0  0  0  0  0  0  0  0  0  0  0  0
  -28.9860   -3.9005   30.3095 O   0  0  0  0  0  0  0  0  0  0  0  0
  -30.1349   -2.1495   30.4938 F   0  0  0  0  0  0  0  0  0  0  0  0
  -23.6877    3.1799   26.5439 O   0  0  0  0  0  0  0  0  0  0  0  0
  3  4  1  0
 10 13  1  0
 13 14  2  0
 13 15  1  0
  6 16  1  0
  1  2  2  0
  2  3  1  0
  3 12  2  0
 12 11  1  0
 11 10  2  0
 10  1  1  0
  4  5  2  0
  5  6  1  0
  6  7  2  0
  7  8  1  0
  8  9  2  0
  9  4  1  0
M  END

$$$$
