No_13-gen_results/8p0m/2024-11-26-14-13-15/
     RDKit          3D

 14 15  0  0  0  0  0  0  0  0999 V2000
  -28.0162   -0.8135   28.8779 C   0  0  0  0  0  0  0  0  0  0  0  0
  -28.4690   -0.7850   29.8287 C   0  0  0  0  0  0  0  0  0  0  0  0
  -28.1960    0.3478   28.0550 C   0  0  0  0  0  0  0  0  0  0  0  0
  -29.0191    1.3501   28.3782 C   0  0  0  0  0  0  0  0  0  0  0  0
  -28.3170   -1.9812   30.8560 C   0  0  0  0  0  0  0  0  0  0  0  0
  -29.5950    1.2859   29.6049 C   0  0  0  0  0  0  0  0  0  0  0  0
  -29.3465    0.2093   30.3749 C   0  0  0  0  0  0  0  0  0  0  0  0
  -27.6973   -1.8297   31.7371 O   0  0  0  0  0  0  0  0  0  0  0  0
  -28.8051   -3.1400   30.4048 O   0  0  0  0  0  0  0  0  0  0  0  0
  -27.4409    0.3500   26.6866 C   0  0  0  0  0  0  0  0  0  0  0  0
  -28.0094    0.6893   25.5309 C   0  0  0  0  0  0  0  0  0  0  0  0
  -29.3342    1.0403   25.5237 C   0  0  0  0  0  0  0  0  0  0  0  0
  -29.7624    1.9798   26.0604 C   0  0  0  0  0  0  0  0  0  0  0  0
  -29.7372    2.1720   27.3656 C   0  0  0  0  0  0  0  0  0  0  0  0
  2  5  1  0
  5  8  2  0
  5  9  1  0
  3 10  1  0
 10 11  2  0
 11 12  1  0
 12 13  2  0
  4 14  1  0
 13 14  1  0
  1  2  2  0
  2  7  1  0
  7  6  2  0
  6  4  1  0
  4  3  2  0
  3  1  1  0
M  END

$$$$
