No_1143-gen_results/8p0m/2024-11-26-14-13-15/
     RDKit          3D

 13 14  0  0  0  0  0  0  0  0999 V2000
  -28.0162   -0.8135   28.8779 C   0  0  0  0  0  0  0  0  0  0  0  0
  -28.4690   -0.7850   29.8287 C   0  0  0  0  0  0  0  0  0  0  0  0
  -27.0871    0.2903   28.6377 C   0  0  0  0  0  0  0  0  0  0  0  0
  -26.2516    0.4114   27.4223 C   0  0  0  0  0  0  0  0  0  0  0  0
  -28.3913    0.1041   30.9805 C   0  0  0  0  0  0  0  0  0  0  0  0
  -27.5332    1.1666   30.7866 C   0  0  0  0  0  0  0  0  0  0  0  0
  -26.8281    1.2557   29.6454 C   0  0  0  0  0  0  0  0  0  0  0  0
  -25.1383    0.6747   27.2308 C   0  0  0  0  0  0  0  0  0  0  0  0
  -24.5121    1.0055   25.9534 C   0  0  0  0  0  0  0  0  0  0  0  0
  -23.2236    1.5522   25.8270 C   0  0  0  0  0  0  0  0  0  0  0  0
  -22.5409    1.8518   27.0593 C   0  0  0  0  0  0  0  0  0  0  0  0
  -23.1382    1.5358   28.2874 C   0  0  0  0  0  0  0  0  0  0  0  0
  -24.3452    1.0167   28.4373 C   0  0  0  0  0  0  0  0  0  0  0  0
  3  4  1  0
  4  8  1  0
  8  9  2  0
  9 10  1  0
 10 11  2  0
 11 12  1  0
 12 13  2  0
 13  8  1  0
  1  2  2  0
  2  5  1  0
  5  6  2  0
  6  7  1  0
  7  3  2  0
  3  1  1  0
M  END

$$$$
