No_1443-gen_results/8p0m/2024-11-26-14-13-15/
     RDKit          3D

 24 27  0  0  0  0  0  0  0  0999 V2000
  -28.0162   -0.8135   28.8779 C   0  0  0  0  0  0  0  0  0  0  0  0
  -28.4690   -0.7850   29.8287 C   0  0  0  0  0  0  0  0  0  0  0  0
  -28.1960    0.3478   28.0550 C   0  0  0  0  0  0  0  0  0  0  0  0
  -29.0191    1.3501   28.3782 C   0  0  0  0  0  0  0  0  0  0  0  0
  -29.4107    0.1803   30.3782 C   0  0  0  0  0  0  0  0  0  0  0  0
  -29.6059    1.2495   29.6193 C   0  0  0  0  0  0  0  0  0  0  0  0
  -27.5426    0.5225   26.6829 C   0  0  0  0  0  0  0  0  0  0  0  0
  -26.2251    0.3954   26.6946 N   0  0  0  0  0  0  0  0  0  0  0  0
  -25.4951   -0.0274   27.7019 C   0  0  0  0  0  0  0  0  0  0  0  0
  -24.1398    0.5563   27.8591 C   0  0  0  0  0  0  0  0  0  0  0  0
  -23.2603    0.2856   28.9196 C   0  0  0  0  0  0  0  0  0  0  0  0
  -23.6092   -0.9261   29.6437 C   0  0  0  0  0  0  0  0  0  0  0  0
  -24.8000   -1.5270   29.4856 C   0  0  0  0  0  0  0  0  0  0  0  0
  -25.6781   -1.1179   28.5523 C   0  0  0  0  0  0  0  0  0  0  0  0
  -26.6817   -1.3453   28.8480 N   0  0  0  0  0  0  0  0  0  0  0  0
  -25.5832    1.2379   25.7422 C   0  0  0  0  0  0  0  0  0  0  0  0
  -28.1248   -0.4330   25.7228 C   0  0  0  0  0  0  0  0  0  0  0  0
  -27.9373    1.9450   26.2011 C   0  0  0  0  0  0  0  0  0  0  0  0
  -29.3568   -0.1063   25.0526 C   0  0  0  0  0  0  0  0  0  0  0  0
  -29.9679   -1.1337   24.3788 C   0  0  0  0  0  0  0  0  0  0  0  0
  -29.4472   -2.4479   24.5123 C   0  0  0  0  0  0  0  0  0  0  0  0
  -27.0570    2.4135   25.2484 C   0  0  0  0  0  0  0  0  0  0  0  0
  -25.7023    2.1545   25.3221 C   0  0  0  0  0  0  0  0  0  0  0  0
  -29.1771    2.4389   26.6687 C   0  0  0  0  0  0  0  0  0  0  0  0
  3  7  1  0
  7  8  1  0
  8  9  1  0
  1 15  1  0
 14 15  1  0
  8 16  1  0
  7 17  1  0
  7 18  1  0
 17 19  2  3
 19 20  1  0
 20 21  1  0
 16 23  1  0
 22 23  1  0
 18 24  1  0
 18 22  1  0
  9 10  2  0
 10 11  1  0
 11 12  2  0
 12 13  1  0
 13 14  2  0
 14  9  1  0
  1  2  2  0
  2  5  1  0
  5  6  2  0
  6  4  1  0
  4  3  2  0
  3  1  1  0
M  END

$$$$
