No_101-gen_results/8p0m/2024-11-26-14-13-15/
     RDKit          3D

 24 25  0  0  0  0  0  0  0  0999 V2000
  -28.0162   -0.8135   28.8779 C   0  0  0  0  0  0  0  0  0  0  0  0
  -27.0636   -0.1190   28.6079 C   0  0  0  0  0  0  0  0  0  0  0  0
  -26.9287    1.1713   29.0083 C   0  0  0  0  0  0  0  0  0  0  0  0
  -25.7702    2.0341   28.6884 C   0  0  0  0  0  0  0  0  0  0  0  0
  -24.7141    1.4431   27.9188 C   0  0  0  0  0  0  0  0  0  0  0  0
  -24.8590    0.0783   27.5836 C   0  0  0  0  0  0  0  0  0  0  0  0
  -25.9647   -0.6606   27.9164 C   0  0  0  0  0  0  0  0  0  0  0  0
  -27.9821   -1.6367   30.0748 N   0  0  0  0  0  0  0  0  0  0  0  0
  -29.2163   -0.4132   28.6627 O   0  0  0  0  0  0  0  0  0  0  0  0
  -28.6751   -2.4607   30.4758 C   0  0  0  0  0  0  0  0  0  0  0  0
  -23.5261    2.1475   27.5672 C   0  0  0  0  0  0  0  0  0  0  0  0
  -23.3911    2.7163   26.6241 F   0  0  0  0  0  0  0  0  0  0  0  0
  -23.0429    2.8831   28.6686 F   0  0  0  0  0  0  0  0  0  0  0  0
  -22.3955    1.1633   27.6159 F   0  0  0  0  0  0  0  0  0  0  0  0
  -28.5653   -3.8930   30.1012 C   0  0  0  0  0  0  0  0  0  0  0  0
  -29.0176   -4.6733   30.8021 C   0  0  0  0  0  0  0  0  0  0  0  0
  -30.0169   -4.5064   31.8326 C   0  0  0  0  0  0  0  0  0  0  0  0
  -30.1876   -3.1923   32.2364 C   0  0  0  0  0  0  0  0  0  0  0  0
  -29.4676   -2.2005   31.6472 C   0  0  0  0  0  0  0  0  0  0  0  0
  -30.6602   -5.6785   32.4643 C   0  0  0  0  0  0  0  0  0  0  0  0
  -30.5748   -6.7699   32.0752 O   0  0  0  0  0  0  0  0  0  0  0  0
  -31.4206   -5.4578   33.6008 N   0  0  0  0  0  0  0  0  0  0  0  0
  -31.6874   -4.2428   34.2156 C   0  0  0  0  0  0  0  0  0  0  0  0
  -31.0121   -3.1022   33.5276 C   0  0  0  0  0  0  0  0  0  0  0  0
  1  2  1  0
  1  8  1  0
  1  9  2  0
  8 10  1  0
  5 11  1  0
 11 12  1  0
 11 13  1  0
 11 14  1  0
 17 20  1  0
 20 21  2  0
 20 22  1  0
 22 23  1  0
 23 24  2  0
  2  3  2  0
  3  4  1  0
  4  5  2  0
  5  6  1  0
  6  7  2  0
  7  2  1  0
 10 15  2  0
 15 16  1  0
 16 17  2  0
 17 18  1  0
 18 19  2  0
 19 10  1  0
M  END

$$$$
