No_1461-gen_results/8p0m/2024-11-26-14-13-15/
     RDKit          3D

 35 36  0  0  0  0  0  0  0  0999 V2000
  -28.0162   -0.8135   28.8779 C   0  0  0  0  0  0  0  0  0  0  0  0
  -27.0636   -0.1189   28.6079 C   0  0  0  0  0  0  0  0  0  0  0  0
  -25.7647   -0.3897   29.0360 C   0  0  0  0  0  0  0  0  0  0  0  0
  -25.5296   -1.5302   29.9014 C   0  0  0  0  0  0  0  0  0  0  0  0
  -24.3236   -1.9076   30.4324 C   0  0  0  0  0  0  0  0  0  0  0  0
  -27.9274   -1.9227   29.7902 C   0  0  0  0  0  0  0  0  0  0  0  0
  -26.6914   -2.2806   30.2948 C   0  0  0  0  0  0  0  0  0  0  0  0
  -23.2806   -2.0391   29.4813 C   0  0  0  0  0  0  0  0  0  0  0  0
  -29.0049   -2.6569   30.1988 O   0  0  0  0  0  0  0  0  0  0  0  0
  -28.9072   -3.9392   30.6003 C   0  0  0  0  0  0  0  0  0  0  0  0
  -30.1148   -4.4092   31.3299 C   0  0  0  0  0  0  0  0  0  0  0  0
  -30.0111   -5.5313   31.5864 O   0  0  0  0  0  0  0  0  0  0  0  0
  -31.0397   -3.7344   31.5589 O   0  0  0  0  0  0  0  0  0  0  0  0
  -27.1393    1.0159   27.6270 C   0  0  0  0  0  0  0  0  0  0  0  0
  -26.3990    1.2240   26.7540 O   0  0  0  0  0  0  0  0  0  0  0  0
  -28.1802    1.7567   27.7831 O   0  0  0  0  0  0  0  0  0  0  0  0
  -22.3825   -0.8585   29.2922 C   0  0  0  0  0  0  0  0  0  0  0  0
  -22.7917    0.2373   28.7475 C   0  0  0  0  0  0  0  0  0  0  0  0
  -21.9208    1.2920   28.1810 C   0  0  0  0  0  0  0  0  0  0  0  0
  -22.4552    2.4826   27.6436 C   0  0  0  0  0  0  0  0  0  0  0  0
  -23.9154    2.6267   27.5757 C   0  0  0  0  0  0  0  0  0  0  0  0
  -24.2919    3.8464   27.0131 C   0  0  0  0  0  0  0  0  0  0  0  0
  -24.9353    4.8022   26.9367 C   0  0  0  0  0  0  0  0  0  0  0  0
  -25.7535    5.9528   26.8829 C   0  0  0  0  0  0  0  0  0  0  0  0
  -25.0501    7.1754   27.0813 C   0  0  0  0  0  0  0  0  0  0  0  0
  -25.8441    8.3149   27.2209 C   0  0  0  0  0  0  0  0  0  0  0  0
  -25.3729    9.4517   27.7003 C   0  0  0  0  0  0  0  0  0  0  0  0
  -24.0407    9.4682   28.2734 C   0  0  0  0  0  0  0  0  0  0  0  0
  -23.2291    8.3156   28.1225 C   0  0  0  0  0  0  0  0  0  0  0  0
  -23.7772    7.2372   27.6520 C   0  0  0  0  0  0  0  0  0  0  0  0
  -25.4981    4.1968   27.7992 Cl  0  0  0  0  0  0  0  0  0  0  0  0
  -23.6530    3.7604   25.6997 O   0  0  0  0  0  0  0  0  0  0  0  0
  -23.4455   10.7106   28.8504 C   0  0  0  0  0  0  0  0  0  0  0  0
  -22.1817   10.7124   29.3016 C   0  0  0  0  0  0  0  0  0  0  0  0
  -24.2607   11.8772   28.9601 C   0  0  0  0  0  0  0  0  0  0  0  0
  4  5  1  0
  5  8  1  0
  6  9  1  0
  9 10  1  0
 10 11  1  0
 11 12  2  0
 11 13  1  0
  2 14  1  0
 14 15  2  0
 14 16  1  0
  8 17  1  0
 17 18  1  0
 18 19  2  3
 19 20  1  0
 20 21  2  3
 21 22  1  0
 22 23  1  0
 23 24  1  0
 24 25  1  0
 23 31  1  0
 22 32  2  0
 28 33  1  0
 33 34  1  0
 33 35  1  0
 25 26  2  0
 26 27  1  0
 27 28  2  0
 28 29  1  0
 29 30  2  0
 30 25  1  0
  1  2  2  0
  2  3  1  0
  3  4  2  0
  4  7  1  0
  7  6  2  0
  6  1  1  0
M  END

$$$$
