No_1782-gen_results/8p0m/2024-11-26-14-13-15/
     RDKit          3D

 25 28  0  0  0  0  0  0  0  0999 V2000
  -28.0162   -0.8135   28.8779 C   0  0  0  0  0  0  0  0  0  0  0  0
  -28.4690   -0.7850   29.8287 C   0  0  0  0  0  0  0  0  0  0  0  0
  -28.1960    0.3478   28.0550 C   0  0  0  0  0  0  0  0  0  0  0  0
  -29.0191    1.3501   28.3782 C   0  0  0  0  0  0  0  0  0  0  0  0
  -29.4107    0.1803   30.3782 C   0  0  0  0  0  0  0  0  0  0  0  0
  -29.6059    1.2495   29.6193 C   0  0  0  0  0  0  0  0  0  0  0  0
  -27.4597    0.3802   26.7091 C   0  0  0  0  0  0  0  0  0  0  0  0
  -27.9298    0.5836   25.6804 C   0  0  0  0  0  0  0  0  0  0  0  0
  -29.3518    0.8141   25.5930 C   0  0  0  0  0  0  0  0  0  0  0  0
  -30.0874    0.3793   24.7863 C   0  0  0  0  0  0  0  0  0  0  0  0
  -31.5061    0.6291   24.6778 C   0  0  0  0  0  0  0  0  0  0  0  0
  -32.0014    1.4784   25.6478 C   0  0  0  0  0  0  0  0  0  0  0  0
  -31.2549    2.0846   26.5629 C   0  0  0  0  0  0  0  0  0  0  0  0
  -29.8572    1.8097   26.5872 C   0  0  0  0  0  0  0  0  0  0  0  0
  -28.1483    2.7360   28.3992 C   0  0  0  0  0  0  0  0  0  0  0  0
  -29.0877    3.1516   26.5074 C   0  0  0  0  0  0  0  0  0  0  0  0
  -27.4332    3.0273   29.5536 C   0  0  0  0  0  0  0  0  0  0  0  0
  -28.2859    3.5695   27.3246 C   0  0  0  0  0  0  0  0  0  0  0  0
  -27.5399    3.9136   30.2912 C   0  0  0  0  0  0  0  0  0  0  0  0
  -26.1781    2.1754   29.7085 C   0  0  0  0  0  0  0  0  0  0  0  0
  -25.3184    2.3909   30.7664 C   0  0  0  0  0  0  0  0  0  0  0  0
  -25.5587    3.4248   31.6570 C   0  0  0  0  0  0  0  0  0  0  0  0
  -26.6746    4.2314   31.4978 C   0  0  0  0  0  0  0  0  0  0  0  0
  -29.3962    3.9850   25.2481 C   0  0  0  0  0  0  0  0  0  0  0  0
  -27.5652    4.8332   27.3156 C   0  0  0  0  0  0  0  0  0  0  0  0
  3  7  1  0
  7  8  2  3
  8  9  1  0
  4 15  1  0
 14 16  1  0
 15 17  1  0
 15 18  1  0
 16 18  1  0
 16 24  1  0
 18 25  1  0
  9 10  2  0
 10 11  1  0
 11 12  2  0
 12 13  1  0
 13 14  2  0
 14  9  1  0
 17 19  2  0
 19 23  1  0
 23 22  2  0
 22 21  1  0
 21 20  2  0
 20 17  1  0
  1  2  2  0
  2  5  1  0
  5  6  2  0
  6  4  1  0
  4  3  2  0
  3  1  1  0
M  END

$$$$
