No_1512-gen_results/8p0m/2024-11-26-14-13-15/
     RDKit          3D

 15 15  0  0  0  0  0  0  0  0999 V2000
  -28.1229   -1.3353   28.4874 O   0  0  0  0  0  0  0  0  0  0  0  0
  -28.5208   -0.4363   29.0779 C   0  0  0  0  0  0  0  0  0  0  0  0
  -28.5894    0.5916   28.9464 C   0  0  0  0  0  0  0  0  0  0  0  0
  -29.3752   -0.9434   30.2659 N   0  0  0  0  0  0  0  0  0  0  0  0
  -27.5822    1.2649   28.1478 C   0  0  0  0  0  0  0  0  0  0  0  0
  -26.2743    1.0474   28.5730 C   0  0  0  0  0  0  0  0  0  0  0  0
  -25.1236    1.5178   27.7476 C   0  0  0  0  0  0  0  0  0  0  0  0
  -25.3959    2.2327   26.6025 C   0  0  0  0  0  0  0  0  0  0  0  0
  -26.6880    2.4873   26.2017 C   0  0  0  0  0  0  0  0  0  0  0  0
  -27.7148    2.0284   26.9597 C   0  0  0  0  0  0  0  0  0  0  0  0
  -30.0299   -0.1354   31.1879 C   0  0  0  0  0  0  0  0  0  0  0  0
  -29.3105   -2.4182   30.6342 C   0  0  0  0  0  0  0  0  0  0  0  0
  -24.1704    2.7777   25.8989 C   0  0  0  0  0  0  0  0  0  0  0  0
  -23.1030    1.8005   25.7455 C   0  0  0  0  0  0  0  0  0  0  0  0
  -22.8413    1.1190   26.9763 C   0  0  0  0  0  0  0  0  0  0  0  0
  1  2  2  0
  2  3  1  0
  2  4  1  0
  3  5  1  0
  4 11  1  0
  4 12  1  0
  8 13  1  0
 13 14  2  3
 14 15  1  0
  5  6  2  0
  6  7  1  0
  7  8  2  0
  8  9  1  0
  9 10  2  0
 10  5  1  0
M  END

$$$$
