No_1900-gen_results/8p0m/2024-11-26-14-13-15/
     RDKit          3D

 25 28  0  0  0  0  0  0  0  0999 V2000
  -28.1229   -1.3353   28.4874 O   0  0  0  0  0  0  0  0  0  0  0  0
  -28.5208   -0.4363   29.0779 C   0  0  0  0  0  0  0  0  0  0  0  0
  -29.6977    0.0507   28.9764 C   0  0  0  0  0  0  0  0  0  0  0  0
  -27.7059   -0.0219   30.1625 N   0  0  0  0  0  0  0  0  0  0  0  0
  -28.0553    1.0912   30.9931 C   0  0  0  0  0  0  0  0  0  0  0  0
  -30.5432   -0.2738   28.0099 C   0  0  0  0  0  0  0  0  0  0  0  0
  -29.3067    1.5611   30.7436 C   0  0  0  0  0  0  0  0  0  0  0  0
  -30.1155    1.1689   29.8195 C   0  0  0  0  0  0  0  0  0  0  0  0
  -31.6317   -1.1878   28.2391 C   0  0  0  0  0  0  0  0  0  0  0  0
  -32.4337   -1.6855   27.1664 C   0  0  0  0  0  0  0  0  0  0  0  0
  -32.1472   -1.2744   25.8383 C   0  0  0  0  0  0  0  0  0  0  0  0
  -31.0389   -0.4283   25.5707 C   0  0  0  0  0  0  0  0  0  0  0  0
  -30.1567    0.1100   26.6514 C   0  0  0  0  0  0  0  0  0  0  0  0
  -26.3402   -0.6321   30.3452 C   0  0  0  0  0  0  0  0  0  0  0  0
  -25.3949   -0.0829   30.1509 C   0  0  0  0  0  0  0  0  0  0  0  0
  -24.7370    0.0597   29.0057 C   0  0  0  0  0  0  0  0  0  0  0  0
  -23.6940    0.8244   28.7702 C   0  0  0  0  0  0  0  0  0  0  0  0
  -22.9843    1.3518   29.8761 C   0  0  0  0  0  0  0  0  0  0  0  0
  -23.6279    1.2211   31.1595 C   0  0  0  0  0  0  0  0  0  0  0  0
  -24.7707    0.4793   31.3086 C   0  0  0  0  0  0  0  0  0  0  0  0
  -27.2913    1.4907   31.8838 O   0  0  0  0  0  0  0  0  0  0  0  0
  -30.7078   -0.0548   24.2110 C   0  0  0  0  0  0  0  0  0  0  0  0
  -29.3355   -0.0577   24.0626 C   0  0  0  0  0  0  0  0  0  0  0  0
  -28.4348   -0.5190   24.9569 C   0  0  0  0  0  0  0  0  0  0  0  0
  -28.7201    0.0605   26.3639 C   0  0  0  0  0  0  0  0  0  0  0  0
  1  2  2  0
  2  3  1  0
  2  4  1  0
  4  5  1  0
  5  7  1  0
  3  8  1  0
  4 14  1  0
 14 15  1  0
  5 21  2  0
  3  6  1  0
  8  7  1  0
 15 16  2  0
 16 17  1  0
 17 18  2  0
 18 19  1  0
 19 20  2  0
 20 15  1  0
  6  9  2  0
  9 10  1  0
 10 11  2  0
 11 12  1  0
 13  6  1  0
 12 13  2  0
 13 25  1  0
 25 24  2  0
 24 23  1  0
 23 22  2  0
 22 12  1  0
M  END

$$$$
