No_1180-gen_results/8p0m/2024-11-26-14-13-15/
     RDKit          3D

 16 17  0  0  0  0  0  0  0  0999 V2000
  -28.0162   -0.8135   28.8779 C   0  0  0  0  0  0  0  0  0  0  0  0
  -28.4690   -0.7850   29.8287 C   0  0  0  0  0  0  0  0  0  0  0  0
  -27.1356    0.2359   28.5352 C   0  0  0  0  0  0  0  0  0  0  0  0
  -26.8745    1.2825   29.3982 C   0  0  0  0  0  0  0  0  0  0  0  0
  -28.3613    0.1987   30.9244 C   0  0  0  0  0  0  0  0  0  0  0  0
  -27.5277    1.2234   30.6356 C   0  0  0  0  0  0  0  0  0  0  0  0
  -26.4877    0.2566   27.3533 F   0  0  0  0  0  0  0  0  0  0  0  0
  -29.0652    0.1000   32.2285 C   0  0  0  0  0  0  0  0  0  0  0  0
  -30.1343    0.3094   32.3398 N   0  0  0  0  0  0  0  0  0  0  0  0
  -30.8701    1.0881   31.6399 C   0  0  0  0  0  0  0  0  0  0  0  0
  -32.2958    1.2391   31.9891 C   0  0  0  0  0  0  0  0  0  0  0  0
  -30.9000   -0.3882   33.4368 C   0  0  0  0  0  0  0  0  0  0  0  0
  -32.2107   -0.2388   33.7142 C   0  0  0  0  0  0  0  0  0  0  0  0
  -32.9004    0.6634   32.9613 C   0  0  0  0  0  0  0  0  0  0  0  0
  -28.1798   -0.3093   33.1353 O   0  0  0  0  0  0  0  0  0  0  0  0
  -34.1976    0.9199   33.1492 O   0  0  0  0  0  0  0  0  0  0  0  0
  3  7  1  0
  5  8  1  0
  8  9  1  0
  9 10  1  0
  9 12  1  0
 11 14  1  0
 13 14  1  0
  8 15  2  0
 14 16  1  0
 10 11  1  0
 13 12  1  0
  1  2  2  0
  2  5  1  0
  5  6  2  0
  6  4  1  0
  4  3  2  0
  3  1  1  0
M  END

$$$$
