No_1983-gen_results/8p0m/2024-11-26-14-13-15/
     RDKit          3D

 14 14  0  0  0  0  0  0  0  0999 V2000
  -28.0162   -0.8135   28.8779 C   0  0  0  0  0  0  0  0  0  0  0  0
  -27.0636   -0.1189   28.6079 C   0  0  0  0  0  0  0  0  0  0  0  0
  -26.8756    1.1325   28.9134 C   0  0  0  0  0  0  0  0  0  0  0  0
  -25.6883    1.9515   28.5672 C   0  0  0  0  0  0  0  0  0  0  0  0
  -24.6394    1.2834   27.8753 C   0  0  0  0  0  0  0  0  0  0  0  0
  -24.8068   -0.0513   27.6040 C   0  0  0  0  0  0  0  0  0  0  0  0
  -25.9020   -0.7670   27.9511 C   0  0  0  0  0  0  0  0  0  0  0  0
  -27.9985   -1.5833   30.1015 N   0  0  0  0  0  0  0  0  0  0  0  0
  -23.4538    1.9850   27.4766 C   0  0  0  0  0  0  0  0  0  0  0  0
  -23.4102    2.4146   26.3750 F   0  0  0  0  0  0  0  0  0  0  0  0
  -23.0862    2.9489   28.4028 F   0  0  0  0  0  0  0  0  0  0  0  0
  -22.3096    1.1394   27.6308 F   0  0  0  0  0  0  0  0  0  0  0  0
  -29.0493   -2.3362   30.5875 C   0  0  0  0  0  0  0  0  0  0  0  0
  -30.1348   -1.9508   30.5050 C   0  0  0  0  0  0  0  0  0  0  0  0
  1  8  1  0
  5  9  1  0
  9 10  1  0
  9 11  1  0
  9 12  1  0
  8 13  1  0
 13 14  2  0
  1  2  1  0
  2  3  2  0
  3  4  1  0
  4  5  2  0
  5  6  1  0
  6  7  2  0
  7  2  1  0
M  END

$$$$
