No_1938-gen_results/8p0m/2024-11-26-14-13-15/
     RDKit          3D

 22 22  0  0  0  0  0  0  0  0999 V2000
  -28.0162   -0.8135   28.8779 C   0  0  0  0  0  0  0  0  0  0  0  0
  -27.0636   -0.1189   28.6079 C   0  0  0  0  0  0  0  0  0  0  0  0
  -25.7647   -0.3897   29.0360 C   0  0  0  0  0  0  0  0  0  0  0  0
  -25.5296   -1.5302   29.9014 C   0  0  0  0  0  0  0  0  0  0  0  0
  -24.3236   -1.9076   30.4324 C   0  0  0  0  0  0  0  0  0  0  0  0
  -27.9274   -1.9227   29.7902 C   0  0  0  0  0  0  0  0  0  0  0  0
  -26.6914   -2.2806   30.2948 C   0  0  0  0  0  0  0  0  0  0  0  0
  -23.6772   -1.1090   31.2486 N   0  0  0  0  0  0  0  0  0  0  0  0
  -22.6394   -0.2271   30.9042 C   0  0  0  0  0  0  0  0  0  0  0  0
  -24.3297   -0.7819   32.5592 C   0  0  0  0  0  0  0  0  0  0  0  0
  -29.1266   -2.6863   30.2512 C   0  0  0  0  0  0  0  0  0  0  0  0
  -29.5274   -2.5095   31.5039 N   0  0  0  0  0  0  0  0  0  0  0  0
  -29.3592   -1.3845   32.0716 C   0  0  0  0  0  0  0  0  0  0  0  0
  -30.0901   -3.6330   32.2672 C   0  0  0  0  0  0  0  0  0  0  0  0
  -27.1147    0.9900   27.5974 C   0  0  0  0  0  0  0  0  0  0  0  0
  -27.8972    1.8164   27.7107 O   0  0  0  0  0  0  0  0  0  0  0  0
  -26.2728    0.9524   26.6537 O   0  0  0  0  0  0  0  0  0  0  0  0
  -29.7830   -1.1737   33.4946 C   0  0  0  0  0  0  0  0  0  0  0  0
  -29.5197   -0.0178   34.1397 C   0  0  0  0  0  0  0  0  0  0  0  0
  -29.7414    0.2475   35.3414 C   0  0  0  0  0  0  0  0  0  0  0  0
  -30.4041   -0.7995   36.1024 C   0  0  0  0  0  0  0  0  0  0  0  0
  -30.6428   -2.0110   35.5408 C   0  0  0  0  0  0  0  0  0  0  0  0
  4  5  1  0
  5  8  1  0
  8  9  1  0
  8 10  1  0
  6 11  1  0
 11 12  1  0
 12 13  1  0
 12 14  1  0
  2 15  1  0
 15 16  1  0
 15 17  2  0
 13 18  2  3
 18 19  1  0
 19 20  2  3
 20 21  1  0
 21 22  2  0
  1  2  2  0
  2  3  1  0
  3  4  2  0
  4  7  1  0
  7  6  2  0
  6  1  1  0
M  END

$$$$
