No_1213-gen_results/8p0m/2024-11-26-14-13-15/
     RDKit          3D

 16 17  0  0  0  0  0  0  0  0999 V2000
  -28.0162   -0.8135   28.8779 C   0  0  0  0  0  0  0  0  0  0  0  0
  -27.0636   -0.1189   28.6079 C   0  0  0  0  0  0  0  0  0  0  0  0
  -27.0010    0.6913   27.4910 C   0  0  0  0  0  0  0  0  0  0  0  0
  -28.1373    0.7363   26.6350 C   0  0  0  0  0  0  0  0  0  0  0  0
  -29.2360    0.0765   27.0690 C   0  0  0  0  0  0  0  0  0  0  0  0
  -29.2177   -0.6429   28.1747 C   0  0  0  0  0  0  0  0  0  0  0  0
  -30.3222    0.1455   26.3092 F   0  0  0  0  0  0  0  0  0  0  0  0
  -25.8876   -0.2734   29.5899 C   0  0  0  0  0  0  0  0  0  0  0  0
  -25.5038   -1.2627   30.1408 N   0  0  0  0  0  0  0  0  0  0  0  0
  -24.7328   -2.0001   29.7981 C   0  0  0  0  0  0  0  0  0  0  0  0
  -23.4232   -1.4769   29.4431 C   0  0  0  0  0  0  0  0  0  0  0  0
  -22.9609   -0.6264   29.7484 C   0  0  0  0  0  0  0  0  0  0  0  0
  -23.7477    0.7636   29.6660 C   0  0  0  0  0  0  0  0  0  0  0  0
  -24.9982    0.9114   29.4222 C   0  0  0  0  0  0  0  0  0  0  0  0
  -21.6362   -0.3236   29.7274 F   0  0  0  0  0  0  0  0  0  0  0  0
  -28.0439    1.7487   25.2650 Cl  0  0  0  0  0  0  0  0  0  0  0  0
  5  7  1  0
  2  8  1  0
  8  9  1  0
  9 10  2  0
 10 11  1  0
 11 12  2  0
 12 13  1  0
  8 14  1  0
 13 14  2  0
 12 15  1  0
  4 16  1  0
  1  2  2  0
  2  3  1  0
  3  4  2  0
  4  5  1  0
  5  6  2  0
  6  1  1  0
M  END

$$$$
