No_1242-gen_results/8p0m/2024-11-26-14-13-15/
     RDKit          3D

 20 21  0  0  0  0  0  0  0  0999 V2000
  -28.1229   -1.3353   28.4874 O   0  0  0  0  0  0  0  0  0  0  0  0
  -27.4806   -0.4044   28.7094 C   0  0  0  0  0  0  0  0  0  0  0  0
  -26.3804   -0.0867   27.9394 C   0  0  0  0  0  0  0  0  0  0  0  0
  -27.6664    0.4468   29.8988 N   0  0  0  0  0  0  0  0  0  0  0  0
  -26.4086    0.8567   26.8802 C   0  0  0  0  0  0  0  0  0  0  0  0
  -25.2466    1.1198   26.1102 C   0  0  0  0  0  0  0  0  0  0  0  0
  -23.9991    0.7500   26.5964 C   0  0  0  0  0  0  0  0  0  0  0  0
  -23.9411    0.0388   27.7865 C   0  0  0  0  0  0  0  0  0  0  0  0
  -25.0420   -0.3844   28.4675 C   0  0  0  0  0  0  0  0  0  0  0  0
  -26.9353    1.5560   30.3219 C   0  0  0  0  0  0  0  0  0  0  0  0
  -27.0455    1.8376   31.5107 C   0  0  0  0  0  0  0  0  0  0  0  0
  -26.3212    3.0066   32.0756 C   0  0  0  0  0  0  0  0  0  0  0  0
  -25.4748    3.7512   31.1837 C   0  0  0  0  0  0  0  0  0  0  0  0
  -25.3673    3.3038   29.8768 C   0  0  0  0  0  0  0  0  0  0  0  0
  -26.0739    2.2110   29.4131 C   0  0  0  0  0  0  0  0  0  0  0  0
  -24.8682   -1.1653   29.6764 C   0  0  0  0  0  0  0  0  0  0  0  0
  -28.8086   -0.0109   30.7281 C   0  0  0  0  0  0  0  0  0  0  0  0
  -27.6826    1.2527   26.3125 C   0  0  0  0  0  0  0  0  0  0  0  0
  -28.4233    1.9668   26.8607 N   0  0  0  0  0  0  0  0  0  0  0  0
  -29.7387    2.3508   26.4930 C   0  0  0  0  0  0  0  0  0  0  0  0
  1  2  2  0
  2  3  1  0
  2  4  1  0
  4 10  1  0
  9 16  1  0
  4 17  1  0
  5 18  1  0
 18 19  2  3
 19 20  1  0
  3  5  2  0
  5  6  1  0
  6  7  2  0
  7  8  1  0
  8  9  2  0
  9  3  1  0
 10 11  2  0
 11 12  1  0
 12 13  2  0
 13 14  1  0
 14 15  2  0
 15 10  1  0
M  END

$$$$
