No_1248-gen_results/8p0m/2024-11-26-14-13-15/
     RDKit          3D

 17 18  0  0  0  0  0  0  0  0999 V2000
  -28.0162   -0.8135   28.8779 C   0  0  0  0  0  0  0  0  0  0  0  0
  -28.4690   -0.7850   29.8287 C   0  0  0  0  0  0  0  0  0  0  0  0
  -28.1816    0.4277   28.1134 C   0  0  0  0  0  0  0  0  0  0  0  0
  -27.4498    0.6435   26.8500 C   0  0  0  0  0  0  0  0  0  0  0  0
  -27.8596    1.4573   25.9076 C   0  0  0  0  0  0  0  0  0  0  0  0
  -28.3080   -1.9885   30.8635 C   0  0  0  0  0  0  0  0  0  0  0  0
  -27.5277   -3.0190   30.3596 C   0  0  0  0  0  0  0  0  0  0  0  0
  -26.7389   -2.8481   29.2719 C   0  0  0  0  0  0  0  0  0  0  0  0
  -26.9091   -1.6576   28.5337 C   0  0  0  0  0  0  0  0  0  0  0  0
  -28.9724    2.3472   26.1217 C   0  0  0  0  0  0  0  0  0  0  0  0
  -29.6230    2.2195   27.3318 C   0  0  0  0  0  0  0  0  0  0  0  0
  -29.2848    1.2346   28.2720 C   0  0  0  0  0  0  0  0  0  0  0  0
  -25.5535   -3.9864   28.8994 Cl  0  0  0  0  0  0  0  0  0  0  0  0
  -27.1201    1.6573   24.8077 F   0  0  0  0  0  0  0  0  0  0  0  0
  -29.1718   -2.2228   32.0393 C   0  0  0  0  0  0  0  0  0  0  0  0
  -29.0174   -1.4700   32.9493 O   0  0  0  0  0  0  0  0  0  0  0  0
  -30.1406   -3.0107   31.9184 O   0  0  0  0  0  0  0  0  0  0  0  0
  8 13  1  0
  5 14  1  0
  6 15  1  0
 15 16  2  0
 15 17  1  0
  3  1  1  0
  3  4  2  0
  4  5  1  0
  5 10  2  0
 10 11  1  0
 11 12  2  0
 12  3  1  0
  1  2  2  0
  2  6  1  0
  6  7  2  0
  7  8  1  0
  8  9  2  0
  9  1  1  0
M  END

$$$$
