No_1573-gen_results/8p0m/2024-11-26-14-13-15/
     RDKit          3D

 26 29  0  0  0  0  0  0  0  0999 V2000
  -28.0162   -0.8135   28.8779 C   0  0  0  0  0  0  0  0  0  0  0  0
  -27.0636   -0.1189   28.6079 C   0  0  0  0  0  0  0  0  0  0  0  0
  -25.7647   -0.3897   29.0360 C   0  0  0  0  0  0  0  0  0  0  0  0
  -25.5296   -1.5302   29.9014 C   0  0  0  0  0  0  0  0  0  0  0  0
  -26.6888   -2.2893   30.1810 C   0  0  0  0  0  0  0  0  0  0  0  0
  -27.8727   -1.9508   29.7373 C   0  0  0  0  0  0  0  0  0  0  0  0
  -24.5491    0.4100   28.7341 C   0  0  0  0  0  0  0  0  0  0  0  0
  -24.4789    1.1871   27.6843 C   0  0  0  0  0  0  0  0  0  0  0  0
  -23.2830    1.8356   27.3522 C   0  0  0  0  0  0  0  0  0  0  0  0
  -22.1028    1.6619   28.0350 C   0  0  0  0  0  0  0  0  0  0  0  0
  -23.3238    0.1535   29.4730 C   0  0  0  0  0  0  0  0  0  0  0  0
  -22.1169    0.8126   29.1066 C   0  0  0  0  0  0  0  0  0  0  0  0
  -29.0490   -2.5758   30.0859 O   0  0  0  0  0  0  0  0  0  0  0  0
  -30.1185   -1.9105   30.5214 C   0  0  0  0  0  0  0  0  0  0  0  0
  -31.2557   -2.1833   29.7646 C   0  0  0  0  0  0  0  0  0  0  0  0
  -31.4278   -3.2125   29.3092 O   0  0  0  0  0  0  0  0  0  0  0  0
  -32.1578   -1.1665   29.5166 N   0  0  0  0  0  0  0  0  0  0  0  0
  -32.0272    0.2001   30.0821 C   0  0  0  0  0  0  0  0  0  0  0  0
  -31.1838    0.1892   31.0912 C   0  0  0  0  0  0  0  0  0  0  0  0
  -29.9709   -0.6785   31.2583 C   0  0  0  0  0  0  0  0  0  0  0  0
  -33.2603   -1.4275   28.6104 C   0  0  0  0  0  0  0  0  0  0  0  0
  -34.4324   -1.8167   28.9664 C   0  0  0  0  0  0  0  0  0  0  0  0
  -35.3628   -2.0991   28.1392 C   0  0  0  0  0  0  0  0  0  0  0  0
  -32.9576   -1.2334   27.2275 C   0  0  0  0  0  0  0  0  0  0  0  0
  -33.8935   -1.5168   26.2732 C   0  0  0  0  0  0  0  0  0  0  0  0
  -35.1402   -1.9586   26.7228 C   0  0  0  0  0  0  0  0  0  0  0  0
  3  7  1  0
  6 13  1  0
 13 14  1  0
 14 15  1  0
 15 16  2  0
 15 17  1  0
 17 18  1  0
 14 20  1  0
 19 20  1  0
 17 21  1  0
 19 18  1  0
  7  8  2  0
  8  9  1  0
  9 10  2  0
 10 12  1  0
 12 11  2  0
 11  7  1  0
  1  2  2  0
  2  3  1  0
  3  4  2  0
  4  5  1  0
  5  6  2  0
  6  1  1  0
 21 22  2  0
 22 23  1  0
 23 26  2  0
 26 25  1  0
 25 24  2  0
 24 21  1  0
M  END

$$$$
