No_1160-gen_results/8p0m/2024-11-26-14-13-15/
     RDKit          3D

 19 22  0  0  0  0  0  0  0  0999 V2000
  -28.0162   -0.8135   28.8779 C   0  0  0  0  0  0  0  0  0  0  0  0
  -28.4690   -0.7850   29.8287 C   0  0  0  0  0  0  0  0  0  0  0  0
  -26.5042   -0.7777   28.8766 C   0  0  0  0  0  0  0  0  0  0  0  0
  -25.8103   -0.8531   30.1028 C   0  0  0  0  0  0  0  0  0  0  0  0
  -27.9906   -0.8916   31.2257 C   0  0  0  0  0  0  0  0  0  0  0  0
  -24.3976   -0.8364   30.1775 C   0  0  0  0  0  0  0  0  0  0  0  0
  -26.5754   -0.8899   31.2661 C   0  0  0  0  0  0  0  0  0  0  0  0
  -23.7964    0.4357   29.9090 C   0  0  0  0  0  0  0  0  0  0  0  0
  -24.1689    1.5903   30.3140 C   0  0  0  0  0  0  0  0  0  0  0  0
  -25.1579    1.7018   31.3177 C   0  0  0  0  0  0  0  0  0  0  0  0
  -25.5671    3.0373   31.7790 C   0  0  0  0  0  0  0  0  0  0  0  0
  -26.2549    3.2476   32.9400 C   0  0  0  0  0  0  0  0  0  0  0  0
  -26.7276    2.0983   33.6253 C   0  0  0  0  0  0  0  0  0  0  0  0
  -26.2362    0.8692   33.2736 C   0  0  0  0  0  0  0  0  0  0  0  0
  -25.4300    0.7007   32.2230 C   0  0  0  0  0  0  0  0  0  0  0  0
  -24.9183   -0.2956   32.0987 N   0  0  0  0  0  0  0  0  0  0  0  0
  -25.8812   -0.9219   32.4224 C   0  0  0  0  0  0  0  0  0  0  0  0
  -24.0598   -1.2537   31.6326 C   0  0  0  0  0  0  0  0  0  0  0  0
  -23.8542   -2.0021   29.2830 C   0  0  0  0  0  0  0  0  0  0  0  0
  4  6  1  0
  6  8  1  0
  8  9  1  0
 15 16  1  0
  7 17  1  0
 16 17  1  0
  6 18  1  0
 16 18  1  0
  6 19  1  0
  9 10  1  0
 10 11  2  0
 11 12  1  0
 12 13  2  0
 13 14  1  0
 14 15  2  0
 15 10  1  0
  1  2  2  0
  2  5  1  0
  5  7  2  0
  7  4  1  0
  4  3  2  0
  3  1  1  0
M  END

$$$$
