No_1155-gen_results/8p0m/2024-11-26-14-13-15/
     RDKit          3D

 18 19  0  0  0  0  0  0  0  0999 V2000
  -28.0162   -0.8135   28.8779 C   0  0  0  0  0  0  0  0  0  0  0  0
  -27.0636   -0.1189   28.6079 C   0  0  0  0  0  0  0  0  0  0  0  0
  -27.0010    0.6913   27.4910 C   0  0  0  0  0  0  0  0  0  0  0  0
  -27.1778    1.9037   27.5632 C   0  0  0  0  0  0  0  0  0  0  0  0
  -28.7446   -0.3657   29.8430 C   0  0  0  0  0  0  0  0  0  0  0  0
  -29.9480   -1.1049   30.1388 C   0  0  0  0  0  0  0  0  0  0  0  0
  -26.6424    0.0802   26.1997 C   0  0  0  0  0  0  0  0  0  0  0  0
  -26.7812    0.7477   24.9768 C   0  0  0  0  0  0  0  0  0  0  0  0
  -27.3184    2.7277   26.3302 C   0  0  0  0  0  0  0  0  0  0  0  0
  -26.9492    2.1452   25.0611 C   0  0  0  0  0  0  0  0  0  0  0  0
  -30.9121   -0.8073   29.3792 N   0  0  0  0  0  0  0  0  0  0  0  0
  -30.9711    0.1483   28.6450 C   0  0  0  0  0  0  0  0  0  0  0  0
  -32.0798   -1.7647   29.2921 C   0  0  0  0  0  0  0  0  0  0  0  0
  -31.9301    0.2474   27.5254 C   0  0  0  0  0  0  0  0  0  0  0  0
  -32.0029    1.4085   26.8693 C   0  0  0  0  0  0  0  0  0  0  0  0
  -31.1011    2.4435   27.1205 C   0  0  0  0  0  0  0  0  0  0  0  0
  -30.3527    2.4406   28.2333 C   0  0  0  0  0  0  0  0  0  0  0  0
  -30.2934    1.3129   28.8977 N   0  0  0  0  0  0  0  0  0  0  0  0
  1  2  1  0
  2  3  1  0
  1  5  1  0
  5  6  1  0
  6 11  1  0
 11 12  1  0
 11 13  1  0
 12 14  2  0
 14 15  1  0
 15 16  2  0
 16 17  1  0
 17 18  2  0
 18 12  1  0
  3  4  2  0
  4  9  1  0
  9 10  2  0
 10  8  1  0
  8  7  2  0
  7  3  1  0
M  END

$$$$
