No_1280-gen_results/8p0m/2024-11-26-14-13-15/
     RDKit          3D

 24 26  0  0  0  0  0  0  0  0999 V2000
  -28.0162   -0.8135   28.8779 C   0  0  0  0  0  0  0  0  0  0  0  0
  -27.0636   -0.1189   28.6079 C   0  0  0  0  0  0  0  0  0  0  0  0
  -25.7647   -0.3897   29.0360 C   0  0  0  0  0  0  0  0  0  0  0  0
  -25.5296   -1.5302   29.9014 C   0  0  0  0  0  0  0  0  0  0  0  0
  -26.6888   -2.2893   30.1810 C   0  0  0  0  0  0  0  0  0  0  0  0
  -27.8727   -1.9508   29.7373 C   0  0  0  0  0  0  0  0  0  0  0  0
  -28.9304   -2.7298   30.1154 O   0  0  0  0  0  0  0  0  0  0  0  0
  -24.5394    0.4211   28.7421 C   0  0  0  0  0  0  0  0  0  0  0  0
  -23.3459    0.1143   29.1690 C   0  0  0  0  0  0  0  0  0  0  0  0
  -22.1936    0.8740   28.7553 C   0  0  0  0  0  0  0  0  0  0  0  0
  -22.3615    1.8342   27.6952 C   0  0  0  0  0  0  0  0  0  0  0  0
  -24.5980    1.3584   27.6396 C   0  0  0  0  0  0  0  0  0  0  0  0
  -23.5460    2.0827   27.2326 C   0  0  0  0  0  0  0  0  0  0  0  0
  -23.7509    3.2731   25.9875 Cl  0  0  0  0  0  0  0  0  0  0  0  0
  -28.7782   -3.9930   30.6484 C   0  0  0  0  0  0  0  0  0  0  0  0
  -28.7937   -4.9987   29.8229 C   0  0  0  0  0  0  0  0  0  0  0  0
  -29.0199   -4.1502   32.0215 C   0  0  0  0  0  0  0  0  0  0  0  0
  -29.3007   -3.1236   32.7812 N   0  0  0  0  0  0  0  0  0  0  0  0
  -29.7848   -3.2028   34.0899 C   0  0  0  0  0  0  0  0  0  0  0  0
  -30.4401   -4.0287   34.4564 C   0  0  0  0  0  0  0  0  0  0  0  0
  -31.1396   -4.0962   35.6246 C   0  0  0  0  0  0  0  0  0  0  0  0
  -30.9449   -2.9893   36.5507 C   0  0  0  0  0  0  0  0  0  0  0  0
  -29.5888   -1.8974   34.8721 C   0  0  0  0  0  0  0  0  0  0  0  0
  -30.2172   -1.8835   36.1111 C   0  0  0  0  0  0  0  0  0  0  0  0
  6  7  1  0
  3  8  1  0
 13 14  1  0
  7 15  1  0
 15 16  1  0
 15 17  1  0
 17 18  1  0
 18 19  1  0
 19 20  2  0
 20 21  1  0
 21 22  2  0
 22 24  1  0
 24 23  2  0
 23 19  1  0
  1  2  2  0
  2  3  1  0
  3  4  2  0
  4  5  1  0
  5  6  2  0
  6  1  1  0
  8  9  2  0
  9 10  1  0
 10 11  2  0
 11 13  1  0
 13 12  2  0
 12  8  1  0
M  END

$$$$
