No_1673-gen_results/8p0m/2024-11-26-14-13-15/
     RDKit          3D

 17 18  0  0  0  0  0  0  0  0999 V2000
  -28.0162   -0.8135   28.8779 C   0  0  0  0  0  0  0  0  0  0  0  0
  -27.0636   -0.1190   28.6079 C   0  0  0  0  0  0  0  0  0  0  0  0
  -27.0010    0.6913   27.4910 C   0  0  0  0  0  0  0  0  0  0  0  0
  -27.1778    1.9037   27.5632 C   0  0  0  0  0  0  0  0  0  0  0  0
  -28.7446   -0.3657   29.8430 C   0  0  0  0  0  0  0  0  0  0  0  0
  -28.1633    0.0823   31.0800 C   0  0  0  0  0  0  0  0  0  0  0  0
  -26.8214    0.5935   30.9673 C   0  0  0  0  0  0  0  0  0  0  0  0
  -26.2666    0.5981   29.6530 C   0  0  0  0  0  0  0  0  0  0  0  0
  -26.5570    0.0054   26.2512 C   0  0  0  0  0  0  0  0  0  0  0  0
  -27.0798    2.7226   26.2552 C   0  0  0  0  0  0  0  0  0  0  0  0
  -26.4895    0.6892   25.0132 C   0  0  0  0  0  0  0  0  0  0  0  0
  -26.7017    2.0989   25.0124 C   0  0  0  0  0  0  0  0  0  0  0  0
  -24.9525    1.1910   29.4443 C   0  0  0  0  0  0  0  0  0  0  0  0
  -23.8739    0.5551   30.0825 C   0  0  0  0  0  0  0  0  0  0  0  0
  -23.1260   -0.3849   29.3929 C   0  0  0  0  0  0  0  0  0  0  0  0
  -24.6457    2.3135   28.6417 C   0  0  0  0  0  0  0  0  0  0  0  0
  -25.1059    3.4603   28.7786 O   0  0  0  0  0  0  0  0  0  0  0  0
  1  2  1  0
  2  3  1  0
  1  5  1  0
  5  6  1  0
  6  7  1  0
  2  8  1  0
  7  8  1  0
  8 13  1  0
 13 14  1  0
 14 15  1  0
 13 16  1  0
 16 17  2  0
  3  4  2  0
  4 10  1  0
 10 12  2  0
 12 11  1  0
 11  9  2  0
  9  3  1  0
M  END

$$$$
