No_1411-gen_results/8p0m/2024-11-26-14-13-15/
     RDKit          3D

 31 33  0  0  0  0  0  0  0  0999 V2000
  -28.0162   -0.8135   28.8779 C   0  0  0  0  0  0  0  0  0  0  0  0
  -27.0636   -0.1189   28.6079 C   0  0  0  0  0  0  0  0  0  0  0  0
  -25.7923   -0.4302   29.0761 C   0  0  0  0  0  0  0  0  0  0  0  0
  -24.5456    0.3494   28.8225 C   0  0  0  0  0  0  0  0  0  0  0  0
  -24.6586    1.4196   27.8878 C   0  0  0  0  0  0  0  0  0  0  0  0
  -25.9471    1.6811   27.3792 C   0  0  0  0  0  0  0  0  0  0  0  0
  -27.0439    0.9739   27.6871 C   0  0  0  0  0  0  0  0  0  0  0  0
  -29.1882   -0.1472   29.0918 N   0  0  0  0  0  0  0  0  0  0  0  0
  -29.6010    0.1627   30.3267 C   0  0  0  0  0  0  0  0  0  0  0  0
  -30.0469    0.0268   27.9837 C   0  0  0  0  0  0  0  0  0  0  0  0
  -23.2727    2.3027   27.5708 Cl  0  0  0  0  0  0  0  0  0  0  0  0
  -31.0336    0.9656   28.2075 C   0  0  0  0  0  0  0  0  0  0  0  0
  -31.6683    0.9003   29.3126 C   0  0  0  0  0  0  0  0  0  0  0  0
  -31.2642    0.2952   30.2694 C   0  0  0  0  0  0  0  0  0  0  0  0
  -27.9268   -1.9878   29.4271 O   0  0  0  0  0  0  0  0  0  0  0  0
  -31.6145    1.4581   26.8645 C   0  0  0  0  0  0  0  0  0  0  0  0
  -32.3743    2.2434   26.8331 O   0  0  0  0  0  0  0  0  0  0  0  0
  -31.0671    1.0164   25.7709 O   0  0  0  0  0  0  0  0  0  0  0  0
  -23.2512   -0.0996   29.3349 C   0  0  0  0  0  0  0  0  0  0  0  0
  -22.3654    0.0017   28.6242 F   0  0  0  0  0  0  0  0  0  0  0  0
  -23.4667   -1.3957   29.7795 F   0  0  0  0  0  0  0  0  0  0  0  0
  -23.0995    0.5814   30.5632 F   0  0  0  0  0  0  0  0  0  0  0  0
  -31.8444    0.0360   31.6494 C   0  0  0  0  0  0  0  0  0  0  0  0
  -31.6345    0.8381   32.6713 C   0  0  0  0  0  0  0  0  0  0  0  0
  -31.0469    1.9465   32.6067 C   0  0  0  0  0  0  0  0  0  0  0  0
  -30.8318    2.8323   33.7676 C   0  0  0  0  0  0  0  0  0  0  0  0
  -31.3542    2.3501   34.9401 C   0  0  0  0  0  0  0  0  0  0  0  0
  -31.9763    1.1815   35.0525 C   0  0  0  0  0  0  0  0  0  0  0  0
  -32.1192    0.3960   33.9118 C   0  0  0  0  0  0  0  0  0  0  0  0
  -32.7193   -1.0962   31.5088 C   0  0  0  0  0  0  0  0  0  0  0  0
  -34.0095   -0.9531   31.4036 C   0  0  0  0  0  0  0  0  0  0  0  0
  1  2  1  0
  1  8  1  0
  8  9  1  0
  8 10  1  0
  5 11  1  0
 10 12  1  0
  9 14  1  0
 13 14  1  0
  1 15  2  0
 12 16  1  0
 16 17  2  0
 16 18  1  0
  4 19  1  0
 19 20  1  0
 19 21  1  0
 19 22  1  0
 14 23  1  0
 23 24  1  0
 23 30  1  0
 30 31  2  0
 13 12  1  0
  2  3  2  0
  3  4  1  0
  4  5  2  0
  5  6  1  0
  6  7  2  0
  7  2  1  0
 24 25  2  0
 25 26  1  0
 26 27  2  0
 27 28  1  0
 28 29  2  0
 29 24  1  0
M  END

$$$$
