No_1217-gen_results/8p0m/2024-11-26-14-13-15/
     RDKit          3D

 25 26  0  0  0  0  0  0  0  0999 V2000
  -28.0162   -0.8135   28.8779 C   0  0  0  0  0  0  0  0  0  0  0  0
  -27.0636   -0.1189   28.6079 C   0  0  0  0  0  0  0  0  0  0  0  0
  -26.9716    0.7139   27.5060 C   0  0  0  0  0  0  0  0  0  0  0  0
  -25.8205    1.4909   27.1160 C   0  0  0  0  0  0  0  0  0  0  0  0
  -24.6562    1.4242   27.9180 C   0  0  0  0  0  0  0  0  0  0  0  0
  -24.6847    0.5901   29.0659 C   0  0  0  0  0  0  0  0  0  0  0  0
  -25.8099   -0.1265   29.3338 C   0  0  0  0  0  0  0  0  0  0  0  0
  -28.7093   -0.4588   30.1754 C   0  0  0  0  0  0  0  0  0  0  0  0
  -28.6701    0.3803   30.7522 O   0  0  0  0  0  0  0  0  0  0  0  0
  -29.4758   -1.6155   30.6141 O   0  0  0  0  0  0  0  0  0  0  0  0
  -23.2807    2.3456   27.5534 Cl  0  0  0  0  0  0  0  0  0  0  0  0
  -27.9576    0.7858   26.6493 F   0  0  0  0  0  0  0  0  0  0  0  0
  -23.4523    0.4957   29.9280 C   0  0  0  0  0  0  0  0  0  0  0  0
  -23.1519   -0.6663   30.4507 C   0  0  0  0  0  0  0  0  0  0  0  0
  -22.3744   -0.9605   31.2930 C   0  0  0  0  0  0  0  0  0  0  0  0
  -23.4087   -1.7437   29.4986 C   0  0  0  0  0  0  0  0  0  0  0  0
  -29.6902   -2.6803   30.0494 C   0  0  0  0  0  0  0  0  0  0  0  0
  -29.5007   -3.8024   30.6102 C   0  0  0  0  0  0  0  0  0  0  0  0
  -29.7346   -4.9489   29.9288 O   0  0  0  0  0  0  0  0  0  0  0  0
  -30.3900   -4.7847   28.8672 C   0  0  0  0  0  0  0  0  0  0  0  0
  -31.2346   -3.6281   29.0901 C   0  0  0  0  0  0  0  0  0  0  0  0
  -30.6053   -2.5059   29.2892 O   0  0  0  0  0  0  0  0  0  0  0  0
  -32.2123   -3.4342   27.8296 C   0  0  0  0  0  0  0  0  0  0  0  0
  -32.0781   -2.4528   27.2123 O   0  0  0  0  0  0  0  0  0  0  0  0
  -31.0865   -5.9707   28.5175 O   0  0  0  0  0  0  0  0  0  0  0  0
  1  2  2  3
  2  3  1  0
  3  4  1  0
  4  5  1  0
  5  6  1  0
  2  7  1  0
  6  7  1  0
  1  8  1  0
  8  9  2  0
  8 10  1  0
  5 11  1  0
  3 12  1  0
  6 13  1  0
 13 14  2  3
 14 15  1  0
 14 16  1  0
 10 17  1  0
 17 18  1  0
 18 19  1  0
 19 20  1  0
 20 21  1  0
 17 22  1  0
 21 22  1  0
 21 23  1  0
 23 24  2  0
 20 25  1  0
M  END

$$$$
