No_1090-gen_results/8p0m/2024-11-26-14-13-15/
     RDKit          3D

 15 16  0  0  0  0  0  0  0  0999 V2000
  -28.0162   -0.8135   28.8779 C   0  0  0  0  0  0  0  0  0  0  0  0
  -27.0636   -0.1189   28.6079 C   0  0  0  0  0  0  0  0  0  0  0  0
  -25.7647   -0.3897   29.0360 C   0  0  0  0  0  0  0  0  0  0  0  0
  -25.5296   -1.5302   29.9014 C   0  0  0  0  0  0  0  0  0  0  0  0
  -26.6888   -2.2893   30.1810 C   0  0  0  0  0  0  0  0  0  0  0  0
  -27.8727   -1.9508   29.7373 C   0  0  0  0  0  0  0  0  0  0  0  0
  -28.9290   -2.7583   30.1275 N   0  0  0  0  0  0  0  0  0  0  0  0
  -30.1307   -2.3161   30.3537 C   0  0  0  0  0  0  0  0  0  0  0  0
  -31.1385   -3.3353   30.6074 C   0  0  0  0  0  0  0  0  0  0  0  0
  -28.7714   -4.1570   30.2708 C   0  0  0  0  0  0  0  0  0  0  0  0
  -29.6870   -5.0997   30.5535 C   0  0  0  0  0  0  0  0  0  0  0  0
  -30.8979   -4.6083   30.7855 C   0  0  0  0  0  0  0  0  0  0  0  0
  -24.4210    0.2343   28.7173 C   0  0  0  0  0  0  0  0  0  0  0  0
  -24.0561    1.3446   29.3944 C   0  0  0  0  0  0  0  0  0  0  0  0
  -22.8747    1.9381   28.9948 N   0  0  0  0  0  0  0  0  0  0  0  0
  6  7  1  0
  7  8  1  0
  7 10  1  0
  9 12  1  0
 11 12  1  0
  3 13  1  0
 13 14  2  3
 14 15  1  0
  8  9  1  0
 11 10  1  0
  1  2  2  0
  2  3  1  0
  3  4  2  0
  4  5  1  0
  5  6  2  0
  6  1  1  0
M  END

$$$$
