No_1754-gen_results/8p0m/2024-11-26-14-13-15/
     RDKit          3D

 17 18  0  0  0  0  0  0  0  0999 V2000
  -28.0162   -0.8135   28.8779 C   0  0  0  0  0  0  0  0  0  0  0  0
  -28.4690   -0.7850   29.8287 C   0  0  0  0  0  0  0  0  0  0  0  0
  -28.1816    0.4277   28.1134 C   0  0  0  0  0  0  0  0  0  0  0  0
  -27.0280    0.9338   27.5279 C   0  0  0  0  0  0  0  0  0  0  0  0
  -29.7897   -0.7748   30.0880 N   0  0  0  0  0  0  0  0  0  0  0  0
  -26.8897    1.4935   26.5388 C   0  0  0  0  0  0  0  0  0  0  0  0
  -25.5693    1.9769   25.9106 C   0  0  0  0  0  0  0  0  0  0  0  0
  -24.4067    1.6746   26.6828 C   0  0  0  0  0  0  0  0  0  0  0  0
  -24.5476    1.0539   27.9157 C   0  0  0  0  0  0  0  0  0  0  0  0
  -25.7819    0.6322   28.3552 C   0  0  0  0  0  0  0  0  0  0  0  0
  -30.4373    0.1776   29.3060 C   0  0  0  0  0  0  0  0  0  0  0  0
  -29.5075    0.8931   28.2717 C   0  0  0  0  0  0  0  0  0  0  0  0
  -23.2780    0.7925   28.6460 C   0  0  0  0  0  0  0  0  0  0  0  0
  -23.0739   -0.5428   29.0905 C   0  0  0  0  0  0  0  0  0  0  0  0
  -30.5652   -1.3681   31.1164 C   0  0  0  0  0  0  0  0  0  0  0  0
  -22.0741    1.3370   27.8871 C   0  0  0  0  0  0  0  0  0  0  0  0
  -23.4395    1.6841   30.0055 C   0  0  0  0  0  0  0  0  0  0  0  0
  1  2  1  0
  1  3  1  0
  3  4  1  0
  2  5  1  0
  5 11  1  0
  3 12  1  0
  9 13  1  0
 13 14  1  0
  5 15  1  0
 13 16  1  0
 13 17  1  0
 12 11  1  0
  4  6  2  0
  6  7  1  0
  7  8  2  0
  8  9  1  0
  9 10  2  0
 10  4  1  0
M  END

$$$$
