No_1798-gen_results/8p0m/2024-11-26-14-13-15/
     RDKit          3D

 29 32  0  0  0  0  0  0  0  0999 V2000
  -28.0162   -0.8135   28.8779 C   0  0  0  0  0  0  0  0  0  0  0  0
  -27.0636   -0.1189   28.6079 C   0  0  0  0  0  0  0  0  0  0  0  0
  -25.7647   -0.3897   29.0360 C   0  0  0  0  0  0  0  0  0  0  0  0
  -25.5296   -1.5302   29.9014 C   0  0  0  0  0  0  0  0  0  0  0  0
  -26.6888   -2.2893   30.1810 C   0  0  0  0  0  0  0  0  0  0  0  0
  -27.8727   -1.9508   29.7373 C   0  0  0  0  0  0  0  0  0  0  0  0
  -29.1266   -3.0333   30.2545 Cl  0  0  0  0  0  0  0  0  0  0  0  0
  -24.5419    0.4316   28.7270 C   0  0  0  0  0  0  0  0  0  0  0  0
  -24.0642    1.4025   29.5844 C   0  0  0  0  0  0  0  0  0  0  0  0
  -23.0005    2.1327   29.1607 N   0  0  0  0  0  0  0  0  0  0  0  0
  -24.6555    1.7092   30.6666 O   0  0  0  0  0  0  0  0  0  0  0  0
  -22.2106    1.9238   28.0127 C   0  0  0  0  0  0  0  0  0  0  0  0
  -23.7930    0.2369   27.4807 C   0  0  0  0  0  0  0  0  0  0  0  0
  -22.7308    0.9724   27.2202 C   0  0  0  0  0  0  0  0  0  0  0  0
  -27.2070    1.0583   27.6540 C   0  0  0  0  0  0  0  0  0  0  0  0
  -27.5490    2.2135   28.2814 C   0  0  0  0  0  0  0  0  0  0  0  0
  -27.7656    3.3942   27.4899 C   0  0  0  0  0  0  0  0  0  0  0  0
  -27.6001    3.2928   26.1217 C   0  0  0  0  0  0  0  0  0  0  0  0
  -27.0878    0.9314   26.3266 C   0  0  0  0  0  0  0  0  0  0  0  0
  -27.2702    2.0524   25.5086 C   0  0  0  0  0  0  0  0  0  0  0  0
  -27.7374    2.4418   29.9578 Cl  0  0  0  0  0  0  0  0  0  0  0  0
  -23.9779   -1.9540   30.4414 Cl  0  0  0  0  0  0  0  0  0  0  0  0
  -24.4161    1.1311   31.8975 C   0  0  0  0  0  0  0  0  0  0  0  0
  -25.7091    0.8645   32.7024 C   0  0  0  0  0  0  0  0  0  0  0  0
  -25.7206   -0.1170   33.6196 C   0  0  0  0  0  0  0  0  0  0  0  0
  -27.0034   -0.4833   34.1287 C   0  0  0  0  0  0  0  0  0  0  0  0
  -28.1647    0.1455   33.6273 C   0  0  0  0  0  0  0  0  0  0  0  0
  -28.0472    1.2542   32.7997 C   0  0  0  0  0  0  0  0  0  0  0  0
  -26.8365    1.5460   32.2307 C   0  0  0  0  0  0  0  0  0  0  0  0
  6  7  1  0
  3  8  1  0
  9 11  1  0
  2 15  1  0
 16 21  1  0
  4 22  1  0
 11 23  1  0
 23 24  1  0
 15 16  2  0
 16 17  1  0
 17 18  2  0
 18 20  1  0
 20 19  2  0
 19 15  1  0
  1  2  2  0
  2  3  1  0
  3  4  2  0
  4  5  1  0
  5  6  2  0
  6  1  1  0
 24 25  2  0
 25 26  1  0
 26 27  2  0
 27 28  1  0
 28 29  2  0
 29 24  1  0
  8  9  1  0
  9 10  2  0
 10 12  1  0
 12 14  2  0
 14 13  1  0
 13  8  2  0
M  END

$$$$
