No_1526-gen_results/8p0m/2024-11-26-14-13-15/
     RDKit          3D

 19 20  0  0  0  0  0  0  0  0999 V2000
  -28.0162   -0.8135   28.8779 C   0  0  0  0  0  0  0  0  0  0  0  0
  -28.4690   -0.7850   29.8287 C   0  0  0  0  0  0  0  0  0  0  0  0
  -26.5455   -0.8762   28.8500 C   0  0  0  0  0  0  0  0  0  0  0  0
  -25.8974   -0.8267   29.8894 C   0  0  0  0  0  0  0  0  0  0  0  0
  -27.9129   -0.8385   31.1942 C   0  0  0  0  0  0  0  0  0  0  0  0
  -24.3990   -0.8610   29.9702 C   0  0  0  0  0  0  0  0  0  0  0  0
  -26.5235   -0.8574   31.1732 C   0  0  0  0  0  0  0  0  0  0  0  0
  -23.7142   -0.0788   29.0463 C   0  0  0  0  0  0  0  0  0  0  0  0
  -22.3065   -0.0691   29.0659 C   0  0  0  0  0  0  0  0  0  0  0  0
  -21.6282    0.7386   28.1352 C   0  0  0  0  0  0  0  0  0  0  0  0
  -22.3044    1.6695   27.3256 C   0  0  0  0  0  0  0  0  0  0  0  0
  -23.6801    1.7722   27.4504 C   0  0  0  0  0  0  0  0  0  0  0  0
  -24.3896    0.9350   28.3264 C   0  0  0  0  0  0  0  0  0  0  0  0
  -24.4694    2.9244   26.4739 Cl  0  0  0  0  0  0  0  0  0  0  0  0
  -29.9362   -0.7755   29.9039 F   0  0  0  0  0  0  0  0  0  0  0  0
  -23.9530   -2.3459   29.8538 C   0  0  0  0  0  0  0  0  0  0  0  0
  -23.9457   -0.4218   31.4816 C   0  0  0  0  0  0  0  0  0  0  0  0
  -23.3664   -1.2676   32.3500 C   0  0  0  0  0  0  0  0  0  0  0  0
  -24.2267    0.9650   31.8168 C   0  0  0  0  0  0  0  0  0  0  0  0
  4  6  1  0
  6  8  1  0
 12 14  1  0
  2 15  1  0
  6 16  1  0
  6 17  1  0
 17 18  2  0
 17 19  1  0
  8  9  2  0
  9 10  1  0
 10 11  2  0
 11 12  1  0
 12 13  2  0
 13  8  1  0
  1  2  2  0
  2  5  1  0
  5  7  2  0
  7  4  1  0
  4  3  2  0
  3  1  1  0
M  END

$$$$
