No_1245-gen_results/8p0m/2024-11-26-14-13-15/
     RDKit          3D

  6  5  0  0  0  0  0  0  0  0999 V2000
  -28.1229   -1.3353   28.4874 O   0  0  0  0  0  0  0  0  0  0  0  0
  -27.0637   -0.8242   28.8687 C   0  0  0  0  0  0  0  0  0  0  0  0
  -26.9592    0.0926   29.7582 C   0  0  0  0  0  0  0  0  0  0  0  0
  -25.9873   -1.0033   28.0327 F   0  0  0  0  0  0  0  0  0  0  0  0
  -26.0939    1.2039   29.6159 C   0  0  0  0  0  0  0  0  0  0  0  0
  -24.9631    0.9673   28.6479 C   0  0  0  0  0  0  0  0  0  0  0  0
  1  2  2  0
  2  3  1  0
  2  4  1  0
  3  5  2  3
  5  6  1  0
M  END

$$$$
