No_1631-gen_results/8p0m/2024-11-26-14-13-15/
     RDKit          3D

 28 29  0  0  0  0  0  0  0  0999 V2000
  -28.0162   -0.8135   28.8779 C   0  0  0  0  0  0  0  0  0  0  0  0
  -27.0636   -0.1189   28.6079 C   0  0  0  0  0  0  0  0  0  0  0  0
  -25.7647   -0.3897   29.0360 C   0  0  0  0  0  0  0  0  0  0  0  0
  -25.5296   -1.5302   29.9014 C   0  0  0  0  0  0  0  0  0  0  0  0
  -24.3236   -1.9076   30.4324 C   0  0  0  0  0  0  0  0  0  0  0  0
  -27.9274   -1.9227   29.7902 C   0  0  0  0  0  0  0  0  0  0  0  0
  -26.6914   -2.2806   30.2948 C   0  0  0  0  0  0  0  0  0  0  0  0
  -23.7750   -2.8305   29.8519 F   0  0  0  0  0  0  0  0  0  0  0  0
  -23.8103   -1.3452   31.4340 F   0  0  0  0  0  0  0  0  0  0  0  0
  -29.0891   -2.7207   30.2413 C   0  0  0  0  0  0  0  0  0  0  0  0
  -29.0862   -3.8780   30.5233 O   0  0  0  0  0  0  0  0  0  0  0  0
  -30.2122   -2.0995   30.3775 O   0  0  0  0  0  0  0  0  0  0  0  0
  -27.1143    1.0009   27.6006 C   0  0  0  0  0  0  0  0  0  0  0  0
  -26.5411    0.9318   26.6076 F   0  0  0  0  0  0  0  0  0  0  0  0
  -28.4707    1.2016   27.3120 F   0  0  0  0  0  0  0  0  0  0  0  0
  -26.8090    2.1984   28.2452 F   0  0  0  0  0  0  0  0  0  0  0  0
  -31.4050   -2.7161   30.4211 C   0  0  0  0  0  0  0  0  0  0  0  0
  -32.4993   -2.1008   29.7318 C   0  0  0  0  0  0  0  0  0  0  0  0
  -32.5421   -0.8880   29.5858 O   0  0  0  0  0  0  0  0  0  0  0  0
  -33.3744   -2.8427   29.0517 N   0  0  0  0  0  0  0  0  0  0  0  0
  -34.4314   -2.3376   28.1779 C   0  0  0  0  0  0  0  0  0  0  0  0
  -33.3942   -4.3185   29.1462 C   0  0  0  0  0  0  0  0  0  0  0  0
  -33.5122   -4.9562   30.1080 C   0  0  0  0  0  0  0  0  0  0  0  0
  -33.9752   -4.4196   31.3075 C   0  0  0  0  0  0  0  0  0  0  0  0
  -34.1187   -5.2404   32.5341 C   0  0  0  0  0  0  0  0  0  0  0  0
  -33.7506   -6.5784   32.3695 C   0  0  0  0  0  0  0  0  0  0  0  0
  -33.2670   -7.1395   31.2475 C   0  0  0  0  0  0  0  0  0  0  0  0
  -33.1014   -6.3323   30.1055 C   0  0  0  0  0  0  0  0  0  0  0  0
  4  5  1  0
  5  8  1  0
  5  9  1  0
  6 10  1  0
 10 11  2  0
 10 12  1  0
  2 13  1  0
 13 14  1  0
 13 15  1  0
 13 16  1  0
 12 17  1  0
 17 18  1  0
 18 19  2  0
 18 20  1  0
 20 21  1  0
 20 22  1  0
 22 23  1  0
 23 24  2  0
 24 25  1  0
 25 26  2  0
 26 27  1  0
 27 28  2  0
 28 23  1  0
  1  2  2  0
  2  3  1  0
  3  4  2  0
  4  7  1  0
  7  6  2  0
  6  1  1  0
M  END

$$$$
