No_1842-gen_results/8p0m/2024-11-26-14-13-15/
     RDKit          3D

 17 19  0  0  0  0  0  0  0  0999 V2000
  -28.0162   -0.8135   28.8779 C   0  0  0  0  0  0  0  0  0  0  0  0
  -27.0636   -0.1190   28.6079 C   0  0  0  0  0  0  0  0  0  0  0  0
  -26.9716    0.7139   27.5060 C   0  0  0  0  0  0  0  0  0  0  0  0
  -25.8205    1.4909   27.1160 C   0  0  0  0  0  0  0  0  0  0  0  0
  -24.6562    1.4242   27.9180 C   0  0  0  0  0  0  0  0  0  0  0  0
  -24.6847    0.5901   29.0659 C   0  0  0  0  0  0  0  0  0  0  0  0
  -25.8099   -0.1265   29.3338 C   0  0  0  0  0  0  0  0  0  0  0  0
  -29.2185   -0.0422   29.3127 C   0  0  0  0  0  0  0  0  0  0  0  0
  -30.2802   -0.8075   29.8362 C   0  0  0  0  0  0  0  0  0  0  0  0
  -23.4679    2.2043   27.6013 C   0  0  0  0  0  0  0  0  0  0  0  0
  -22.5604    2.2190   28.4825 O   0  0  0  0  0  0  0  0  0  0  0  0
  -23.2751    2.6124   26.3872 O   0  0  0  0  0  0  0  0  0  0  0  0
  -31.5561   -0.7321   29.3573 C   0  0  0  0  0  0  0  0  0  0  0  0
  -31.8315    0.2951   28.5551 C   0  0  0  0  0  0  0  0  0  0  0  0
  -30.8352    1.1535   28.0437 C   0  0  0  0  0  0  0  0  0  0  0  0
  -29.5372    0.8386   28.3325 C   0  0  0  0  0  0  0  0  0  0  0  0
  -28.4530    1.4503   27.4880 C   0  0  0  0  0  0  0  0  0  0  0  0
  3  4  1  0
  4  5  1  0
  5  6  1  0
  2  7  1  0
  6  7  1  0
  5 10  1  0
 10 11  2  0
 10 12  1  0
  8  9  2  0
  9 13  1  0
 13 14  2  0
 14 15  1  0
 15 16  2  0
  1  2  2  0
  2  3  1  0
  3 17  2  0
 17 16  1  0
 16  8  1  0
  8  1  1  0
M  END

$$$$
