No_1600-gen_results/8p0m/2024-11-26-14-13-15/
     RDKit          3D

 15 17  0  0  0  0  0  0  0  0999 V2000
  -28.1229   -1.3353   28.4874 O   0  0  0  0  0  0  0  0  0  0  0  0
  -27.0637   -0.8242   28.8687 C   0  0  0  0  0  0  0  0  0  0  0  0
  -27.0246    0.1877   29.7358 C   0  0  0  0  0  0  0  0  0  0  0  0
  -25.8012   -1.1094   28.2407 N   0  0  0  0  0  0  0  0  0  0  0  0
  -27.9472    0.7540   30.3236 C   0  0  0  0  0  0  0  0  0  0  0  0
  -24.5681   -0.6395   28.5844 C   0  0  0  0  0  0  0  0  0  0  0  0
  -24.5154    0.3631   29.4637 C   0  0  0  0  0  0  0  0  0  0  0  0
  -25.6202    0.8010   30.0710 C   0  0  0  0  0  0  0  0  0  0  0  0
  -28.1778    1.8830   30.6687 C   0  0  0  0  0  0  0  0  0  0  0  0
  -29.3867    2.4588   31.2381 C   0  0  0  0  0  0  0  0  0  0  0  0
  -29.5166    3.7843   31.6718 C   0  0  0  0  0  0  0  0  0  0  0  0
  -28.3768    4.6119   31.5556 C   0  0  0  0  0  0  0  0  0  0  0  0
  -27.1700    4.1338   31.0513 C   0  0  0  0  0  0  0  0  0  0  0  0
  -27.0448    2.8135   30.6461 C   0  0  0  0  0  0  0  0  0  0  0  0
  -25.7217    2.2750   30.2808 C   0  0  0  0  0  0  0  0  0  0  0  0
  1  2  1  0
  9 10  1  0
 10 11  2  0
 11 12  1  0
 12 13  2  0
 13 14  1  0
  2  3  2  0
  8  7  2  0
  7  6  1  0
  6  4  2  0
  4  2  1  0
  3  5  1  0
  5  9  2  0
  9 14  1  0
 14 15  2  0
 15  8  1  0
  8  3  1  0
M  END

$$$$
