No_1101-gen_results/8p0m/2024-11-26-14-13-15/
     RDKit          3D

 28 30  0  0  0  0  0  0  0  0999 V2000
  -28.0162   -0.8135   28.8779 C   0  0  0  0  0  0  0  0  0  0  0  0
  -27.0636   -0.1189   28.6079 C   0  0  0  0  0  0  0  0  0  0  0  0
  -25.7923   -0.4302   29.0761 C   0  0  0  0  0  0  0  0  0  0  0  0
  -24.5456    0.3494   28.8225 C   0  0  0  0  0  0  0  0  0  0  0  0
  -24.6586    1.4196   27.8878 C   0  0  0  0  0  0  0  0  0  0  0  0
  -25.9471    1.6811   27.3792 C   0  0  0  0  0  0  0  0  0  0  0  0
  -27.0439    0.9739   27.6871 C   0  0  0  0  0  0  0  0  0  0  0  0
  -28.0017   -1.8582   29.6867 O   0  0  0  0  0  0  0  0  0  0  0  0
  -29.2973   -0.4205   28.5637 N   0  0  0  0  0  0  0  0  0  0  0  0
  -29.5635    0.6631   27.8183 C   0  0  0  0  0  0  0  0  0  0  0  0
  -28.4044    1.4041   27.3347 C   0  0  0  0  0  0  0  0  0  0  0  0
  -23.4500    2.1402   27.5683 C   0  0  0  0  0  0  0  0  0  0  0  0
  -22.2521    1.7447   28.0425 N   0  0  0  0  0  0  0  0  0  0  0  0
  -23.5179    3.1233   26.6577 N   0  0  0  0  0  0  0  0  0  0  0  0
  -30.8525    1.0484   27.3727 C   0  0  0  0  0  0  0  0  0  0  0  0
  -31.7145    1.2658   28.1164 O   0  0  0  0  0  0  0  0  0  0  0  0
  -30.9182    1.4035   26.1067 O   0  0  0  0  0  0  0  0  0  0  0  0
  -30.5092   -1.1720   28.9725 C   0  0  0  0  0  0  0  0  0  0  0  0
  -22.0314    0.8039   28.9396 C   0  0  0  0  0  0  0  0  0  0  0  0
  -23.1849   -0.0492   29.3183 C   0  0  0  0  0  0  0  0  0  0  0  0
  -22.9837   -1.1671   30.1694 C   0  0  0  0  0  0  0  0  0  0  0  0
  -22.3695   -0.9569   31.0951 F   0  0  0  0  0  0  0  0  0  0  0  0
  -24.2079   -1.6824   30.4982 F   0  0  0  0  0  0  0  0  0  0  0  0
  -22.3212   -2.0843   29.3820 F   0  0  0  0  0  0  0  0  0  0  0  0
  -30.4264   -1.7176   30.5250 P   0  0  0  0  0  0  0  0  0  0  0  0
  -30.1103   -2.9067   30.5835 O   0  0  0  0  0  0  0  0  0  0  0  0
  -29.4958   -0.8288   31.4288 O   0  0  0  0  0  0  0  0  0  0  0  0
  -31.9126   -1.3780   31.0666 O   0  0  0  0  0  0  0  0  0  0  0  0
  1  2  1  0
  1  8  2  0
  1  9  1  0
  9 10  1  0
  7 11  1  0
 12 14  1  0
 10 15  1  0
 15 16  2  0
 15 17  1  0
  9 18  1  0
 20 21  1  0
 21 22  1  0
 21 23  1  0
 21 24  1  0
 18 25  1  0
 25 26  2  0
 25 27  1  0
 25 28  1  0
 11 10  1  0
  2  3  2  0
  3  4  1  0
  5  6  1  0
  6  7  2  0
  7  2  1  0
  4  5  2  0
  5 12  1  0
 12 13  2  0
 13 19  1  0
 19 20  2  0
 20  4  1  0
M  END

$$$$
