No_1418-gen_results/8p0m/2024-11-26-14-13-15/
     RDKit          3D

 19 19  0  0  0  0  0  0  0  0999 V2000
  -28.0162   -0.8135   28.8779 C   0  0  0  0  0  0  0  0  0  0  0  0
  -27.0636   -0.1190   28.6079 C   0  0  0  0  0  0  0  0  0  0  0  0
  -25.7923   -0.4302   29.0761 C   0  0  0  0  0  0  0  0  0  0  0  0
  -24.5456    0.3494   28.8225 C   0  0  0  0  0  0  0  0  0  0  0  0
  -24.6586    1.4196   27.8878 C   0  0  0  0  0  0  0  0  0  0  0  0
  -25.9471    1.6811   27.3792 C   0  0  0  0  0  0  0  0  0  0  0  0
  -27.0439    0.9739   27.6871 C   0  0  0  0  0  0  0  0  0  0  0  0
  -28.6567   -0.5529   30.0960 N   0  0  0  0  0  0  0  0  0  0  0  0
  -29.5646   -0.5256   30.5354 C   0  0  0  0  0  0  0  0  0  0  0  0
  -30.5327   -0.8194   29.8127 F   0  0  0  0  0  0  0  0  0  0  0  0
  -29.9586    0.6185   31.2210 O   0  0  0  0  0  0  0  0  0  0  0  0
  -23.4709    2.1852   27.5878 C   0  0  0  0  0  0  0  0  0  0  0  0
  -22.4815    1.7273   27.3123 Cl  0  0  0  0  0  0  0  0  0  0  0  0
  -23.8639    3.4985   27.3885 F   0  0  0  0  0  0  0  0  0  0  0  0
  -29.7141   -1.6680   31.7196 C   0  0  0  0  0  0  0  0  0  0  0  0
  -29.2004   -1.4867   32.8074 C   0  0  0  0  0  0  0  0  0  0  0  0
  -30.2686   -2.9213   31.3328 C   0  0  0  0  0  0  0  0  0  0  0  0
  -29.6986   -4.0606   31.8270 C   0  0  0  0  0  0  0  0  0  0  0  0
  -28.9888   -2.5959   33.7691 C   0  0  0  0  0  0  0  0  0  0  0  0
  1  2  1  0
  1  8  1  0
  8  9  1  0
  9 10  1  0
  9 11  1  0
  5 12  1  0
 12 13  1  0
 12 14  1  0
  9 15  1  0
 15 16  1  0
 15 17  1  0
 17 18  1  0
 16 19  2  0
  2  3  2  0
  3  4  1  0
  4  5  2  0
  5  6  1  0
  6  7  2  0
  7  2  1  0
M  END

$$$$
