No_1284-gen_results/8p0m/2024-11-26-14-13-15/
     RDKit          3D

 15 16  0  0  0  0  0  0  0  0999 V2000
  -28.0162   -0.8135   28.8779 C   0  0  0  0  0  0  0  0  0  0  0  0
  -27.0636   -0.1189   28.6079 C   0  0  0  0  0  0  0  0  0  0  0  0
  -26.9716    0.7139   27.5060 C   0  0  0  0  0  0  0  0  0  0  0  0
  -28.1053    0.7744   26.6421 C   0  0  0  0  0  0  0  0  0  0  0  0
  -29.2008    0.1044   27.0527 C   0  0  0  0  0  0  0  0  0  0  0  0
  -29.2096   -0.6029   28.1853 C   0  0  0  0  0  0  0  0  0  0  0  0
  -30.3702    0.2264   26.1604 C   0  0  0  0  0  0  0  0  0  0  0  0
  -31.2210   -0.4630   26.3096 O   0  0  0  0  0  0  0  0  0  0  0  0
  -30.1244    0.8419   24.8873 N   0  0  0  0  0  0  0  0  0  0  0  0
  -25.7085   -0.2255   29.4405 C   0  0  0  0  0  0  0  0  0  0  0  0
  -25.6507   -0.8754   30.3304 F   0  0  0  0  0  0  0  0  0  0  0  0
  -25.4121    1.0867   29.8936 F   0  0  0  0  0  0  0  0  0  0  0  0
  -24.6279   -0.4157   28.5780 F   0  0  0  0  0  0  0  0  0  0  0  0
  -29.0856    1.7273   24.5894 C   0  0  0  0  0  0  0  0  0  0  0  0
  -27.9249    1.5148   25.4769 C   0  0  0  0  0  0  0  0  0  0  0  0
  5  7  1  0
  7  8  2  0
  7  9  1  0
  2 10  1  0
 10 11  1  0
 10 12  1  0
 10 13  1  0
  4 15  1  0
 14 15  1  0
 14  9  1  0
  1  2  2  0
  2  3  1  0
  3  4  2  0
  4  5  1  0
  5  6  2  0
  6  1  1  0
M  END

$$$$
