No_1422-gen_results/8p0m/2024-11-26-14-13-15/
     RDKit          3D

 13 13  0  0  0  0  0  0  0  0999 V2000
  -28.0162   -0.8135   28.8779 C   0  0  0  0  0  0  0  0  0  0  0  0
  -27.0636   -0.1189   28.6079 C   0  0  0  0  0  0  0  0  0  0  0  0
  -26.8756    1.1325   28.9134 C   0  0  0  0  0  0  0  0  0  0  0  0
  -27.9014    1.8066   29.6436 C   0  0  0  0  0  0  0  0  0  0  0  0
  -29.0458   -0.2316   29.7181 C   0  0  0  0  0  0  0  0  0  0  0  0
  -28.9402    1.0517   30.0597 C   0  0  0  0  0  0  0  0  0  0  0  0
  -30.3294   -1.2509   30.1909 Cl  0  0  0  0  0  0  0  0  0  0  0  0
  -25.6528    1.9343   28.4399 C   0  0  0  0  0  0  0  0  0  0  0  0
  -25.4029    3.0418   28.9726 F   0  0  0  0  0  0  0  0  0  0  0  0
  -25.7610    2.1705   27.0803 F   0  0  0  0  0  0  0  0  0  0  0  0
  -24.5329    1.1628   28.6062 F   0  0  0  0  0  0  0  0  0  0  0  0
  -30.1734    1.6651   31.0913 Cl  0  0  0  0  0  0  0  0  0  0  0  0
  -25.7350   -0.9175   27.5522 Cl  0  0  0  0  0  0  0  0  0  0  0  0
  5  7  1  0
  3  8  1  0
  8  9  1  0
  8 10  1  0
  8 11  1  0
  6 12  1  0
  2 13  1  0
  1  2  2  0
  2  3  1  0
  3  4  2  0
  4  6  1  0
  6  5  2  0
  5  1  1  0
M  END

$$$$
