No_1875-gen_results/8p0m/2024-11-26-14-13-15/
     RDKit          3D

 21 23  0  0  0  0  0  0  0  0999 V2000
  -28.0162   -0.8135   28.8779 C   0  0  0  0  0  0  0  0  0  0  0  0
  -27.0636   -0.1190   28.6079 C   0  0  0  0  0  0  0  0  0  0  0  0
  -25.7923   -0.4302   29.0761 C   0  0  0  0  0  0  0  0  0  0  0  0
  -25.5756   -1.5654   29.9363 C   0  0  0  0  0  0  0  0  0  0  0  0
  -26.7354   -2.3004   30.2173 C   0  0  0  0  0  0  0  0  0  0  0  0
  -27.9184   -1.9537   29.7629 C   0  0  0  0  0  0  0  0  0  0  0  0
  -27.3243    1.0850   27.8190 C   0  0  0  0  0  0  0  0  0  0  0  0
  -27.7568    2.0125   28.0222 C   0  0  0  0  0  0  0  0  0  0  0  0
  -26.9385    0.7753   26.3548 C   0  0  0  0  0  0  0  0  0  0  0  0
  -26.2109   -0.3278   25.9220 C   0  0  0  0  0  0  0  0  0  0  0  0
  -27.9471    2.5283   29.3363 C   0  0  0  0  0  0  0  0  0  0  0  0
  -27.0859    2.1022   30.3485 C   0  0  0  0  0  0  0  0  0  0  0  0
  -27.4043    2.6201   31.7033 C   0  0  0  0  0  0  0  0  0  0  0  0
  -25.8632   -0.4450   24.5717 C   0  0  0  0  0  0  0  0  0  0  0  0
  -27.1930    1.6628   25.3311 C   0  0  0  0  0  0  0  0  0  0  0  0
  -27.1005    1.3930   24.0038 C   0  0  0  0  0  0  0  0  0  0  0  0
  -26.2849    0.3604   23.6842 C   0  0  0  0  0  0  0  0  0  0  0  0
  -26.5432    2.2655   32.7836 C   0  0  0  0  0  0  0  0  0  0  0  0
  -25.3574    1.5118   32.5387 C   0  0  0  0  0  0  0  0  0  0  0  0
  -24.9433    1.3561   31.2506 C   0  0  0  0  0  0  0  0  0  0  0  0
  -25.8278    1.6193   30.1887 C   0  0  0  0  0  0  0  0  0  0  0  0
  2  7  1  0
  7  8  2  3
  7  9  1  0
  8 11  1  0
 11 12  1  0
  1  2  2  0
  2  3  1  0
  3  4  2  0
  4  5  1  0
  5  6  2  0
  6  1  1  0
 12 13  2  0
 13 18  1  0
 18 19  2  0
 19 20  1  0
 20 21  2  0
 21 12  1  0
  9 10  2  0
 10 14  1  0
 14 17  2  0
 17 16  1  0
 16 15  2  0
 15  9  1  0
M  END

$$$$
