No_1617-gen_results/8p0m/2024-11-26-14-13-15/
     RDKit          3D

 31 34  0  0  0  0  0  0  0  0999 V2000
  -28.0162   -0.8135   28.8779 C   0  0  0  0  0  0  0  0  0  0  0  0
  -27.0636   -0.1189   28.6079 C   0  0  0  0  0  0  0  0  0  0  0  0
  -25.7647   -0.3897   29.0360 C   0  0  0  0  0  0  0  0  0  0  0  0
  -25.5296   -1.5302   29.9014 C   0  0  0  0  0  0  0  0  0  0  0  0
  -26.6888   -2.2893   30.1810 C   0  0  0  0  0  0  0  0  0  0  0  0
  -27.8727   -1.9508   29.7373 C   0  0  0  0  0  0  0  0  0  0  0  0
  -28.9304   -2.7298   30.1154 O   0  0  0  0  0  0  0  0  0  0  0  0
  -24.5394    0.4211   28.7421 C   0  0  0  0  0  0  0  0  0  0  0  0
  -24.5259    1.2743   27.7265 C   0  0  0  0  0  0  0  0  0  0  0  0
  -23.3174    1.9856   27.4033 C   0  0  0  0  0  0  0  0  0  0  0  0
  -22.1311    1.7374   28.0503 C   0  0  0  0  0  0  0  0  0  0  0  0
  -23.2983    0.1369   29.3770 C   0  0  0  0  0  0  0  0  0  0  0  0
  -22.1005    0.8185   29.0410 C   0  0  0  0  0  0  0  0  0  0  0  0
  -30.0646   -2.2184   30.5721 C   0  0  0  0  0  0  0  0  0  0  0  0
  -30.4682   -2.9139   31.7147 C   0  0  0  0  0  0  0  0  0  0  0  0
  -31.4635   -2.6858   32.1421 O   0  0  0  0  0  0  0  0  0  0  0  0
  -29.5255   -3.5086   32.5202 N   0  0  0  0  0  0  0  0  0  0  0  0
  -29.6026   -4.4440   33.0621 C   0  0  0  0  0  0  0  0  0  0  0  0
  -30.7206   -1.5228   29.8850 O   0  0  0  0  0  0  0  0  0  0  0  0
  -23.5485    2.9363   26.4364 O   0  0  0  0  0  0  0  0  0  0  0  0
  -24.7260    3.6592   26.4716 C   0  0  0  0  0  0  0  0  0  0  0  0
  -25.0534    4.1565   27.7279 C   0  0  0  0  0  0  0  0  0  0  0  0
  -25.9798    4.9092   27.8386 C   0  0  0  0  0  0  0  0  0  0  0  0
  -26.3749    5.4720   29.1473 C   0  0  0  0  0  0  0  0  0  0  0  0
  -25.8922    4.8122   30.2930 C   0  0  0  0  0  0  0  0  0  0  0  0
  -25.0224    3.7350   30.1292 C   0  0  0  0  0  0  0  0  0  0  0  0
  -24.6183    3.3743   28.8730 C   0  0  0  0  0  0  0  0  0  0  0  0
  -25.5257    2.1373   27.8704 O   0  0  0  0  0  0  0  0  0  0  0  0
  -26.4339    2.6300   27.1327 C   0  0  0  0  0  0  0  0  0  0  0  0
  -23.3897    3.2646   29.1634 O   0  0  0  0  0  0  0  0  0  0  0  0
  -25.7846    2.8646   25.8917 C   0  0  0  0  0  0  0  0  0  0  0  0
  6  7  1  0
  3  8  1  0
  7 14  1  0
 14 15  1  0
 15 16  2  0
 15 17  1  0
 17 18  1  0
 14 19  2  0
 10 20  1  0
 20 21  1  0
 21 22  1  0
  9 28  1  0
 28 29  1  0
 27 30  1  0
 21 31  1  0
 29 31  1  0
  1  2  2  0
  2  3  1  0
  3  4  2  0
  4  5  1  0
  5  6  2  0
  6  1  1  0
 22 23  2  0
 23 24  1  0
 24 25  2  0
 25 26  1  0
 26 27  2  0
 27 22  1  0
  8  9  2  0
  9 10  1  0
 10 11  2  0
 11 13  1  0
 13 12  2  0
 12  8  1  0
M  END

$$$$
