No_1662-gen_results/8p0m/2024-11-26-14-13-15/
     RDKit          3D

 35 38  0  0  0  0  0  0  0  0999 V2000
  -28.0162   -0.8135   28.8779 C   0  0  0  0  0  0  0  0  0  0  0  0
  -28.4690   -0.7850   29.8287 C   0  0  0  0  0  0  0  0  0  0  0  0
  -26.5042   -0.7777   28.8766 C   0  0  0  0  0  0  0  0  0  0  0  0
  -25.6540   -0.6597   27.7191 C   0  0  0  0  0  0  0  0  0  0  0  0
  -27.9180   -0.9374   31.1824 C   0  0  0  0  0  0  0  0  0  0  0  0
  -26.5424   -0.9399   31.2606 C   0  0  0  0  0  0  0  0  0  0  0  0
  -25.7832   -0.8935   30.1201 C   0  0  0  0  0  0  0  0  0  0  0  0
  -25.9648    0.0122   26.7100 N   0  0  0  0  0  0  0  0  0  0  0  0
  -24.6234   -1.4581   27.6199 O   0  0  0  0  0  0  0  0  0  0  0  0
  -26.9627    1.0340   26.6565 C   0  0  0  0  0  0  0  0  0  0  0  0
  -27.9751    1.0013   26.3018 C   0  0  0  0  0  0  0  0  0  0  0  0
  -28.8806    2.1501   26.2644 C   0  0  0  0  0  0  0  0  0  0  0  0
  -28.3587    3.3770   26.7521 C   0  0  0  0  0  0  0  0  0  0  0  0
  -26.3296    2.3589   27.1516 C   0  0  0  0  0  0  0  0  0  0  0  0
  -27.0573    3.4875   27.1195 C   0  0  0  0  0  0  0  0  0  0  0  0
  -30.0725   -0.6600   29.9000 C   0  0  0  0  0  0  0  0  0  0  0  0
  -30.5809   -0.3421   30.9074 O   0  0  0  0  0  0  0  0  0  0  0  0
  -30.6866   -1.0799   28.8405 O   0  0  0  0  0  0  0  0  0  0  0  0
  -24.8815    2.4672   27.5771 C   0  0  0  0  0  0  0  0  0  0  0  0
  -24.5484    2.6211   28.9996 C   0  0  0  0  0  0  0  0  0  0  0  0
  -23.8258    2.4365   26.6383 C   0  0  0  0  0  0  0  0  0  0  0  0
  -22.5051    2.3243   27.0969 C   0  0  0  0  0  0  0  0  0  0  0  0
  -25.6704    2.6411   29.9877 C   0  0  0  0  0  0  0  0  0  0  0  0
  -22.2643    2.2482   28.5304 C   0  0  0  0  0  0  0  0  0  0  0  0
  -23.2653    2.3829   29.4460 C   0  0  0  0  0  0  0  0  0  0  0  0
  -25.3104    2.6395   31.1330 O   0  0  0  0  0  0  0  0  0  0  0  0
  -26.7990    3.1887   29.6862 O   0  0  0  0  0  0  0  0  0  0  0  0
  -27.8453    2.9485   30.6501 C   0  0  0  0  0  0  0  0  0  0  0  0
  -29.1876    3.2324   30.1869 C   0  0  0  0  0  0  0  0  0  0  0  0
  -29.8142    4.3565   30.7514 C   0  0  0  0  0  0  0  0  0  0  0  0
  -30.4386    4.0202   31.9432 C   0  0  0  0  0  0  0  0  0  0  0  0
  -29.7790    3.6895   32.9144 C   0  0  0  0  0  0  0  0  0  0  0  0
  -28.8351    3.2807   32.9939 C   0  0  0  0  0  0  0  0  0  0  0  0
  -27.6419    2.9499   32.0336 C   0  0  0  0  0  0  0  0  0  0  0  0
  -25.4833   -0.2451   25.3385 C   0  0  0  0  0  0  0  0  0  0  0  0
  3  4  1  0
  4  8  1  0
  4  9  2  0
  8 10  1  0
  2 16  1  0
 16 17  2  0
 16 18  1  0
 14 19  1  0
 20 23  1  0
 23 26  2  0
 23 27  1  0
 27 28  1  0
 28 29  1  0
 29 30  1  0
 30 31  1  0
 31 32  2  0
 32 33  1  0
 28 34  1  0
 33 34  2  0
  8 35  1  0
 10 11  2  0
 11 12  1  0
 12 13  2  0
 13 15  1  0
 15 14  2  0
 14 10  1  0
  1  2  2  0
  2  5  1  0
  5  6  2  0
  6  7  1  0
  7  3  2  0
  3  1  1  0
 19 20  2  0
 20 25  1  0
 25 24  2  0
 24 22  1  0
 22 21  2  0
 21 19  1  0
M  END

$$$$
