No_177-gen_results/8p0m/2024-11-26-14-13-15/
     RDKit          3D

 11 12  0  0  0  0  0  0  0  0999 V2000
  -28.0162   -0.8135   28.8779 C   0  0  0  0  0  0  0  0  0  0  0  0
  -27.0636   -0.1189   28.6079 C   0  0  0  0  0  0  0  0  0  0  0  0
  -26.9849    0.5972   27.5218 N   0  0  0  0  0  0  0  0  0  0  0  0
  -28.6850   -0.3903   30.0601 C   0  0  0  0  0  0  0  0  0  0  0  0
  -27.9630   -0.3835   31.2456 C   0  0  0  0  0  0  0  0  0  0  0  0
  -26.7121    0.4689   31.1176 C   0  0  0  0  0  0  0  0  0  0  0  0
  -26.1658    0.3138   29.7000 C   0  0  0  0  0  0  0  0  0  0  0  0
  -27.3641    1.3852   26.9132 C   0  0  0  0  0  0  0  0  0  0  0  0
  -26.9556    1.6561   25.6350 N   0  0  0  0  0  0  0  0  0  0  0  0
  -25.7805    0.0919   26.5857 C   0  0  0  0  0  0  0  0  0  0  0  0
  -25.8697    0.8268   25.4808 C   0  0  0  0  0  0  0  0  0  0  0  0
  1  2  1  0
  2  3  1  0
  1  4  1  0
  4  5  1  0
  5  6  1  0
  2  7  1  0
  6  7  1  0
  3  8  1  0
  8  9  2  0
  3 10  1  0
  9 11  1  0
 10 11  1  0
M  END

$$$$
