No_1666-gen_results/8p0m/2024-11-26-14-13-15/
     RDKit          3D

 17 19  0  0  0  0  0  0  0  0999 V2000
  -28.0162   -0.8135   28.8779 C   0  0  0  0  0  0  0  0  0  0  0  0
  -27.0636   -0.1190   28.6079 C   0  0  0  0  0  0  0  0  0  0  0  0
  -27.0010    0.6913   27.4910 C   0  0  0  0  0  0  0  0  0  0  0  0
  -25.8548    1.4825   27.0830 C   0  0  0  0  0  0  0  0  0  0  0  0
  -25.8227    2.3296   25.9941 C   0  0  0  0  0  0  0  0  0  0  0  0
  -27.9874   -1.6326   30.1036 C   0  0  0  0  0  0  0  0  0  0  0  0
  -29.0494   -2.5010   30.5090 C   0  0  0  0  0  0  0  0  0  0  0  0
  -26.7105   -1.6674   30.8273 C   0  0  0  0  0  0  0  0  0  0  0  0
  -25.6230   -1.0176   30.4149 C   0  0  0  0  0  0  0  0  0  0  0  0
  -25.7120   -0.1886   29.2782 C   0  0  0  0  0  0  0  0  0  0  0  0
  -24.5830    3.0819   25.7616 C   0  0  0  0  0  0  0  0  0  0  0  0
  -23.4308    2.7825   26.5555 C   0  0  0  0  0  0  0  0  0  0  0  0
  -23.4765    1.8517   27.5343 C   0  0  0  0  0  0  0  0  0  0  0  0
  -24.6359    1.2019   27.8108 C   0  0  0  0  0  0  0  0  0  0  0  0
  -24.5717    0.4700   28.8262 C   0  0  0  0  0  0  0  0  0  0  0  0
  -28.9235   -3.7313   30.5901 O   0  0  0  0  0  0  0  0  0  0  0  0
  -30.1974   -2.0149   30.6956 O   0  0  0  0  0  0  0  0  0  0  0  0
  6  7  1  0
  7 16  2  0
  7 17  1  0
  2  3  1  0
  3  4  2  0
 14 15  2  0
 15 10  1  0
  4  5  1  0
  5 11  2  0
 11 12  1  0
 12 13  2  0
 13 14  1  0
 14  4  1  0
  1  2  2  0
  2 10  1  0
 10  9  2  0
  9  8  1  0
  8  6  2  0
  6  1  1  0
M  END

$$$$
