No_1894-gen_results/8p0m/2024-11-26-14-13-15/
     RDKit          3D

 16 17  0  0  0  0  0  0  0  0999 V2000
  -28.0162   -0.8135   28.8779 C   0  0  0  0  0  0  0  0  0  0  0  0
  -28.4690   -0.7850   29.8287 C   0  0  0  0  0  0  0  0  0  0  0  0
  -26.5042   -0.7777   28.8766 C   0  0  0  0  0  0  0  0  0  0  0  0
  -25.8103   -0.8531   30.1028 C   0  0  0  0  0  0  0  0  0  0  0  0
  -30.0136   -0.8410   29.8508 C   0  0  0  0  0  0  0  0  0  0  0  0
  -26.5670   -0.8850   31.2517 C   0  0  0  0  0  0  0  0  0  0  0  0
  -27.9411   -0.9069   31.1850 C   0  0  0  0  0  0  0  0  0  0  0  0
  -30.6493   -0.0573   30.6757 O   0  0  0  0  0  0  0  0  0  0  0  0
  -30.6033   -1.6021   29.0402 O   0  0  0  0  0  0  0  0  0  0  0  0
  -25.6386   -0.7164   27.6713 C   0  0  0  0  0  0  0  0  0  0  0  0
  -25.2994    0.6613   27.3031 C   0  0  0  0  0  0  0  0  0  0  0  0
  -25.5131    1.1000   26.0400 C   0  0  0  0  0  0  0  0  0  0  0  0
  -25.1185    2.4119   25.6408 C   0  0  0  0  0  0  0  0  0  0  0  0
  -24.4362    3.2337   26.6390 C   0  0  0  0  0  0  0  0  0  0  0  0
  -24.5998    1.5808   28.0948 C   0  0  0  0  0  0  0  0  0  0  0  0
  -24.1771    2.7828   27.8059 C   0  0  0  0  0  0  0  0  0  0  0  0
  2  5  1  0
  5  8  2  0
  5  9  1  0
  3 10  1  0
 10 11  1  0
 11 12  2  0
 12 13  1  0
 13 14  2  0
 14 16  1  0
 16 15  2  0
 15 11  1  0
  1  2  2  0
  2  7  1  0
  7  6  2  0
  6  4  1  0
  4  3  2  0
  3  1  1  0
M  END

$$$$
