No_1513-gen_results/8p0m/2024-11-26-14-13-15/
     RDKit          3D

 18 18  0  0  0  0  0  0  0  0999 V2000
  -28.0162   -0.8135   28.8779 C   0  0  0  0  0  0  0  0  0  0  0  0
  -28.4690   -0.7850   29.8287 C   0  0  0  0  0  0  0  0  0  0  0  0
  -27.0871    0.2903   28.6377 C   0  0  0  0  0  0  0  0  0  0  0  0
  -26.2516    0.4114   27.4223 C   0  0  0  0  0  0  0  0  0  0  0  0
  -28.3913    0.1041   30.9805 C   0  0  0  0  0  0  0  0  0  0  0  0
  -27.5332    1.1666   30.7866 C   0  0  0  0  0  0  0  0  0  0  0  0
  -26.8281    1.2557   29.6454 C   0  0  0  0  0  0  0  0  0  0  0  0
  -25.9361    1.5378   27.1650 O   0  0  0  0  0  0  0  0  0  0  0  0
  -26.0001   -0.5965   26.7376 O   0  0  0  0  0  0  0  0  0  0  0  0
  -29.4637   -2.0043   30.2582 C   0  0  0  0  0  0  0  0  0  0  0  0
  -30.1295   -1.9588   31.2474 O   0  0  0  0  0  0  0  0  0  0  0  0
  -29.0721   -3.1717   29.9268 O   0  0  0  0  0  0  0  0  0  0  0  0
  -27.3580    2.2042   31.8447 C   0  0  0  0  0  0  0  0  0  0  0  0
  -26.5536    2.8506   32.0009 N   0  0  0  0  0  0  0  0  0  0  0  0
  -26.3302    3.8570   32.9795 C   0  0  0  0  0  0  0  0  0  0  0  0
  -27.2501    3.9097   33.9659 C   0  0  0  0  0  0  0  0  0  0  0  0
  -28.5682    1.9949   32.7148 F   0  0  0  0  0  0  0  0  0  0  0  0
  -27.0473    4.9137   34.9347 C   0  0  0  0  0  0  0  0  0  0  0  0
  3  4  1  0
  4  8  2  0
  4  9  1  0
  2 10  1  0
 10 11  1  0
 10 12  2  0
  6 13  1  0
 13 14  1  0
 14 15  2  3
 15 16  1  0
 13 17  1  0
 16 18  2  0
  1  2  2  0
  2  5  1  0
  5  6  2  0
  6  7  1  0
  7  3  2  0
  3  1  1  0
M  END

$$$$
