No_1656-gen_results/8p0m/2024-11-26-14-13-15/
     RDKit          3D

 17 18  0  0  0  0  0  0  0  0999 V2000
  -28.1229   -1.3353   28.4874 O   0  0  0  0  0  0  0  0  0  0  0  0
  -28.5208   -0.4363   29.0779 C   0  0  0  0  0  0  0  0  0  0  0  0
  -28.5894    0.5916   28.9464 C   0  0  0  0  0  0  0  0  0  0  0  0
  -29.3752   -0.9434   30.2659 N   0  0  0  0  0  0  0  0  0  0  0  0
  -27.7039    1.2399   28.1408 N   0  0  0  0  0  0  0  0  0  0  0  0
  -29.2956    1.7275   29.7766 C   0  0  0  0  0  0  0  0  0  0  0  0
  -30.1118   -0.1280   31.0732 C   0  0  0  0  0  0  0  0  0  0  0  0
  -30.0044    1.2133   30.8777 C   0  0  0  0  0  0  0  0  0  0  0  0
  -27.8988    1.3108   26.8147 C   0  0  0  0  0  0  0  0  0  0  0  0
  -26.7865    1.6126   25.9476 C   0  0  0  0  0  0  0  0  0  0  0  0
  -25.6387    1.5456   26.3549 C   0  0  0  0  0  0  0  0  0  0  0  0
  -25.1208    1.5401   27.2443 C   0  0  0  0  0  0  0  0  0  0  0  0
  -26.2085    1.2691   28.5383 C   0  0  0  0  0  0  0  0  0  0  0  0
  -25.7840    1.1028   29.6756 O   0  0  0  0  0  0  0  0  0  0  0  0
  -29.2228    1.2205   26.3533 C   0  0  0  0  0  0  0  0  0  0  0  0
  -30.0658    2.3006   26.6055 C   0  0  0  0  0  0  0  0  0  0  0  0
  -31.4192    2.2736   26.2015 C   0  0  0  0  0  0  0  0  0  0  0  0
  1  2  2  0
  2  3  1  0
  2  4  1  0
  3  5  1  0
  3  6  1  0
  4  7  1  0
  6  8  1  0
  5  9  1  0
 10 11  1  0
  5 13  1  0
 12 13  1  0
 13 14  2  0
  9 15  1  0
 15 16  2  3
 16 17  1  0
  9 10  1  0
 11 12  1  0
  8  7  1  0
M  END

$$$$
