No_1958-gen_results/8p0m/2024-11-26-14-13-15/
     RDKit          3D

 21 22  0  0  0  0  0  0  0  0999 V2000
  -28.0162   -0.8135   28.8779 C   0  0  0  0  0  0  0  0  0  0  0  0
  -28.4690   -0.7850   29.8287 C   0  0  0  0  0  0  0  0  0  0  0  0
  -26.5455   -0.8762   28.8500 C   0  0  0  0  0  0  0  0  0  0  0  0
  -25.6825   -0.7773   27.6829 C   0  0  0  0  0  0  0  0  0  0  0  0
  -27.9181   -1.0034   31.1877 C   0  0  0  0  0  0  0  0  0  0  0  0
  -26.5308   -1.0794   31.2463 C   0  0  0  0  0  0  0  0  0  0  0  0
  -25.7798   -1.0462   30.0905 C   0  0  0  0  0  0  0  0  0  0  0  0
  -25.8977    0.2387   26.7449 C   0  0  0  0  0  0  0  0  0  0  0  0
  -24.9256    0.7629   26.0322 C   0  0  0  0  0  0  0  0  0  0  0  0
  -24.2472    1.7995   26.1605 C   0  0  0  0  0  0  0  0  0  0  0  0
  -23.4716    2.1101   27.2386 C   0  0  0  0  0  0  0  0  0  0  0  0
  -23.7765    1.5700   28.3802 C   0  0  0  0  0  0  0  0  0  0  0  0
  -22.7518    1.5971   29.4889 C   0  0  0  0  0  0  0  0  0  0  0  0
  -27.1906    0.8381   26.6399 C   0  0  0  0  0  0  0  0  0  0  0  0
  -28.0904    0.4652   25.6312 C   0  0  0  0  0  0  0  0  0  0  0  0
  -29.3590    0.9922   25.5159 C   0  0  0  0  0  0  0  0  0  0  0  0
  -29.8356    1.8623   26.4666 C   0  0  0  0  0  0  0  0  0  0  0  0
  -29.0078    2.2787   27.5087 C   0  0  0  0  0  0  0  0  0  0  0  0
  -27.7243    1.7814   27.6446 C   0  0  0  0  0  0  0  0  0  0  0  0
  -22.4270    0.2199   29.7456 C   0  0  0  0  0  0  0  0  0  0  0  0
  -22.2053   -0.6594   28.7426 C   0  0  0  0  0  0  0  0  0  0  0  0
  3  4  1  0
  4  8  1  0
  8  9  2  3
  9 10  1  0
 10 11  2  3
 11 12  1  0
 12 13  2  3
  8 14  1  0
 13 20  1  0
 20 21  1  0
 14 15  2  0
 15 16  1  0
 16 17  2  0
 17 18  1  0
 18 19  2  0
 19 14  1  0
  1  2  2  0
  2  5  1  0
  5  6  2  0
  6  7  1  0
  7  3  2  0
  3  1  1  0
M  END

$$$$
