No_1821-gen_results/8p0m/2024-11-26-14-13-15/
     RDKit          3D

  9  8  0  0  0  0  0  0  0  0999 V2000
  -27.9505   -0.5786   29.0402 P   0  0  0  0  0  0  0  0  0  0  0  0
  -27.2401    0.0613   28.4283 O   0  0  0  0  0  0  0  0  0  0  0  0
  -29.3621   -0.5774   28.6194 O   0  0  0  0  0  0  0  0  0  0  0  0
  -27.4933   -2.0888   29.1563 O   0  0  0  0  0  0  0  0  0  0  0  0
  -27.9537   -0.1280   30.6351 O   0  0  0  0  0  0  0  0  0  0  0  0
  -25.9156    0.1786   28.6707 C   0  0  0  0  0  0  0  0  0  0  0  0
  -25.2904    1.5075   28.8000 C   0  0  0  0  0  0  0  0  0  0  0  0
  -24.6275    1.9418   27.7682 C   0  0  0  0  0  0  0  0  0  0  0  0
  -25.0914    2.7629   26.9130 C   0  0  0  0  0  0  0  0  0  0  0  0
  1  2  1  0
  1  3  2  0
  1  4  1  0
  1  5  1  0
  2  6  1  0
  6  7  1  0
  7  8  1  0
  8  9  2  0
M  END

$$$$
