No_1661-gen_results/8p0m/2024-11-26-14-13-15/
     RDKit          3D

 11 11  0  0  0  0  0  0  0  0999 V2000
  -28.0162   -0.8135   28.8779 C   0  0  0  0  0  0  0  0  0  0  0  0
  -28.4690   -0.7850   29.8287 C   0  0  0  0  0  0  0  0  0  0  0  0
  -27.1356    0.2359   28.5352 C   0  0  0  0  0  0  0  0  0  0  0  0
  -26.8745    1.2825   29.3982 C   0  0  0  0  0  0  0  0  0  0  0  0
  -28.3613    0.1987   30.9244 C   0  0  0  0  0  0  0  0  0  0  0  0
  -27.5277    1.2234   30.6356 C   0  0  0  0  0  0  0  0  0  0  0  0
  -26.2178    0.2819   26.8747 Br  0  0  0  0  0  0  0  0  0  0  0  0
  -29.4261   -1.9762   30.3261 C   0  0  0  0  0  0  0  0  0  0  0  0
  -29.1369   -3.1902   30.3907 O   0  0  0  0  0  0  0  0  0  0  0  0
  -30.6534   -1.7143   30.7364 O   0  0  0  0  0  0  0  0  0  0  0  0
  -25.9131    2.6901   29.0564 Cl  0  0  0  0  0  0  0  0  0  0  0  0
  3  7  1  0
  2  8  1  0
  8  9  1  0
  8 10  2  0
  4 11  1  0
  1  2  2  0
  2  5  1  0
  5  6  2  0
  6  4  1  0
  4  3  2  0
  3  1  1  0
M  END

$$$$
