No_1622-gen_results/8p0m/2024-11-26-14-13-15/
     RDKit          3D

 16 17  0  0  0  0  0  0  0  0999 V2000
  -28.0162   -0.8135   28.8779 C   0  0  0  0  0  0  0  0  0  0  0  0
  -27.0636   -0.1189   28.6079 C   0  0  0  0  0  0  0  0  0  0  0  0
  -25.7647   -0.3897   29.0360 C   0  0  0  0  0  0  0  0  0  0  0  0
  -25.4887   -1.1536   29.7171 C   0  0  0  0  0  0  0  0  0  0  0  0
  -26.4902   -2.1223   30.2112 C   0  0  0  0  0  0  0  0  0  0  0  0
  -27.7302   -1.9094   29.8268 C   0  0  0  0  0  0  0  0  0  0  0  0
  -24.3764    0.8850   28.4025 Br  0  0  0  0  0  0  0  0  0  0  0  0
  -28.7743   -2.8558   30.3160 C   0  0  0  0  0  0  0  0  0  0  0  0
  -28.6027   -4.0880   30.3939 O   0  0  0  0  0  0  0  0  0  0  0  0
  -29.7605   -2.3987   30.9779 O   0  0  0  0  0  0  0  0  0  0  0  0
  -27.0611    1.0827   27.5357 C   0  0  0  0  0  0  0  0  0  0  0  0
  -28.1552    0.9868   26.7976 C   0  0  0  0  0  0  0  0  0  0  0  0
  -28.4162    1.5072   25.9464 C   0  0  0  0  0  0  0  0  0  0  0  0
  -27.4350    2.5854   25.3972 C   0  0  0  0  0  0  0  0  0  0  0  0
  -26.2812    2.7401   26.1188 C   0  0  0  0  0  0  0  0  0  0  0  0
  -26.1048    1.9313   27.1991 C   0  0  0  0  0  0  0  0  0  0  0  0
  3  7  1  0
  6  8  1  0
  8  9  2  0
  8 10  1  0
  2 11  1  0
 11 12  2  0
 12 13  1  0
 13 14  2  0
 14 15  1  0
 15 16  2  0
 16 11  1  0
  1  2  2  0
  2  3  1  0
  3  4  2  0
  4  5  1  0
  5  6  2  0
  6  1  1  0
M  END

$$$$
