No_1158-gen_results/8p0m/2024-11-26-14-13-15/
     RDKit          3D

 29 31  0  0  0  0  0  0  0  0999 V2000
  -28.0162   -0.8135   28.8779 C   0  0  0  0  0  0  0  0  0  0  0  0
  -28.4690   -0.7850   29.8287 C   0  0  0  0  0  0  0  0  0  0  0  0
  -26.5042   -0.7777   28.8766 C   0  0  0  0  0  0  0  0  0  0  0  0
  -25.8103   -0.8531   30.1028 C   0  0  0  0  0  0  0  0  0  0  0  0
  -27.9906   -0.8916   31.2257 C   0  0  0  0  0  0  0  0  0  0  0  0
  -26.6042   -0.8676   31.2652 C   0  0  0  0  0  0  0  0  0  0  0  0
  -24.3894   -0.8049   30.1638 C   0  0  0  0  0  0  0  0  0  0  0  0
  -23.7660   -0.9500   31.0679 C   0  0  0  0  0  0  0  0  0  0  0  0
  -24.4866   -1.0287   32.3849 C   0  0  0  0  0  0  0  0  0  0  0  0
  -25.8375   -0.9259   32.4678 C   0  0  0  0  0  0  0  0  0  0  0  0
  -25.7169   -0.7014   27.6188 C   0  0  0  0  0  0  0  0  0  0  0  0
  -26.1210    0.2549   26.6497 C   0  0  0  0  0  0  0  0  0  0  0  0
  -25.8608    1.5431   26.7678 C   0  0  0  0  0  0  0  0  0  0  0  0
  -24.5632    1.9032   26.9983 C   0  0  0  0  0  0  0  0  0  0  0  0
  -23.8422    1.9164   28.2002 C   0  0  0  0  0  0  0  0  0  0  0  0
  -24.6348    2.2936   29.5571 Cl  0  0  0  0  0  0  0  0  0  0  0  0
  -22.5424    1.8223   28.2960 O   0  0  0  0  0  0  0  0  0  0  0  0
  -23.6479    2.0447   25.7903 C   0  0  0  0  0  0  0  0  0  0  0  0
  -26.7637   -0.2723   25.4958 C   0  0  0  0  0  0  0  0  0  0  0  0
  -27.2370    0.6382   24.5339 C   0  0  0  0  0  0  0  0  0  0  0  0
  -30.1070   -0.7848   29.8257 C   0  0  0  0  0  0  0  0  0  0  0  0
  -30.7247   -1.5545   30.2010 O   0  0  0  0  0  0  0  0  0  0  0  0
  -30.5859    0.2837   29.1977 O   0  0  0  0  0  0  0  0  0  0  0  0
  -28.5826    1.0637   24.6489 C   0  0  0  0  0  0  0  0  0  0  0  0
  -29.4223    0.4173   25.2544 C   0  0  0  0  0  0  0  0  0  0  0  0
  -30.7885    0.8931   25.4603 C   0  0  0  0  0  0  0  0  0  0  0  0
  -31.1389    2.0623   24.8815 C   0  0  0  0  0  0  0  0  0  0  0  0
  -30.2640    2.7963   24.0477 C   0  0  0  0  0  0  0  0  0  0  0  0
  -28.9304    2.3426   23.9810 C   0  0  0  0  0  0  0  0  0  0  0  0
  3 11  1  0
 11 12  1  0
 12 13  1  0
 13 14  1  0
 14 15  1  0
 15 16  1  0
 15 17  2  0
 14 18  1  0
 12 19  1  0
 19 20  1  0
  2 21  1  0
 21 22  2  0
 21 23  1  0
 20 24  1  0
  6 10  1  0
 10  9  2  0
  9  8  1  0
  8  7  2  0
  7  4  1  0
 24 25  2  0
 25 26  1  0
 26 27  2  0
 27 28  1  0
 28 29  2  0
 29 24  1  0
  1  2  2  0
  2  5  1  0
  5  6  2  0
  6  4  1  0
  4  3  2  0
  3  1  1  0
M  END

$$$$
