No_1203-gen_results/8p0m/2024-11-26-14-13-15/
     RDKit          3D

 17 18  0  0  0  0  0  0  0  0999 V2000
  -28.0162   -0.8135   28.8779 C   0  0  0  0  0  0  0  0  0  0  0  0
  -28.4690   -0.7850   29.8287 C   0  0  0  0  0  0  0  0  0  0  0  0
  -27.0871    0.2903   28.6377 C   0  0  0  0  0  0  0  0  0  0  0  0
  -26.2516    0.4114   27.4223 C   0  0  0  0  0  0  0  0  0  0  0  0
  -28.3913    0.1041   30.9805 C   0  0  0  0  0  0  0  0  0  0  0  0
  -27.5332    1.1666   30.7866 C   0  0  0  0  0  0  0  0  0  0  0  0
  -26.8281    1.2557   29.6454 C   0  0  0  0  0  0  0  0  0  0  0  0
  -24.9668    0.4106   27.5252 C   0  0  0  0  0  0  0  0  0  0  0  0
  -24.1552   -0.0213   28.5813 C   0  0  0  0  0  0  0  0  0  0  0  0
  -22.7568    0.1663   28.5743 C   0  0  0  0  0  0  0  0  0  0  0  0
  -22.1350    1.0740   28.1234 C   0  0  0  0  0  0  0  0  0  0  0  0
  -22.8515    1.8254   26.9995 C   0  0  0  0  0  0  0  0  0  0  0  0
  -24.2575    1.5133   26.7416 C   0  0  0  0  0  0  0  0  0  0  0  0
  -26.8892    0.2653   26.1599 C   0  0  0  0  0  0  0  0  0  0  0  0
  -27.3666    1.3018   25.6125 N   0  0  0  0  0  0  0  0  0  0  0  0
  -27.5900    2.3991   26.1685 C   0  0  0  0  0  0  0  0  0  0  0  0
  -28.9115    2.7947   26.6992 C   0  0  0  0  0  0  0  0  0  0  0  0
  3  4  1  0
  4  8  1  0
  4 14  1  0
 14 15  2  3
 15 16  1  0
 16 17  1  0
  8  9  2  0
  9 10  1  0
 10 11  2  0
 11 12  1  0
 12 13  2  0
 13  8  1  0
  1  2  2  0
  2  5  1  0
  5  6  2  0
  6  7  1  0
  7  3  2  0
  3  1  1  0
M  END

$$$$
