No_153-gen_results/8p0m/2024-11-26-14-13-15/
     RDKit          3D

 13 13  0  0  0  0  0  0  0  0999 V2000
  -28.1229   -1.3353   28.4874 O   0  0  0  0  0  0  0  0  0  0  0  0
  -27.0637   -0.8242   28.8687 C   0  0  0  0  0  0  0  0  0  0  0  0
  -27.0246    0.1877   29.7358 C   0  0  0  0  0  0  0  0  0  0  0  0
  -26.0012    0.7006   29.9803 O   0  0  0  0  0  0  0  0  0  0  0  0
  -25.0854    0.8774   29.0776 C   0  0  0  0  0  0  0  0  0  0  0  0
  -23.7741    1.1215   29.5845 C   0  0  0  0  0  0  0  0  0  0  0  0
  -22.6726    1.2665   28.6466 C   0  0  0  0  0  0  0  0  0  0  0  0
  -25.8806   -1.5011   28.6642 N   0  0  0  0  0  0  0  0  0  0  0  0
  -23.0478    1.6110   27.3059 C   0  0  0  0  0  0  0  0  0  0  0  0
  -24.3171    1.4759   26.8591 C   0  0  0  0  0  0  0  0  0  0  0  0
  -25.3295    1.1297   27.7567 C   0  0  0  0  0  0  0  0  0  0  0  0
  -25.1896   -2.4475   29.4541 C   0  0  0  0  0  0  0  0  0  0  0  0
  -24.0734   -3.1106   29.0076 C   0  0  0  0  0  0  0  0  0  0  0  0
  1  2  1  0
  2  3  1  0
  3  4  1  0
  4  5  1  0
  2  8  1  0
  8 12  1  0
 12 13  2  0
  5  6  2  0
  6  7  1  0
  7  9  2  0
  9 10  1  0
 10 11  2  0
 11  5  1  0
M  END

$$$$
