No_1706-gen_results/8p0m/2024-11-26-14-13-15/
     RDKit          3D

 12 13  0  0  0  0  0  0  0  0999 V2000
  -28.1229   -1.3353   28.4874 O   0  0  0  0  0  0  0  0  0  0  0  0
  -27.4806   -0.4044   28.7094 C   0  0  0  0  0  0  0  0  0  0  0  0
  -27.2412    0.3910   29.5098 N   0  0  0  0  0  0  0  0  0  0  0  0
  -26.4066   -0.1069   27.4496 C   0  0  0  0  0  0  0  0  0  0  0  0
  -25.4358    0.8473   27.6341 C   0  0  0  0  0  0  0  0  0  0  0  0
  -25.4291    1.6632   28.7353 C   0  0  0  0  0  0  0  0  0  0  0  0
  -26.3098    1.3583   29.7618 C   0  0  0  0  0  0  0  0  0  0  0  0
  -24.5011    1.1239   26.5229 C   0  0  0  0  0  0  0  0  0  0  0  0
  -23.7305    1.7684   26.4419 C   0  0  0  0  0  0  0  0  0  0  0  0
  -23.4465    2.6594   27.7114 C   0  0  0  0  0  0  0  0  0  0  0  0
  -24.3099    2.5678   28.7369 C   0  0  0  0  0  0  0  0  0  0  0  0
  -26.1743    1.8552   30.9300 O   0  0  0  0  0  0  0  0  0  0  0  0
  1  2  2  0
  2  3  1  0
  2  4  1  0
  4  5  1  0
  3  7  1  0
  6  7  1  0
  7 12  2  0
  5  8  2  0
  8  9  1  0
  9 10  2  0
 10 11  1  0
 11  6  2  0
  6  5  1  0
M  END

$$$$
