No_1244-gen_results/8p0m/2024-11-26-14-13-15/
     RDKit          3D

 28 32  0  0  0  0  0  0  0  0999 V2000
  -28.0162   -0.8135   28.8779 C   0  0  0  0  0  0  0  0  0  0  0  0
  -27.0636   -0.1190   28.6079 C   0  0  0  0  0  0  0  0  0  0  0  0
  -27.0010    0.6913   27.4910 C   0  0  0  0  0  0  0  0  0  0  0  0
  -25.8649    1.0375   26.9421 N   0  0  0  0  0  0  0  0  0  0  0  0
  -27.9596   -1.6381   30.0842 C   0  0  0  0  0  0  0  0  0  0  0  0
  -26.7489   -1.8619   30.7288 C   0  0  0  0  0  0  0  0  0  0  0  0
  -25.6103   -1.2303   30.2737 C   0  0  0  0  0  0  0  0  0  0  0  0
  -25.7186   -0.3534   29.1337 C   0  0  0  0  0  0  0  0  0  0  0  0
  -24.6258    0.9187   27.5548 C   0  0  0  0  0  0  0  0  0  0  0  0
  -24.5324    0.1192   28.6322 C   0  0  0  0  0  0  0  0  0  0  0  0
  -28.0830    0.9322   26.7109 N   0  0  0  0  0  0  0  0  0  0  0  0
  -23.1962   -0.0169   29.2888 C   0  0  0  0  0  0  0  0  0  0  0  0
  -22.0290    0.3182   28.6015 C   0  0  0  0  0  0  0  0  0  0  0  0
  -22.1695    1.2525   27.5087 C   0  0  0  0  0  0  0  0  0  0  0  0
  -23.4008    1.5172   26.9437 C   0  0  0  0  0  0  0  0  0  0  0  0
  -23.4792    2.3434   25.7555 C   0  0  0  0  0  0  0  0  0  0  0  0
  -28.5194    1.8015   26.2454 C   0  0  0  0  0  0  0  0  0  0  0  0
  -29.1859    2.4086   25.6930 C   0  0  0  0  0  0  0  0  0  0  0  0
  -30.2257    2.0930   24.8756 C   0  0  0  0  0  0  0  0  0  0  0  0
  -31.1185    2.9822   24.1448 C   0  0  0  0  0  0  0  0  0  0  0  0
  -31.9948    2.6051   23.2333 C   0  0  0  0  0  0  0  0  0  0  0  0
  -32.1268    1.1995   23.0147 C   0  0  0  0  0  0  0  0  0  0  0  0
  -31.3424    0.3152   23.6755 C   0  0  0  0  0  0  0  0  0  0  0  0
  -31.4217   -1.0856   23.5353 C   0  0  0  0  0  0  0  0  0  0  0  0
  -30.3544    0.8179   24.6120 C   0  0  0  0  0  0  0  0  0  0  0  0
  -30.5069   -1.9074   24.2590 C   0  0  0  0  0  0  0  0  0  0  0  0
  -29.6446   -1.2326   24.9333 C   0  0  0  0  0  0  0  0  0  0  0  0
  -29.5090   -0.1382   25.1978 C   0  0  0  0  0  0  0  0  0  0  0  0
  3 11  1  0
 15 16  1  0
 11 17  2  3
 17 18  1  0
 18 19  1  0
  2  3  1  0
  3  4  2  0
  4  9  1  0
 10  8  1  0
  1  2  2  0
  2  8  1  0
  8  7  2  0
  7  6  1  0
  6  5  2  0
  5  1  1  0
 19 20  2  0
 20 21  1  0
 21 22  2  0
 22 23  1  0
 25 19  1  0
  9 10  2  0
 10 12  1  0
 12 13  2  0
 13 14  1  0
 14 15  2  0
 15  9  1  0
 23 24  2  0
 24 26  1  0
 26 27  2  0
 27 28  1  0
 28 25  2  0
 25 23  1  0
M  END

$$$$
