No_134-gen_results/8p0m/2024-11-26-14-13-15/
     RDKit          3D

 17 18  0  0  0  0  0  0  0  0999 V2000
  -28.0162   -0.8135   28.8779 C   0  0  0  0  0  0  0  0  0  0  0  0
  -28.4690   -0.7850   29.8287 C   0  0  0  0  0  0  0  0  0  0  0  0
  -28.1816    0.4277   28.1134 C   0  0  0  0  0  0  0  0  0  0  0  0
  -28.9841    1.4155   28.5154 C   0  0  0  0  0  0  0  0  0  0  0  0
  -29.3802    0.1384   30.4612 C   0  0  0  0  0  0  0  0  0  0  0  0
  -29.5415    1.2736   29.7242 C   0  0  0  0  0  0  0  0  0  0  0  0
  -27.4452    0.4872   26.7726 C   0  0  0  0  0  0  0  0  0  0  0  0
  -26.0008    0.3969   26.7906 C   0  0  0  0  0  0  0  0  0  0  0  0
  -25.2463    1.0863   25.9144 C   0  0  0  0  0  0  0  0  0  0  0  0
  -23.8497    1.1473   26.0086 C   0  0  0  0  0  0  0  0  0  0  0  0
  -23.2046    0.7648   27.2227 C   0  0  0  0  0  0  0  0  0  0  0  0
  -24.0377    0.1404   28.2128 C   0  0  0  0  0  0  0  0  0  0  0  0
  -25.3608    0.0271   28.0419 C   0  0  0  0  0  0  0  0  0  0  0  0
  -21.9252    1.0382   27.4798 O   0  0  0  0  0  0  0  0  0  0  0  0
  -21.5414    1.4450   28.8064 C   0  0  0  0  0  0  0  0  0  0  0  0
  -28.1788    0.4341   25.5964 C   0  0  0  0  0  0  0  0  0  0  0  0
  -28.4828    1.4715   25.0900 N   0  0  0  0  0  0  0  0  0  0  0  0
  3  7  1  0
  7  8  1  0
 11 14  1  0
 14 15  1  0
  7 16  1  0
 16 17  2  0
  8  9  2  0
  9 10  1  0
 10 11  2  0
 11 12  1  0
 12 13  2  0
 13  8  1  0
  1  2  2  0
  2  5  1  0
  5  6  2  0
  6  4  1  0
  4  3  2  0
  3  1  1  0
M  END

$$$$
