No_1565-gen_results/8p0m/2024-11-26-14-13-15/
     RDKit          3D

 17 18  0  0  0  0  0  0  0  0999 V2000
  -28.0162   -0.8135   28.8779 C   0  0  0  0  0  0  0  0  0  0  0  0
  -27.0636   -0.1189   28.6079 C   0  0  0  0  0  0  0  0  0  0  0  0
  -26.8756    1.1325   28.9134 C   0  0  0  0  0  0  0  0  0  0  0  0
  -25.6883    1.9515   28.5672 C   0  0  0  0  0  0  0  0  0  0  0  0
  -24.6394    1.2834   27.8753 C   0  0  0  0  0  0  0  0  0  0  0  0
  -24.8181   -0.0802   27.6166 C   0  0  0  0  0  0  0  0  0  0  0  0
  -25.9311   -0.7717   27.9696 C   0  0  0  0  0  0  0  0  0  0  0  0
  -28.0898   -1.4945   30.2341 C   0  0  0  0  0  0  0  0  0  0  0  0
  -29.2073   -2.2991   30.6512 C   0  0  0  0  0  0  0  0  0  0  0  0
  -30.3614   -2.0537   30.0100 C   0  0  0  0  0  0  0  0  0  0  0  0
  -30.4489   -1.1712   28.9719 C   0  0  0  0  0  0  0  0  0  0  0  0
  -29.3379   -0.5404   28.4879 C   0  0  0  0  0  0  0  0  0  0  0  0
  -23.4153    1.9561   27.5135 C   0  0  0  0  0  0  0  0  0  0  0  0
  -22.3793    2.2899   27.7068 N   0  0  0  0  0  0  0  0  0  0  0  0
  -29.4402    0.2698   27.3767 N   0  0  0  0  0  0  0  0  0  0  0  0
  -30.3400    0.9776   26.8479 C   0  0  0  0  0  0  0  0  0  0  0  0
  -30.1499    1.6332   25.6697 C   0  0  0  0  0  0  0  0  0  0  0  0
  5 13  1  0
 13 14  3  0
 12 15  1  0
 15 16  1  0
 16 17  2  0
  1  2  1  0
  2  3  2  0
  3  4  1  0
  4  5  2  0
  5  6  1  0
  6  7  2  0
  7  2  1  0
  1  8  2  0
  8  9  1  0
  9 10  2  0
 10 11  1  0
 11 12  2  0
 12  1  1  0
M  END

$$$$
