No_1750-gen_results/8p0m/2024-11-26-14-13-15/
     RDKit          3D

 19 20  0  0  0  0  0  0  0  0999 V2000
  -28.1229   -1.3353   28.4874 O   0  0  0  0  0  0  0  0  0  0  0  0
  -27.4806   -0.4044   28.7094 C   0  0  0  0  0  0  0  0  0  0  0  0
  -26.3804   -0.0867   27.9394 C   0  0  0  0  0  0  0  0  0  0  0  0
  -27.4232    0.1749   30.0549 N   0  0  0  0  0  0  0  0  0  0  0  0
  -26.1558    0.1159   26.9677 C   0  0  0  0  0  0  0  0  0  0  0  0
  -24.9232    0.5762   26.2595 C   0  0  0  0  0  0  0  0  0  0  0  0
  -23.8316    0.7803   27.0683 C   0  0  0  0  0  0  0  0  0  0  0  0
  -23.9673    0.5795   28.4350 C   0  0  0  0  0  0  0  0  0  0  0  0
  -25.0916    0.2405   28.9716 C   0  0  0  0  0  0  0  0  0  0  0  0
  -28.5963   -0.2063   30.9192 C   0  0  0  0  0  0  0  0  0  0  0  0
  -22.7919    0.9435   29.3079 C   0  0  0  0  0  0  0  0  0  0  0  0
  -23.0340    1.0171   30.5346 O   0  0  0  0  0  0  0  0  0  0  0  0
  -21.6157    0.7129   28.8730 O   0  0  0  0  0  0  0  0  0  0  0  0
  -29.3628    0.8446   31.1629 C   0  0  0  0  0  0  0  0  0  0  0  0
  -30.4170    0.6742   31.7789 C   0  0  0  0  0  0  0  0  0  0  0  0
  -31.3832    1.7412   32.0470 C   0  0  0  0  0  0  0  0  0  0  0  0
  -31.0237    3.0281   31.5789 C   0  0  0  0  0  0  0  0  0  0  0  0
  -29.8651    3.2115   30.8810 C   0  0  0  0  0  0  0  0  0  0  0  0
  -29.0259    2.1621   30.6596 C   0  0  0  0  0  0  0  0  0  0  0  0
  1  2  2  0
  2  3  1  0
  2  4  1  0
  4 10  1  0
  8 11  1  0
 11 12  2  0
 11 13  1  0
 10 14  1  0
 14 15  2  0
 15 16  1  0
 16 17  2  0
 17 18  1  0
 18 19  2  0
 19 14  1  0
  3  5  2  0
  5  6  1  0
  6  7  2  0
  7  8  1  0
  8  9  2  0
  9  3  1  0
M  END

$$$$
