No_1468-gen_results/8p0m/2024-11-26-14-13-15/
     RDKit          3D

 18 18  0  0  0  0  0  0  0  0999 V2000
  -28.0162   -0.8135   28.8779 C   0  0  0  0  0  0  0  0  0  0  0  0
  -28.4690   -0.7850   29.8287 C   0  0  0  0  0  0  0  0  0  0  0  0
  -26.5042   -0.7777   28.8766 C   0  0  0  0  0  0  0  0  0  0  0  0
  -25.8103   -0.8531   30.1028 C   0  0  0  0  0  0  0  0  0  0  0  0
  -27.9906   -0.8916   31.2257 C   0  0  0  0  0  0  0  0  0  0  0  0
  -26.6042   -0.8676   31.2652 C   0  0  0  0  0  0  0  0  0  0  0  0
  -29.9203   -0.8331   29.8239 F   0  0  0  0  0  0  0  0  0  0  0  0
  -24.3796   -0.8022   30.1424 C   0  0  0  0  0  0  0  0  0  0  0  0
  -23.8075    0.5641   30.1478 C   0  0  0  0  0  0  0  0  0  0  0  0
  -23.2709    1.1039   28.9795 C   0  0  0  0  0  0  0  0  0  0  0  0
  -23.7616    2.2243   28.4257 N   0  0  0  0  0  0  0  0  0  0  0  0
  -23.4264    2.4765   27.1117 C   0  0  0  0  0  0  0  0  0  0  0  0
  -24.0933    3.3827   26.4391 N   0  0  0  0  0  0  0  0  0  0  0  0
  -22.4355    0.3747   28.3738 O   0  0  0  0  0  0  0  0  0  0  0  0
  -22.6362    1.9205   26.4097 F   0  0  0  0  0  0  0  0  0  0  0  0
  -25.7007   -0.7302   27.6252 C   0  0  0  0  0  0  0  0  0  0  0  0
  -24.0225    1.3853   31.1987 O   0  0  0  0  0  0  0  0  0  0  0  0
  -26.1105    0.3229   26.3856 Cl  0  0  0  0  0  0  0  0  0  0  0  0
  2  7  1  0
  4  8  1  0
  8  9  1  0
  9 10  1  0
 10 11  1  0
 11 12  2  3
 12 13  1  0
 10 14  2  0
 12 15  1  0
  3 16  1  0
  9 17  2  0
 16 18  1  0
  1  2  2  0
  2  5  1  0
  5  6  2  0
  6  4  1  0
  4  3  2  0
  3  1  1  0
M  END

$$$$
