No_1691-gen_results/8p0m/2024-11-26-14-13-15/
     RDKit          3D

 17 18  0  0  0  0  0  0  0  0999 V2000
  -28.0162   -0.8135   28.8779 C   0  0  0  0  0  0  0  0  0  0  0  0
  -27.0636   -0.1189   28.6079 C   0  0  0  0  0  0  0  0  0  0  0  0
  -25.7923   -0.4302   29.0761 C   0  0  0  0  0  0  0  0  0  0  0  0
  -24.5456    0.3494   28.8225 C   0  0  0  0  0  0  0  0  0  0  0  0
  -24.6586    1.4196   27.8878 C   0  0  0  0  0  0  0  0  0  0  0  0
  -25.9471    1.6811   27.3792 C   0  0  0  0  0  0  0  0  0  0  0  0
  -27.0439    0.9739   27.6871 C   0  0  0  0  0  0  0  0  0  0  0  0
  -29.1882   -0.1472   29.0918 N   0  0  0  0  0  0  0  0  0  0  0  0
  -30.2017   -0.7833   29.7303 C   0  0  0  0  0  0  0  0  0  0  0  0
  -23.4507    2.1524   27.6005 C   0  0  0  0  0  0  0  0  0  0  0  0
  -22.3163    1.8630   28.0595 O   0  0  0  0  0  0  0  0  0  0  0  0
  -23.5922    3.2207   26.8470 O   0  0  0  0  0  0  0  0  0  0  0  0
  -31.5132   -0.4792   29.4402 C   0  0  0  0  0  0  0  0  0  0  0  0
  -29.9465   -1.7952   30.7500 C   0  0  0  0  0  0  0  0  0  0  0  0
  -28.6474   -2.0832   31.1695 C   0  0  0  0  0  0  0  0  0  0  0  0
  -27.6702   -1.8779   29.9749 C   0  0  0  0  0  0  0  0  0  0  0  0
  -31.7869    0.5605   28.9053 O   0  0  0  0  0  0  0  0  0  0  0  0
  1  2  1  0
  5 10  1  0
 10 11  2  0
 10 12  1  0
 13 17  2  0
 13  9  1  0
  1  8  2  0
  8  9  1  0
  9 14  2  0
 14 15  1  0
 15 16  2  0
 16  1  1  0
  2  3  2  0
  3  4  1  0
  4  5  2  0
  5  6  1  0
  6  7  2  0
  7  2  1  0
M  END

$$$$
