No_1763-gen_results/8p0m/2024-11-26-14-13-15/
     RDKit          3D

 13 14  0  0  0  0  0  0  0  0999 V2000
  -28.0162   -0.8135   28.8779 C   0  0  0  0  0  0  0  0  0  0  0  0
  -27.0636   -0.1189   28.6079 C   0  0  0  0  0  0  0  0  0  0  0  0
  -25.7647   -0.3897   29.0360 C   0  0  0  0  0  0  0  0  0  0  0  0
  -25.5296   -1.5302   29.9014 C   0  0  0  0  0  0  0  0  0  0  0  0
  -26.6577   -2.2915   30.2035 C   0  0  0  0  0  0  0  0  0  0  0  0
  -27.8548   -1.9555   29.7630 C   0  0  0  0  0  0  0  0  0  0  0  0
  -24.7050    0.5765   28.7945 C   0  0  0  0  0  0  0  0  0  0  0  0
  -24.5515    1.2120   27.6598 C   0  0  0  0  0  0  0  0  0  0  0  0
  -23.4045    2.0249   27.3835 C   0  0  0  0  0  0  0  0  0  0  0  0
  -22.2549    1.8896   28.1332 C   0  0  0  0  0  0  0  0  0  0  0  0
  -23.4191    0.4490   29.5569 C   0  0  0  0  0  0  0  0  0  0  0  0
  -22.2582    1.0982   29.2189 C   0  0  0  0  0  0  0  0  0  0  0  0
  -28.8974   -2.7259   30.0767 F   0  0  0  0  0  0  0  0  0  0  0  0
  3  7  1  0
  6 13  1  0
  7  8  2  0
  8  9  1  0
  9 10  2  0
 10 12  1  0
 12 11  2  0
 11  7  1  0
  1  2  2  0
  2  3  1  0
  3  4  2  0
  4  5  1  0
  5  6  2  0
  6  1  1  0
M  END

$$$$
