No_1058-gen_results/8p0m/2024-11-26-14-13-15/
     RDKit          3D

 30 33  0  0  0  0  0  0  0  0999 V2000
  -28.0162   -0.8135   28.8779 C   0  0  0  0  0  0  0  0  0  0  0  0
  -27.0636   -0.1189   28.6079 C   0  0  0  0  0  0  0  0  0  0  0  0
  -25.7923   -0.4302   29.0761 C   0  0  0  0  0  0  0  0  0  0  0  0
  -24.5456    0.3494   28.8225 C   0  0  0  0  0  0  0  0  0  0  0  0
  -23.2409    0.0217   29.3323 C   0  0  0  0  0  0  0  0  0  0  0  0
  -27.8820   -1.8995   29.8633 C   0  0  0  0  0  0  0  0  0  0  0  0
  -26.6526   -2.3141   30.3138 C   0  0  0  0  0  0  0  0  0  0  0  0
  -25.5153   -1.5607   29.9787 C   0  0  0  0  0  0  0  0  0  0  0  0
  -22.1645    0.7936   28.9524 C   0  0  0  0  0  0  0  0  0  0  0  0
  -22.1241    1.7484   27.9889 C   0  0  0  0  0  0  0  0  0  0  0  0
  -24.5235    1.3782   27.7946 C   0  0  0  0  0  0  0  0  0  0  0  0
  -23.3387    2.0417   27.4305 C   0  0  0  0  0  0  0  0  0  0  0  0
  -29.0500   -2.7282   30.2957 C   0  0  0  0  0  0  0  0  0  0  0  0
  -28.9890   -3.9429   30.3915 O   0  0  0  0  0  0  0  0  0  0  0  0
  -30.1844   -2.0913   30.6364 N   0  0  0  0  0  0  0  0  0  0  0  0
  -31.3543   -2.8398   31.0654 C   0  0  0  0  0  0  0  0  0  0  0  0
  -23.4509    2.9838   26.4843 F   0  0  0  0  0  0  0  0  0  0  0  0
  -30.3150   -0.6507   30.6765 C   0  0  0  0  0  0  0  0  0  0  0  0
  -30.5753   -0.1566   32.0476 C   0  0  0  0  0  0  0  0  0  0  0  0
  -31.9341   -0.1514   32.2736 C   0  0  0  0  0  0  0  0  0  0  0  0
  -32.6057   -1.4743   32.5032 C   0  0  0  0  0  0  0  0  0  0  0  0
  -32.6697   -2.3184   31.4212 C   0  0  0  0  0  0  0  0  0  0  0  0
  -32.1079    0.8181   33.5440 C   0  0  0  0  0  0  0  0  0  0  0  0
  -32.6727    0.5809   31.1612 C   0  0  0  0  0  0  0  0  0  0  0  0
  -31.4648    0.6239   34.5908 C   0  0  0  0  0  0  0  0  0  0  0  0
  -33.0529    1.8627   33.3975 C   0  0  0  0  0  0  0  0  0  0  0  0
  -33.2128    2.7092   34.5582 C   0  0  0  0  0  0  0  0  0  0  0  0
  -31.6058    1.4137   35.7864 C   0  0  0  0  0  0  0  0  0  0  0  0
  -32.5179    2.4649   35.7171 C   0  0  0  0  0  0  0  0  0  0  0  0
  -33.4843    1.5026   31.3242 C   0  0  0  0  0  0  0  0  0  0  0  0
  3  4  1  0
  6 13  1  0
 13 14  2  0
 13 15  1  0
 15 16  1  0
 12 17  1  0
 15 18  1  0
 18 19  2  0
 19 20  1  0
 20 21  1  0
 16 22  1  0
 21 22  1  0
 20 23  1  0
 20 24  1  0
 24 30  2  0
 23 25  2  0
 25 28  1  0
 28 29  2  0
 29 27  1  0
 27 26  2  0
 26 23  1  0
  1  2  2  0
  2  3  1  0
  3  8  2  0
  8  7  1  0
  7  6  2  0
  6  1  1  0
  4  5  2  0
  5  9  1  0
  9 10  2  0
 10 12  1  0
 12 11  2  0
 11  4  1  0
M  END

$$$$
