No_1045-gen_results/8p0m/2024-11-26-14-13-15/
     RDKit          3D

 22 24  0  0  0  0  0  0  0  0999 V2000
  -28.0162   -0.8135   28.8779 C   0  0  0  0  0  0  0  0  0  0  0  0
  -27.0636   -0.1189   28.6079 C   0  0  0  0  0  0  0  0  0  0  0  0
  -26.9716    0.7139   27.5060 C   0  0  0  0  0  0  0  0  0  0  0  0
  -28.1053    0.7744   26.6421 C   0  0  0  0  0  0  0  0  0  0  0  0
  -29.2008    0.1044   27.0527 C   0  0  0  0  0  0  0  0  0  0  0  0
  -29.1473   -0.5384   28.3531 C   0  0  0  0  0  0  0  0  0  0  0  0
  -30.3942    0.2495   26.2458 C   0  0  0  0  0  0  0  0  0  0  0  0
  -30.2965    0.3331   24.9368 C   0  0  0  0  0  0  0  0  0  0  0  0
  -29.1432    1.0951   24.3912 C   0  0  0  0  0  0  0  0  0  0  0  0
  -27.9535    1.1236   25.2406 C   0  0  0  0  0  0  0  0  0  0  0  0
  -27.9807   -1.6728   30.4565 Cl  0  0  0  0  0  0  0  0  0  0  0  0
  -25.8675    1.5048   26.9964 C   0  0  0  0  0  0  0  0  0  0  0  0
  -25.8279    2.7610   27.6678 C   0  0  0  0  0  0  0  0  0  0  0  0
  -24.7783    1.0237   26.3127 C   0  0  0  0  0  0  0  0  0  0  0  0
  -25.9955    3.3036   28.5531 C   0  0  0  0  0  0  0  0  0  0  0  0
  -26.0312    4.6886   28.8830 C   0  0  0  0  0  0  0  0  0  0  0  0
  -26.3580    5.2503   30.1619 C   0  0  0  0  0  0  0  0  0  0  0  0
  -26.4645    4.3582   31.2000 C   0  0  0  0  0  0  0  0  0  0  0  0
  -26.3580    3.0013   31.0498 C   0  0  0  0  0  0  0  0  0  0  0  0
  -26.1734    2.5217   29.8494 C   0  0  0  0  0  0  0  0  0  0  0  0
  -25.0727    3.6082   26.5096 C   0  0  0  0  0  0  0  0  0  0  0  0
  -31.5167   -0.3325   26.6955 O   0  0  0  0  0  0  0  0  0  0  0  0
  5  7  1  0
  7  8  1  0
  4 10  1  0
  9 10  1  0
  1 11  1  0
  3 12  1  0
 12 13  1  0
 12 14  1  0
 13 15  1  0
 13 21  1  0
  7 22  2  0
  9  8  1  0
  1  2  2  0
  2  3  1  0
  3  4  2  0
  4  5  1  0
  5  6  2  0
  6  1  1  0
 15 16  2  0
 16 17  1  0
 17 18  2  0
 18 19  1  0
 19 20  2  0
 20 15  1  0
M  END

$$$$
