No_147-gen_results/8p0m/2024-11-26-14-13-15/
     RDKit          3D

 26 28  0  0  0  0  0  0  0  0999 V2000
  -28.0162   -0.8135   28.8779 C   0  0  0  0  0  0  0  0  0  0  0  0
  -27.0636   -0.1189   28.6079 C   0  0  0  0  0  0  0  0  0  0  0  0
  -25.7647   -0.3897   29.0360 C   0  0  0  0  0  0  0  0  0  0  0  0
  -24.5516    0.4058   28.7646 C   0  0  0  0  0  0  0  0  0  0  0  0
  -23.2300    0.1178   29.2575 C   0  0  0  0  0  0  0  0  0  0  0  0
  -22.1393    0.9427   28.9224 C   0  0  0  0  0  0  0  0  0  0  0  0
  -27.8294   -1.9287   29.8545 C   0  0  0  0  0  0  0  0  0  0  0  0
  -26.5882   -2.3272   30.2682 C   0  0  0  0  0  0  0  0  0  0  0  0
  -25.4565   -1.5432   29.9146 C   0  0  0  0  0  0  0  0  0  0  0  0
  -22.2302    1.9089   27.8723 C   0  0  0  0  0  0  0  0  0  0  0  0
  -24.5538    1.4700   27.7617 C   0  0  0  0  0  0  0  0  0  0  0  0
  -23.4471    2.1666   27.3764 C   0  0  0  0  0  0  0  0  0  0  0  0
  -28.9783   -2.7708   30.2578 C   0  0  0  0  0  0  0  0  0  0  0  0
  -28.9057   -3.9951   30.3320 O   0  0  0  0  0  0  0  0  0  0  0  0
  -30.0675   -2.2106   30.6115 O   0  0  0  0  0  0  0  0  0  0  0  0
  -31.2286   -2.9189   30.8713 C   0  0  0  0  0  0  0  0  0  0  0  0
  -32.4503   -2.2524   30.5694 C   0  0  0  0  0  0  0  0  0  0  0  0
  -32.3770   -0.8933   30.5294 C   0  0  0  0  0  0  0  0  0  0  0  0
  -32.3841   -0.2224   31.7070 C   0  0  0  0  0  0  0  0  0  0  0  0
  -33.0098   -0.3968   32.6897 C   0  0  0  0  0  0  0  0  0  0  0  0
  -32.9040    0.3762   33.9314 C   0  0  0  0  0  0  0  0  0  0  0  0
  -31.9794    1.4125   33.9259 C   0  0  0  0  0  0  0  0  0  0  0  0
  -31.3660    0.9515   31.7389 C   0  0  0  0  0  0  0  0  0  0  0  0
  -31.2130    1.6994   32.8588 C   0  0  0  0  0  0  0  0  0  0  0  0
  -32.4401   -0.1727   29.2557 C   0  0  0  0  0  0  0  0  0  0  0  0
  -32.0156    0.9050   29.0675 N   0  0  0  0  0  0  0  0  0  0  0  0
  3  4  1  0
  7 13  1  0
 13 14  2  0
 13 15  1  0
 15 16  1  0
 16 17  1  0
 17 18  1  0
 18 19  1  0
 18 25  1  0
 25 26  1  0
  1  2  2  0
  2  3  1  0
  3  9  2  0
  9  8  1  0
  8  7  2  0
  7  1  1  0
  4  5  2  0
  5  6  1  0
  6 10  2  0
 10 12  1  0
 12 11  2  0
 11  4  1  0
 19 20  2  0
 20 21  1  0
 21 22  2  0
 22 24  1  0
 24 23  2  0
 23 19  1  0
M  END

$$$$
