No_1844-gen_results/8p0m/2024-11-26-14-13-15/
     RDKit          3D

 35 38  0  0  0  0  0  0  0  0999 V2000
  -28.1229   -1.3353   28.4874 O   0  0  0  0  0  0  0  0  0  0  0  0
  -27.0637   -0.8242   28.8687 C   0  0  0  0  0  0  0  0  0  0  0  0
  -25.9773   -1.1378   28.8137 N   0  0  0  0  0  0  0  0  0  0  0  0
  -24.7669   -0.3464   29.1634 C   0  0  0  0  0  0  0  0  0  0  0  0
  -27.1684    0.7551   29.2892 C   0  0  0  0  0  0  0  0  0  0  0  0
  -24.9442    0.9296   29.5403 C   0  0  0  0  0  0  0  0  0  0  0  0
  -26.1697    1.4497   29.5843 C   0  0  0  0  0  0  0  0  0  0  0  0
  -23.4218   -0.9540   29.0983 C   0  0  0  0  0  0  0  0  0  0  0  0
  -22.3078   -0.0731   29.2127 C   0  0  0  0  0  0  0  0  0  0  0  0
  -22.4780    1.2331   29.4491 C   0  0  0  0  0  0  0  0  0  0  0  0
  -23.6907    1.7415   29.6956 C   0  0  0  0  0  0  0  0  0  0  0  0
  -21.0926   -0.6050   29.0457 O   0  0  0  0  0  0  0  0  0  0  0  0
  -28.6316    1.1946   29.3582 C   0  0  0  0  0  0  0  0  0  0  0  0
  -29.1617    1.5503   28.3611 N   0  0  0  0  0  0  0  0  0  0  0  0
  -29.5844    2.6558   28.1548 C   0  0  0  0  0  0  0  0  0  0  0  0
  -29.3657    3.5695   27.5458 C   0  0  0  0  0  0  0  0  0  0  0  0
  -28.1005    3.5425   26.7475 C   0  0  0  0  0  0  0  0  0  0  0  0
  -27.7802    2.6902   25.9479 C   0  0  0  0  0  0  0  0  0  0  0  0
  -28.5894    1.6410   25.5298 C   0  0  0  0  0  0  0  0  0  0  0  0
  -28.4314    1.0799   26.9310 C   0  0  0  0  0  0  0  0  0  0  0  0
  -27.5247    0.5028   26.8816 O   0  0  0  0  0  0  0  0  0  0  0  0
  -29.2288    1.1304   24.5899 C   0  0  0  0  0  0  0  0  0  0  0  0
  -28.9912    1.8288   30.7492 Cl  0  0  0  0  0  0  0  0  0  0  0  0
  -29.4161   -0.2282   24.5525 C   0  0  0  0  0  0  0  0  0  0  0  0
  -30.5584   -0.8522   24.3961 C   0  0  0  0  0  0  0  0  0  0  0  0
  -30.6424   -2.3277   24.4350 C   0  0  0  0  0  0  0  0  0  0  0  0
  -31.8386   -0.2081   24.6170 C   0  0  0  0  0  0  0  0  0  0  0  0
  -33.0547   -0.8544   24.6478 C   0  0  0  0  0  0  0  0  0  0  0  0
  -31.9413   -2.8814   24.4784 C   0  0  0  0  0  0  0  0  0  0  0  0
  -33.1102   -2.1816   24.5576 C   0  0  0  0  0  0  0  0  0  0  0  0
  -29.8454    1.9536   23.6045 C   0  0  0  0  0  0  0  0  0  0  0  0
  -34.2984   -0.0494   24.7076 C   0  0  0  0  0  0  0  0  0  0  0  0
  -34.9381    0.1870   23.7276 O   0  0  0  0  0  0  0  0  0  0  0  0
  -34.6398    0.4623   25.8600 O   0  0  0  0  0  0  0  0  0  0  0  0
  -35.1983    1.4201   26.1698 C   0  0  0  0  0  0  0  0  0  0  0  0
  1  2  2  0
  2  3  1  0
  3  4  1  0
  2  5  1  0
  6  7  1  0
  9 12  1  0
  5 13  1  0
 13 14  1  0
 14 15  1  0
 15 16  2  0
 16 17  1  0
 17 18  2  0
 18 19  1  0
 14 20  1  0
 19 20  1  0
 20 21  2  0
 19 22  1  0
 13 23  1  0
 22 24  1  0
 24 25  1  0
 22 31  1  0
 28 32  1  0
 32 33  2  0
 32 34  1  0
 34 35  1  0
  7  5  1  0
 25 26  2  0
 26 29  1  0
 29 30  2  0
 30 28  1  0
 28 27  2  0
 27 25  1  0
  4  8  2  0
  8  9  1  0
  9 10  2  0
 10 11  1  0
 11  6  2  0
  6  4  1  0
M  END

$$$$
