No_1105-gen_results/8p0m/2024-11-26-14-13-15/
     RDKit          3D

 35 37  0  0  0  0  0  0  0  0999 V2000
  -28.0162   -0.8135   28.8779 C   0  0  0  0  0  0  0  0  0  0  0  0
  -28.4690   -0.7850   29.8287 C   0  0  0  0  0  0  0  0  0  0  0  0
  -27.0871    0.2903   28.6377 C   0  0  0  0  0  0  0  0  0  0  0  0
  -26.8317    1.2487   29.5869 C   0  0  0  0  0  0  0  0  0  0  0  0
  -28.3914    0.0801   31.0065 C   0  0  0  0  0  0  0  0  0  0  0  0
  -27.4940    1.1521   30.7841 C   0  0  0  0  0  0  0  0  0  0  0  0
  -26.3172    0.3994   27.3653 C   0  0  0  0  0  0  0  0  0  0  0  0
  -25.1235    1.4408   27.2316 P   0  0  0  0  0  0  0  0  0  0  0  0
  -25.4616    2.6093   28.0492 O   0  0  0  0  0  0  0  0  0  0  0  0
  -24.9609    1.8528   25.7289 O   0  0  0  0  0  0  0  0  0  0  0  0
  -23.8293    0.8275   27.7251 O   0  0  0  0  0  0  0  0  0  0  0  0
  -22.9863    1.1644   28.1893 C   0  0  0  0  0  0  0  0  0  0  0  0
  -25.5366    3.8575   27.3423 C   0  0  0  0  0  0  0  0  0  0  0  0
  -22.0944    0.2685   29.0305 C   0  0  0  0  0  0  0  0  0  0  0  0
  -20.9349    0.0152   28.6871 O   0  0  0  0  0  0  0  0  0  0  0  0
  -22.5809   -0.0338   30.2029 O   0  0  0  0  0  0  0  0  0  0  0  0
  -26.3163    4.9531   28.0600 C   0  0  0  0  0  0  0  0  0  0  0  0
  -26.3147    6.1245   27.4735 C   0  0  0  0  0  0  0  0  0  0  0  0
  -25.0994    6.5922   26.8226 C   0  0  0  0  0  0  0  0  0  0  0  0
  -24.3268    5.6011   26.2068 C   0  0  0  0  0  0  0  0  0  0  0  0
  -24.1590    4.5119   27.1641 C   0  0  0  0  0  0  0  0  0  0  0  0
  -25.9356    5.0603   29.4354 O   0  0  0  0  0  0  0  0  0  0  0  0
  -26.6102    5.8202   30.3216 C   0  0  0  0  0  0  0  0  0  0  0  0
  -27.7024    5.7816   30.4653 C   0  0  0  0  0  0  0  0  0  0  0  0
  -28.3670    6.5756   31.4517 C   0  0  0  0  0  0  0  0  0  0  0  0
  -25.7039    6.6588   31.0712 C   0  0  0  0  0  0  0  0  0  0  0  0
  -26.1671    7.4784   32.0483 C   0  0  0  0  0  0  0  0  0  0  0  0
  -27.5827    7.4064   32.2791 C   0  0  0  0  0  0  0  0  0  0  0  0
  -27.3298    2.1195   31.9234 C   0  0  0  0  0  0  0  0  0  0  0  0
  -26.1863    2.6400   32.1553 N   0  0  0  0  0  0  0  0  0  0  0  0
  -26.0007    3.6488   33.1201 C   0  0  0  0  0  0  0  0  0  0  0  0
  -28.3569    2.5114   32.5022 O   0  0  0  0  0  0  0  0  0  0  0  0
  -24.9206    2.2225   31.5367 C   0  0  0  0  0  0  0  0  0  0  0  0
  -27.4801    6.9745   27.3343 C   0  0  0  0  0  0  0  0  0  0  0  0
  -27.4265    8.3671   27.2326 C   0  0  0  0  0  0  0  0  0  0  0  0
  3  7  1  0
  7  8  1  0
  8  9  1  0
  8 10  2  0
  8 11  1  0
 11 12  1  0
  9 13  1  0
 12 14  1  0
 14 15  2  0
 14 16  1  0
 17 22  1  0
 22 23  1  0
  6 29  1  0
 29 30  1  0
 30 31  1  0
 29 32  2  0
 30 33  1  0
 18 34  1  0
 34 35  1  0
 23 24  2  0
 24 25  1  0
 25 28  2  0
 28 27  1  0
 27 26  2  0
 26 23  1  0
 13 17  1  0
 17 18  2  0
 18 19  1  0
 19 20  2  0
 20 21  1  0
 21 13  2  0
  1  2  2  0
  2  5  1  0
  5  6  2  0
  6  4  1  0
  4  3  2  0
  3  1  1  0
M  END

$$$$
