No_1433-gen_results/8p0m/2024-11-26-14-13-15/
     RDKit          3D

 17 18  0  0  0  0  0  0  0  0999 V2000
  -28.0162   -0.8135   28.8779 C   0  0  0  0  0  0  0  0  0  0  0  0
  -28.4690   -0.7850   29.8287 C   0  0  0  0  0  0  0  0  0  0  0  0
  -28.1816    0.4277   28.1134 C   0  0  0  0  0  0  0  0  0  0  0  0
  -28.9841    1.4155   28.5154 C   0  0  0  0  0  0  0  0  0  0  0  0
  -29.3802    0.1384   30.4612 C   0  0  0  0  0  0  0  0  0  0  0  0
  -29.5415    1.2736   29.7242 C   0  0  0  0  0  0  0  0  0  0  0  0
  -27.5347    0.4526   26.9017 F   0  0  0  0  0  0  0  0  0  0  0  0
  -29.9753   -0.0857   31.8097 C   0  0  0  0  0  0  0  0  0  0  0  0
  -29.7952    0.8320   32.6805 C   0  0  0  0  0  0  0  0  0  0  0  0
  -30.6069    0.8075   33.8618 C   0  0  0  0  0  0  0  0  0  0  0  0
  -31.3986   -0.3439   34.0613 C   0  0  0  0  0  0  0  0  0  0  0  0
  -30.8629   -1.1490   31.9986 C   0  0  0  0  0  0  0  0  0  0  0  0
  -31.5400   -1.2741   33.1373 C   0  0  0  0  0  0  0  0  0  0  0  0
  -32.1025   -0.4238   35.2616 O   0  0  0  0  0  0  0  0  0  0  0  0
  -31.8564    0.4230   36.2385 C   0  0  0  0  0  0  0  0  0  0  0  0
  -31.1011    0.1709   37.2244 C   0  0  0  0  0  0  0  0  0  0  0  0
  -30.7855    1.0823   38.2938 C   0  0  0  0  0  0  0  0  0  0  0  0
  3  7  1  0
  5  8  1  0
 11 14  1  0
 14 15  1  0
 15 16  2  3
 16 17  1  0
  1  2  2  0
  2  5  1  0
  5  6  2  0
  6  4  1  0
  4  3  2  0
  3  1  1  0
  8  9  2  0
  9 10  1  0
 10 11  2  0
 11 13  1  0
 13 12  2  0
 12  8  1  0
M  END

$$$$
