No_1879-gen_results/8p0m/2024-11-26-14-13-15/
     RDKit          3D

 26 29  0  0  0  0  0  0  0  0999 V2000
  -28.0162   -0.8135   28.8779 C   0  0  0  0  0  0  0  0  0  0  0  0
  -27.0636   -0.1189   28.6079 C   0  0  0  0  0  0  0  0  0  0  0  0
  -26.9716    0.7139   27.5060 C   0  0  0  0  0  0  0  0  0  0  0  0
  -28.1053    0.7744   26.6421 C   0  0  0  0  0  0  0  0  0  0  0  0
  -29.2041    0.1179   27.0477 C   0  0  0  0  0  0  0  0  0  0  0  0
  -29.2127   -0.6088   28.1281 C   0  0  0  0  0  0  0  0  0  0  0  0
  -25.7106    1.4518   27.1380 C   0  0  0  0  0  0  0  0  0  0  0  0
  -24.6052    0.9253   27.6902 C   0  0  0  0  0  0  0  0  0  0  0  0
  -23.3087    1.6018   27.4923 C   0  0  0  0  0  0  0  0  0  0  0  0
  -22.1769    1.1971   28.2745 C   0  0  0  0  0  0  0  0  0  0  0  0
  -22.2182    0.0930   29.0618 C   0  0  0  0  0  0  0  0  0  0  0  0
  -23.4005   -0.6727   29.1615 C   0  0  0  0  0  0  0  0  0  0  0  0
  -24.5560   -0.2221   28.5396 C   0  0  0  0  0  0  0  0  0  0  0  0
  -25.7306   -0.6018   29.1335 C   0  0  0  0  0  0  0  0  0  0  0  0
  -25.7678   -1.5463   30.0092 O   0  0  0  0  0  0  0  0  0  0  0  0
  -30.4487    0.3454   26.2697 C   0  0  0  0  0  0  0  0  0  0  0  0
  -30.5053    0.1694   25.0558 O   0  0  0  0  0  0  0  0  0  0  0  0
  -31.6140    0.2816   26.9371 O   0  0  0  0  0  0  0  0  0  0  0  0
  -25.7556    2.4905   26.1582 C   0  0  0  0  0  0  0  0  0  0  0  0
  -32.6385    0.8730   26.5179 C   0  0  0  0  0  0  0  0  0  0  0  0
  -33.6637    0.0564   26.0618 C   0  0  0  0  0  0  0  0  0  0  0  0
  -34.4140    0.3536   25.1421 C   0  0  0  0  0  0  0  0  0  0  0  0
  -34.2860    1.2164   24.5492 C   0  0  0  0  0  0  0  0  0  0  0  0
  -33.3561    2.3345   24.7876 C   0  0  0  0  0  0  0  0  0  0  0  0
  -32.1318    1.7368   25.4365 C   0  0  0  0  0  0  0  0  0  0  0  0
  -33.1044    1.8001   27.7164 C   0  0  0  0  0  0  0  0  0  0  0  0
  3  7  1  0
  2 14  1  0
 13 14  1  0
 14 15  2  0
  5 16  1  0
 16 17  2  0
 16 18  1  0
  7 19  1  0
 18 20  1  0
 20 21  1  0
 22 23  1  0
 20 25  1  0
 24 25  1  0
 20 26  1  0
 21 22  1  0
 23 24  1  0
  7  8  1  0
  1  2  2  0
  2  3  1  0
  3  4  2  0
  4  5  1  0
  5  6  2  0
  6  1  1  0
  8  9  2  0
  9 10  1  0
 10 11  2  0
 11 12  1  0
 12 13  2  0
 13  8  1  0
M  END

$$$$
