No_1471-gen_results/8p0m/2024-11-26-14-13-15/
     RDKit          3D

 21 24  0  0  0  0  0  0  0  0999 V2000
  -28.0162   -0.8135   28.8779 C   0  0  0  0  0  0  0  0  0  0  0  0
  -27.0636   -0.1189   28.6079 C   0  0  0  0  0  0  0  0  0  0  0  0
  -25.7923   -0.4302   29.0761 C   0  0  0  0  0  0  0  0  0  0  0  0
  -25.5756   -1.5654   29.9363 C   0  0  0  0  0  0  0  0  0  0  0  0
  -26.7354   -2.3004   30.2173 C   0  0  0  0  0  0  0  0  0  0  0  0
  -27.9184   -1.9537   29.7629 C   0  0  0  0  0  0  0  0  0  0  0  0
  -27.1057    1.1023   27.7593 C   0  0  0  0  0  0  0  0  0  0  0  0
  -26.1219    1.4820   27.0232 C   0  0  0  0  0  0  0  0  0  0  0  0
  -25.9942    2.5497   26.3269 C   0  0  0  0  0  0  0  0  0  0  0  0
  -24.7434    3.0624   25.7276 C   0  0  0  0  0  0  0  0  0  0  0  0
  -23.6015    2.2498   25.9054 C   0  0  0  0  0  0  0  0  0  0  0  0
  -23.7193    1.1110   26.6916 C   0  0  0  0  0  0  0  0  0  0  0  0
  -24.8576    0.7285   27.2592 C   0  0  0  0  0  0  0  0  0  0  0  0
  -24.8080   -0.2520   28.2181 N   0  0  0  0  0  0  0  0  0  0  0  0
  -28.4824    1.6316   27.5160 C   0  0  0  0  0  0  0  0  0  0  0  0
  -28.9791    2.4974   28.4726 C   0  0  0  0  0  0  0  0  0  0  0  0
  -30.2495    2.9798   28.3773 C   0  0  0  0  0  0  0  0  0  0  0  0
  -29.1634    1.2794   26.4290 C   0  0  0  0  0  0  0  0  0  0  0  0
  -30.4474    1.7663   26.2326 C   0  0  0  0  0  0  0  0  0  0  0  0
  -30.9729    2.6474   27.2115 C   0  0  0  0  0  0  0  0  0  0  0  0
  -31.2285    1.3875   25.0859 C   0  0  0  0  0  0  0  0  0  0  0  0
  2  7  1  0
  7  8  1  0
  3 14  1  0
 13 14  1  0
  7 15  1  0
 19 21  1  0
 15 16  2  0
 16 17  1  0
 17 20  2  0
 20 19  1  0
 19 18  2  0
 18 15  1  0
  1  2  2  0
  2  3  1  0
  3  4  2  0
  4  5  1  0
  5  6  2  0
  6  1  1  0
  8  9  2  0
  9 10  1  0
 10 11  2  0
 11 12  1  0
 12 13  2  0
 13  8  1  0
M  END

$$$$
