No_1979-gen_results/8p0m/2024-11-26-14-13-15/
     RDKit          3D

 10 10  0  0  0  0  0  0  0  0999 V2000
  -28.0162   -0.8135   28.8779 C   0  0  0  0  0  0  0  0  0  0  0  0
  -27.0636   -0.1190   28.6079 C   0  0  0  0  0  0  0  0  0  0  0  0
  -27.0010    0.6913   27.4910 C   0  0  0  0  0  0  0  0  0  0  0  0
  -25.8548    1.4825   27.0830 C   0  0  0  0  0  0  0  0  0  0  0  0
  -25.8227    2.3296   25.9941 C   0  0  0  0  0  0  0  0  0  0  0  0
  -27.9874   -1.6326   30.1036 C   0  0  0  0  0  0  0  0  0  0  0  0
  -26.7767   -1.8328   30.7473 C   0  0  0  0  0  0  0  0  0  0  0  0
  -25.6211   -1.2294   30.3398 C   0  0  0  0  0  0  0  0  0  0  0  0
  -25.7328   -0.3516   29.1754 C   0  0  0  0  0  0  0  0  0  0  0  0
  -26.9380    2.3235   25.1519 C   0  0  0  0  0  0  0  0  0  0  0  0
  3  4  1  0
  4  5  2  3
  5 10  1  0
  3  2  1  0
  1  2  2  0
  2  9  1  0
  9  8  2  0
  8  7  1  0
  7  6  2  0
  6  1  1  0
M  END

$$$$
