No_1595-gen_results/8p0m/2024-11-26-14-13-15/
     RDKit          3D

 27 30  0  0  0  0  0  0  0  0999 V2000
  -28.0162   -0.8135   28.8779 C   0  0  0  0  0  0  0  0  0  0  0  0
  -27.0636   -0.1189   28.6079 C   0  0  0  0  0  0  0  0  0  0  0  0
  -27.0010    0.6913   27.4910 C   0  0  0  0  0  0  0  0  0  0  0  0
  -25.7770    1.0214   26.9135 C   0  0  0  0  0  0  0  0  0  0  0  0
  -24.5088    0.7364   27.5686 C   0  0  0  0  0  0  0  0  0  0  0  0
  -24.5930   -0.0361   28.7390 C   0  0  0  0  0  0  0  0  0  0  0  0
  -25.8114   -0.4771   29.1584 C   0  0  0  0  0  0  0  0  0  0  0  0
  -28.1069   -1.4831   30.2046 C   0  0  0  0  0  0  0  0  0  0  0  0
  -29.3401   -2.1557   30.6205 C   0  0  0  0  0  0  0  0  0  0  0  0
  -26.9104   -1.7118   30.9836 C   0  0  0  0  0  0  0  0  0  0  0  0
  -25.7320   -1.2708   30.3891 C   0  0  0  0  0  0  0  0  0  0  0  0
  -29.7861   -1.8839   31.7652 O   0  0  0  0  0  0  0  0  0  0  0  0
  -29.7108   -3.1755   30.0466 O   0  0  0  0  0  0  0  0  0  0  0  0
  -23.2544    1.3389   27.0780 C   0  0  0  0  0  0  0  0  0  0  0  0
  -23.2109    2.0890   25.9010 C   0  0  0  0  0  0  0  0  0  0  0  0
  -22.1032    1.3190   27.9212 C   0  0  0  0  0  0  0  0  0  0  0  0
  -21.9960    0.8486   29.0784 N   0  0  0  0  0  0  0  0  0  0  0  0
  -23.1946    0.0291   29.4627 C   0  0  0  0  0  0  0  0  0  0  0  0
  -28.2360    1.0317   26.7561 C   0  0  0  0  0  0  0  0  0  0  0  0
  -28.2336    1.4053   25.5458 C   0  0  0  0  0  0  0  0  0  0  0  0
  -29.3527    1.9263   25.0393 C   0  0  0  0  0  0  0  0  0  0  0  0
  -30.5607    1.9921   25.7029 C   0  0  0  0  0  0  0  0  0  0  0  0
  -30.5427    1.5354   27.0105 C   0  0  0  0  0  0  0  0  0  0  0  0
  -29.4154    1.1753   27.6089 C   0  0  0  0  0  0  0  0  0  0  0  0
  -31.8435    1.6564   27.7698 C   0  0  0  0  0  0  0  0  0  0  0  0
  -32.6398    0.9781   28.0202 C   0  0  0  0  0  0  0  0  0  0  0  0
  -33.8256    1.1469   28.8732 C   0  0  0  0  0  0  0  0  0  0  0  0
  8  9  1  0
  9 12  1  0
  9 13  2  0
  3 19  1  0
 23 25  1  0
 25 26  2  3
 26 27  1  0
 15 14  1  0
  6 18  2  0
 18 17  1  0
 17 16  2  0
 16 14  1  0
 14  5  2  0
  2  3  1  0
  3  4  2  0
  4  5  1  0
  5  6  1  0
  6  7  1  0
 19 20  2  0
 20 21  1  0
 21 22  2  0
 22 23  1  0
 23 24  2  0
 24 19  1  0
  1  2  2  0
  2  7  1  0
  7 11  2  0
 11 10  1  0
 10  8  2  0
  8  1  1  0
M  END

$$$$
