No_175-gen_results/8p0m/2024-11-26-14-13-15/
     RDKit          3D

 29 29  0  0  0  0  0  0  0  0999 V2000
  -28.0162   -0.8135   28.8779 C   0  0  0  0  0  0  0  0  0  0  0  0
  -28.4690   -0.7850   29.8287 C   0  0  0  0  0  0  0  0  0  0  0  0
  -26.5455   -0.8762   28.8500 C   0  0  0  0  0  0  0  0  0  0  0  0
  -25.8041   -1.0324   30.0571 C   0  0  0  0  0  0  0  0  0  0  0  0
  -26.5373   -1.0386   31.2171 C   0  0  0  0  0  0  0  0  0  0  0  0
  -27.8843   -0.9532   31.1862 C   0  0  0  0  0  0  0  0  0  0  0  0
  -24.4686   -1.3724   30.1797 C   0  0  0  0  0  0  0  0  0  0  0  0
  -23.8055   -2.0668   29.2178 C   0  0  0  0  0  0  0  0  0  0  0  0
  -23.6646   -0.7273   31.1933 C   0  0  0  0  0  0  0  0  0  0  0  0
  -24.1641    0.2341   32.0281 C   0  0  0  0  0  0  0  0  0  0  0  0
  -25.5728   -0.8470   27.4075 Cl  0  0  0  0  0  0  0  0  0  0  0  0
  -28.7375   -0.9603   32.4355 C   0  0  0  0  0  0  0  0  0  0  0  0
  -28.3349   -0.4348   33.3896 O   0  0  0  0  0  0  0  0  0  0  0  0
  -29.8165   -1.6539   32.3899 O   0  0  0  0  0  0  0  0  0  0  0  0
  -24.6462    1.4674   31.6250 C   0  0  0  0  0  0  0  0  0  0  0  0
  -25.2451    2.4662   32.4298 C   0  0  0  0  0  0  0  0  0  0  0  0
  -25.5749    3.7657   31.9496 C   0  0  0  0  0  0  0  0  0  0  0  0
  -25.9337    4.7415   32.7360 N   0  0  0  0  0  0  0  0  0  0  0  0
  -25.4975    4.0115   30.7190 O   0  0  0  0  0  0  0  0  0  0  0  0
  -26.2809    6.0883   32.3113 C   0  0  0  0  0  0  0  0  0  0  0  0
  -26.3379    6.4102   31.1399 C   0  0  0  0  0  0  0  0  0  0  0  0
  -27.4189    6.5253   30.6587 Cl  0  0  0  0  0  0  0  0  0  0  0  0
  -25.0299    6.7281   30.5022 C   0  0  0  0  0  0  0  0  0  0  0  0
  -24.9640    8.0699   29.8763 C   0  0  0  0  0  0  0  0  0  0  0  0
  -24.4546    8.0796   28.5293 C   0  0  0  0  0  0  0  0  0  0  0  0
  -25.2836    9.2095   30.4866 C   0  0  0  0  0  0  0  0  0  0  0  0
  -25.4973    9.2738   31.8637 C   0  0  0  0  0  0  0  0  0  0  0  0
  -25.9137   10.4633   32.3664 C   0  0  0  0  0  0  0  0  0  0  0  0
  -26.0211   11.5580   31.5477 C   0  0  0  0  0  0  0  0  0  0  0  0
  4  7  1  0
  7  8  1  0
  7  9  1  0
  9 10  1  0
  3 11  1  0
  6 12  1  0
 12 13  2  0
 12 14  1  0
 10 15  1  0
 15 16  2  3
 16 17  1  0
 17 18  1  0
 17 19  2  0
 18 20  1  0
 20 21  1  0
 21 22  1  0
 21 23  1  0
 23 24  1  0
 24 25  1  0
 24 26  1  0
 26 27  1  0
 27 28  2  3
 28 29  1  0
  1  2  2  0
  2  6  1  0
  6  5  2  0
  5  4  1  0
  4  3  2  0
  3  1  1  0
M  END

$$$$
