No_1093-gen_results/8p0m/2024-11-26-14-13-15/
     RDKit          3D

 15 16  0  0  0  0  0  0  0  0999 V2000
  -28.0162   -0.8135   28.8779 C   0  0  0  0  0  0  0  0  0  0  0  0
  -27.0636   -0.1190   28.6079 C   0  0  0  0  0  0  0  0  0  0  0  0
  -26.8756    1.1325   28.9134 C   0  0  0  0  0  0  0  0  0  0  0  0
  -27.9014    1.8066   29.6436 C   0  0  0  0  0  0  0  0  0  0  0  0
  -29.0458   -0.2316   29.7181 C   0  0  0  0  0  0  0  0  0  0  0  0
  -28.9402    1.0517   30.0597 C   0  0  0  0  0  0  0  0  0  0  0  0
  -26.0208   -0.6774   27.8774 F   0  0  0  0  0  0  0  0  0  0  0  0
  -29.9120    1.5959   30.7993 F   0  0  0  0  0  0  0  0  0  0  0  0
  -25.6705    1.9364   28.4378 C   0  0  0  0  0  0  0  0  0  0  0  0
  -25.7971    3.1239   28.0285 N   0  0  0  0  0  0  0  0  0  0  0  0
  -24.7256    3.7598   27.3612 C   0  0  0  0  0  0  0  0  0  0  0  0
  -24.8433    5.0454   27.0039 F   0  0  0  0  0  0  0  0  0  0  0  0
  -23.6652    3.0071   26.8885 C   0  0  0  0  0  0  0  0  0  0  0  0
  -23.5326    1.6907   27.3881 C   0  0  0  0  0  0  0  0  0  0  0  0
  -24.5764    1.1265   28.1054 C   0  0  0  0  0  0  0  0  0  0  0  0
  2  7  1  0
  6  8  1  0
  3  9  1  0
 11 12  1  0
  1  2  2  0
  2  3  1  0
  3  4  2  0
  4  6  1  0
  6  5  2  0
  5  1  1  0
  9 10  2  0
 10 11  1  0
 11 13  2  0
 13 14  1  0
 14 15  2  0
 15  9  1  0
M  END

$$$$
