No_1903-gen_results/8p0m/2024-11-26-14-13-15/
     RDKit          3D

 17 18  0  0  0  0  0  0  0  0999 V2000
  -28.1229   -1.3353   28.4874 O   0  0  0  0  0  0  0  0  0  0  0  0
  -27.4806   -0.4044   28.7094 C   0  0  0  0  0  0  0  0  0  0  0  0
  -26.3804   -0.0867   27.9394 C   0  0  0  0  0  0  0  0  0  0  0  0
  -27.4232    0.1749   30.0549 N   0  0  0  0  0  0  0  0  0  0  0  0
  -25.8482    1.0048   27.9942 C   0  0  0  0  0  0  0  0  0  0  0  0
  -25.8111    1.7414   29.2835 C   0  0  0  0  0  0  0  0  0  0  0  0
  -26.7479    1.3152   30.2318 C   0  0  0  0  0  0  0  0  0  0  0  0
  -28.3986   -0.2714   30.9950 C   0  0  0  0  0  0  0  0  0  0  0  0
  -27.9204   -0.8022   32.0506 C   0  0  0  0  0  0  0  0  0  0  0  0
  -28.1215   -0.1995   33.1906 N   0  0  0  0  0  0  0  0  0  0  0  0
  -27.1688   -0.1999   34.2198 C   0  0  0  0  0  0  0  0  0  0  0  0
  -25.8618   -0.5020   33.8808 C   0  0  0  0  0  0  0  0  0  0  0  0
  -25.4375   -0.2238   32.6905 C   0  0  0  0  0  0  0  0  0  0  0  0
  -24.0343   -0.4082   32.2078 C   0  0  0  0  0  0  0  0  0  0  0  0
  -23.7829   -0.3241   30.8858 C   0  0  0  0  0  0  0  0  0  0  0  0
  -26.5032   -1.4161   31.9037 C   0  0  0  0  0  0  0  0  0  0  0  0
  -22.4324   -0.5034   30.4281 C   0  0  0  0  0  0  0  0  0  0  0  0
  1  2  2  0
  2  3  1  0
  2  4  1  0
  3  5  1  0
  4  7  1  0
  6  7  1  0
  4  8  1  0
  8  9  1  0
 13 14  1  0
 14 15  2  3
 15 17  1  0
  5  6  1  0
  9 10  2  0
 10 11  1  0
 11 12  2  0
 12 13  1  0
 13 16  2  0
 16  9  1  0
M  END

$$$$
