No_1819-gen_results/8p0m/2024-11-26-14-13-15/
     RDKit          3D

 35 38  0  0  0  0  0  0  0  0999 V2000
  -28.0162   -0.8135   28.8779 C   0  0  0  0  0  0  0  0  0  0  0  0
  -28.4690   -0.7850   29.8287 C   0  0  0  0  0  0  0  0  0  0  0  0
  -26.5042   -0.7777   28.8766 C   0  0  0  0  0  0  0  0  0  0  0  0
  -25.8103   -0.8531   30.1028 C   0  0  0  0  0  0  0  0  0  0  0  0
  -27.9906   -0.8916   31.2257 C   0  0  0  0  0  0  0  0  0  0  0  0
  -26.6042   -0.8676   31.2652 C   0  0  0  0  0  0  0  0  0  0  0  0
  -30.0739   -0.8360   29.8615 C   0  0  0  0  0  0  0  0  0  0  0  0
  -30.6891   -1.6554   30.2229 O   0  0  0  0  0  0  0  0  0  0  0  0
  -30.6022    0.4333   29.5984 N   0  0  0  0  0  0  0  0  0  0  0  0
  -32.0098    0.5508   29.4757 C   0  0  0  0  0  0  0  0  0  0  0  0
  -32.3458    1.5388   28.7508 C   0  0  0  0  0  0  0  0  0  0  0  0
  -31.4426    2.5780   28.2707 C   0  0  0  0  0  0  0  0  0  0  0  0
  -30.0496    2.3198   28.4141 C   0  0  0  0  0  0  0  0  0  0  0  0
  -29.6438    1.2549   28.9641 C   0  0  0  0  0  0  0  0  0  0  0  0
  -25.6593   -0.6799   27.6652 C   0  0  0  0  0  0  0  0  0  0  0  0
  -25.8785    0.3579   26.7255 C   0  0  0  0  0  0  0  0  0  0  0  0
  -24.9771    0.6275   25.7797 C   0  0  0  0  0  0  0  0  0  0  0  0
  -25.1839    1.4968   24.7462 C   0  0  0  0  0  0  0  0  0  0  0  0
  -26.3068    2.3907   24.9574 C   0  0  0  0  0  0  0  0  0  0  0  0
  -26.9008    1.3693   26.6250 C   0  0  0  0  0  0  0  0  0  0  0  0
  -27.1552    2.2589   25.8329 C   0  0  0  0  0  0  0  0  0  0  0  0
  -33.6331    1.9925   28.9659 O   0  0  0  0  0  0  0  0  0  0  0  0
  -34.0381    2.9362   29.7305 C   0  0  0  0  0  0  0  0  0  0  0  0
  -35.0996    3.4792   29.4669 C   0  0  0  0  0  0  0  0  0  0  0  0
  -36.0067    3.1019   28.5042 C   0  0  0  0  0  0  0  0  0  0  0  0
  -37.2603    3.7620   28.2019 C   0  0  0  0  0  0  0  0  0  0  0  0
  -37.5521    4.8992   29.0091 C   0  0  0  0  0  0  0  0  0  0  0  0
  -36.7527    5.3585   29.9871 C   0  0  0  0  0  0  0  0  0  0  0  0
  -35.5424    4.7038   30.2600 C   0  0  0  0  0  0  0  0  0  0  0  0
  -38.8536    5.5436   28.6703 C   0  0  0  0  0  0  0  0  0  0  0  0
  -39.1594    6.5800   29.1996 O   0  0  0  0  0  0  0  0  0  0  0  0
  -39.6121    4.9449   27.7716 N   0  0  0  0  0  0  0  0  0  0  0  0
  -40.8698    5.4698   27.3909 C   0  0  0  0  0  0  0  0  0  0  0  0
  -41.5409    4.8345   26.5661 C   0  0  0  0  0  0  0  0  0  0  0  0
  -41.0567    3.6850   25.9920 C   0  0  0  0  0  0  0  0  0  0  0  0
  2  7  1  0
  7  8  2  0
  7  9  1  0
  9 10  1  0
 11 12  1  0
  9 14  1  0
 13 14  1  0
  3 15  1  0
 15 16  1  0
 11 22  1  0
 22 23  1  0
 27 30  1  0
 30 31  2  0
 30 32  1  0
 32 33  1  0
 33 34  2  3
 34 35  1  0
 23 24  1  0
 10 11  1  0
 12 13  1  0
 24 25  2  0
 25 26  1  0
 26 27  2  0
 27 28  1  0
 28 29  2  0
 29 24  1  0
  1  2  2  0
  2  5  1  0
  5  6  2  0
  6  4  1  0
  4  3  2  0
  3  1  1  0
 16 17  2  0
 17 18  1  0
 18 19  2  0
 19 21  1  0
 21 20  2  0
 20 16  1  0
M  END

$$$$
