No_1299-gen_results/8p0m/2024-11-26-14-13-15/
     RDKit          3D

 24 25  0  0  0  0  0  0  0  0999 V2000
  -28.1229   -1.3353   28.4874 O   0  0  0  0  0  0  0  0  0  0  0  0
  -27.0637   -0.8242   28.8687 C   0  0  0  0  0  0  0  0  0  0  0  0
  -27.0246    0.1877   29.7358 C   0  0  0  0  0  0  0  0  0  0  0  0
  -27.8240    0.5330   30.2854 C   0  0  0  0  0  0  0  0  0  0  0  0
  -25.9174   -1.2102   28.1049 O   0  0  0  0  0  0  0  0  0  0  0  0
  -25.5346    0.7158   29.9707 C   0  0  0  0  0  0  0  0  0  0  0  0
  -25.1878    1.4939   30.5981 C   0  0  0  0  0  0  0  0  0  0  0  0
  -27.6020    1.6800   31.3821 C   0  0  0  0  0  0  0  0  0  0  0  0
  -26.2667    2.1536   31.4917 C   0  0  0  0  0  0  0  0  0  0  0  0
  -25.9212    3.2485   32.4185 C   0  0  0  0  0  0  0  0  0  0  0  0
  -26.1552    3.2177   33.6335 N   0  0  0  0  0  0  0  0  0  0  0  0
  -25.1864    4.2333   31.8861 O   0  0  0  0  0  0  0  0  0  0  0  0
  -25.9019    4.3722   34.5555 C   0  0  0  0  0  0  0  0  0  0  0  0
  -26.7469    2.0520   34.3141 C   0  0  0  0  0  0  0  0  0  0  0  0
  -27.1086    5.2246   34.6845 C   0  0  0  0  0  0  0  0  0  0  0  0
  -26.8751    6.3581   34.8593 C   0  0  0  0  0  0  0  0  0  0  0  0
  -27.9971    7.3741   34.8910 C   0  0  0  0  0  0  0  0  0  0  0  0
  -29.2787    6.8265   34.8072 C   0  0  0  0  0  0  0  0  0  0  0  0
  -29.4102    5.4647   34.5952 C   0  0  0  0  0  0  0  0  0  0  0  0
  -28.3314    4.6313   34.5133 C   0  0  0  0  0  0  0  0  0  0  0  0
  -25.8603    1.2864   35.1962 C   0  0  0  0  0  0  0  0  0  0  0  0
  -26.0512   -0.0831   35.0530 C   0  0  0  0  0  0  0  0  0  0  0  0
  -25.5315   -0.9042   35.5921 O   0  0  0  0  0  0  0  0  0  0  0  0
  -26.4329   -0.4906   33.7478 O   0  0  0  0  0  0  0  0  0  0  0  0
  1  2  1  0
  2  3  1  0
  2  5  1  0
  9 10  1  0
 10 11  1  0
 10 12  2  0
 11 13  1  0
 11 14  1  0
 13 15  1  0
 14 21  1  0
 21 22  1  0
 22 23  2  0
 22 24  1  0
 15 16  2  0
 16 17  1  0
 17 18  2  0
 18 19  1  0
 19 20  2  0
 20 15  1  0
  3  4  2  0
  4  8  1  0
  8  9  2  0
  9  7  1  0
  7  6  2  0
  6  3  1  0
M  END

$$$$
