No_1276-gen_results/8p0m/2024-11-26-14-13-15/
     RDKit          3D

 14 15  0  0  0  0  0  0  0  0999 V2000
  -28.0162   -0.8135   28.8779 C   0  0  0  0  0  0  0  0  0  0  0  0
  -28.4690   -0.7850   29.8287 C   0  0  0  0  0  0  0  0  0  0  0  0
  -28.1960    0.3478   28.0550 C   0  0  0  0  0  0  0  0  0  0  0  0
  -29.0191    1.3501   28.3782 C   0  0  0  0  0  0  0  0  0  0  0  0
  -29.2330    0.0588   30.3450 C   0  0  0  0  0  0  0  0  0  0  0  0
  -29.5334    1.2062   29.6597 C   0  0  0  0  0  0  0  0  0  0  0  0
  -27.4957    0.3867   26.6807 C   0  0  0  0  0  0  0  0  0  0  0  0
  -26.0355    0.3978   26.6663 C   0  0  0  0  0  0  0  0  0  0  0  0
  -25.3030    1.4051   27.2353 C   0  0  0  0  0  0  0  0  0  0  0  0
  -23.8723    1.3036   27.3137 C   0  0  0  0  0  0  0  0  0  0  0  0
  -23.1874    1.6207   28.3819 C   0  0  0  0  0  0  0  0  0  0  0  0
  -23.8384    2.2186   29.4659 C   0  0  0  0  0  0  0  0  0  0  0  0
  -25.2390    2.3399   29.4935 C   0  0  0  0  0  0  0  0  0  0  0  0
  -25.9061    1.8336   28.4491 C   0  0  0  0  0  0  0  0  0  0  0  0
  3  7  1  0
  7  8  1  0
  8  9  1  0
  9 10  2  0
 10 11  1  0
 11 12  2  0
 12 13  1  0
 13 14  2  0
 14  9  1  0
  1  2  2  0
  2  5  1  0
  5  6  2  0
  6  4  1  0
  4  3  2  0
  3  1  1  0
M  END

$$$$
