No_1952-gen_results/8p0m/2024-11-26-14-13-15/
     RDKit          3D

 23 24  0  0  0  0  0  0  0  0999 V2000
  -28.0162   -0.8135   28.8779 C   0  0  0  0  0  0  0  0  0  0  0  0
  -27.0636   -0.1189   28.6079 C   0  0  0  0  0  0  0  0  0  0  0  0
  -26.9287    1.1713   29.0083 C   0  0  0  0  0  0  0  0  0  0  0  0
  -27.9560    1.7411   29.7840 C   0  0  0  0  0  0  0  0  0  0  0  0
  -29.0569   -0.3271   29.7466 C   0  0  0  0  0  0  0  0  0  0  0  0
  -28.9828    0.9722   30.1516 C   0  0  0  0  0  0  0  0  0  0  0  0
  -25.7352   -0.7297   27.6631 Cl  0  0  0  0  0  0  0  0  0  0  0  0
  -29.9721    1.4269   30.9344 F   0  0  0  0  0  0  0  0  0  0  0  0
  -25.6262    1.7874   28.5774 C   0  0  0  0  0  0  0  0  0  0  0  0
  -25.3443    2.1642   27.4031 N   0  0  0  0  0  0  0  0  0  0  0  0
  -24.1349    2.3923   26.9440 C   0  0  0  0  0  0  0  0  0  0  0  0
  -23.1007    1.5190   27.0957 C   0  0  0  0  0  0  0  0  0  0  0  0
  -23.0196    0.6782   28.1639 C   0  0  0  0  0  0  0  0  0  0  0  0
  -22.0517    0.9567   29.0998 C   0  0  0  0  0  0  0  0  0  0  0  0
  -22.0922   -0.0143   30.2494 C   0  0  0  0  0  0  0  0  0  0  0  0
  -23.1989   -0.9426   30.4001 C   0  0  0  0  0  0  0  0  0  0  0  0
  -23.9840   -1.1700   29.4301 C   0  0  0  0  0  0  0  0  0  0  0  0
  -23.9421   -0.3125   28.3133 C   0  0  0  0  0  0  0  0  0  0  0  0
  -23.3447   -0.5022   27.1410 F   0  0  0  0  0  0  0  0  0  0  0  0
  -26.4568    2.3062   26.4937 C   0  0  0  0  0  0  0  0  0  0  0  0
  -24.9431    2.5327   29.7626 C   0  0  0  0  0  0  0  0  0  0  0  0
  -24.0101    3.5628   26.2908 O   0  0  0  0  0  0  0  0  0  0  0  0
  -24.6426    3.4879   29.8326 O   0  0  0  0  0  0  0  0  0  0  0  0
  2  7  1  0
  6  8  1  0
  3  9  1  0
  9 10  1  0
 10 11  1  0
 11 12  1  0
 12 13  1  0
 18 19  1  0
 10 20  1  0
  9 21  1  0
 11 22  2  0
 21 23  2  0
 13 14  2  0
 14 15  1  0
 15 16  2  0
 16 17  1  0
 17 18  2  0
 18 13  1  0
  1  2  2  0
  2  3  1  0
  3  4  2  0
  4  6  1  0
  6  5  2  0
  5  1  1  0
M  END

$$$$
