No_1908-gen_results/8p0m/2024-11-26-14-13-15/
     RDKit          3D

 15 16  0  0  0  0  0  0  0  0999 V2000
  -28.0162   -0.8135   28.8779 C   0  0  0  0  0  0  0  0  0  0  0  0
  -28.4690   -0.7850   29.8287 C   0  0  0  0  0  0  0  0  0  0  0  0
  -28.1816    0.4277   28.1134 C   0  0  0  0  0  0  0  0  0  0  0  0
  -28.9841    1.4155   28.5154 C   0  0  0  0  0  0  0  0  0  0  0  0
  -29.3802    0.1384   30.4612 C   0  0  0  0  0  0  0  0  0  0  0  0
  -29.5415    1.2736   29.7242 C   0  0  0  0  0  0  0  0  0  0  0  0
  -27.4586    0.4934   26.7701 C   0  0  0  0  0  0  0  0  0  0  0  0
  -26.0264    0.3840   26.7617 C   0  0  0  0  0  0  0  0  0  0  0  0
  -25.3680    0.5743   25.5142 C   0  0  0  0  0  0  0  0  0  0  0  0
  -25.2446    0.0154   27.8765 C   0  0  0  0  0  0  0  0  0  0  0  0
  -23.8432    0.1341   27.8106 C   0  0  0  0  0  0  0  0  0  0  0  0
  -23.9328    0.7455   25.4847 C   0  0  0  0  0  0  0  0  0  0  0  0
  -23.2198    0.5504   26.6201 C   0  0  0  0  0  0  0  0  0  0  0  0
  -28.2349    0.5856   25.6273 C   0  0  0  0  0  0  0  0  0  0  0  0
  -28.4426    1.8252   25.3408 N   0  0  0  0  0  0  0  0  0  0  0  0
  3  7  1  0
  7 14  1  0
 14 15  2  0
  7  8  1  0
  8  9  2  0
  9 12  1  0
 12 13  2  0
 13 11  1  0
 11 10  2  0
 10  8  1  0
  1  2  2  0
  2  5  1  0
  5  6  2  0
  6  4  1  0
  4  3  2  0
  3  1  1  0
M  END

$$$$
