No_19-gen_results/8p0m/2024-11-26-14-13-15/
     RDKit          3D

 10 10  0  0  0  0  0  0  0  0999 V2000
  -28.0162   -0.8135   28.8779 C   0  0  0  0  0  0  0  0  0  0  0  0
  -28.4690   -0.7850   29.8287 C   0  0  0  0  0  0  0  0  0  0  0  0
  -26.5455   -0.8762   28.8500 C   0  0  0  0  0  0  0  0  0  0  0  0
  -25.8041   -1.0324   30.0571 C   0  0  0  0  0  0  0  0  0  0  0  0
  -26.4108   -0.9067   31.0401 C   0  0  0  0  0  0  0  0  0  0  0  0
  -27.7982   -0.8545   31.1786 C   0  0  0  0  0  0  0  0  0  0  0  0
  -24.3260   -1.1017   29.9247 C   0  0  0  0  0  0  0  0  0  0  0  0
  -23.5838    0.0581   29.6526 C   0  0  0  0  0  0  0  0  0  0  0  0
  -22.3481    0.0154   29.0525 C   0  0  0  0  0  0  0  0  0  0  0  0
  -21.7085    1.1999   28.6705 C   0  0  0  0  0  0  0  0  0  0  0  0
  4  7  1  0
  7  8  1  0
  8  9  2  3
  9 10  1  0
  1  2  2  0
  2  6  1  0
  6  5  2  0
  5  4  1  0
  4  3  2  0
  3  1  1  0
M  END

$$$$
