No_160-gen_results/8p0m/2024-11-26-14-13-15/
     RDKit          3D

 31 34  0  0  0  0  0  0  0  0999 V2000
  -28.0162   -0.8135   28.8779 C   0  0  0  0  0  0  0  0  0  0  0  0
  -28.4690   -0.7850   29.8287 C   0  0  0  0  0  0  0  0  0  0  0  0
  -26.5042   -0.7777   28.8766 C   0  0  0  0  0  0  0  0  0  0  0  0
  -25.6540   -0.6597   27.7191 C   0  0  0  0  0  0  0  0  0  0  0  0
  -27.9180   -0.9374   31.1824 C   0  0  0  0  0  0  0  0  0  0  0  0
  -26.5423   -0.9399   31.2606 C   0  0  0  0  0  0  0  0  0  0  0  0
  -25.7832   -0.8935   30.1201 C   0  0  0  0  0  0  0  0  0  0  0  0
  -25.9259    0.2819   26.7445 C   0  0  0  0  0  0  0  0  0  0  0  0
  -24.9904    0.6776   25.8676 C   0  0  0  0  0  0  0  0  0  0  0  0
  -24.1885    1.6080   25.8479 C   0  0  0  0  0  0  0  0  0  0  0  0
  -24.1204    2.5824   26.9652 C   0  0  0  0  0  0  0  0  0  0  0  0
  -25.3103    3.1437   27.3183 C   0  0  0  0  0  0  0  0  0  0  0  0
  -25.2237    4.2649   28.2576 C   0  0  0  0  0  0  0  0  0  0  0  0
  -27.1040    1.1214   26.9408 C   0  0  0  0  0  0  0  0  0  0  0  0
  -26.9946    2.4813   26.6463 C   0  0  0  0  0  0  0  0  0  0  0  0
  -25.5501    4.0052   29.5221 N   0  0  0  0  0  0  0  0  0  0  0  0
  -25.4545    2.8726   30.1101 C   0  0  0  0  0  0  0  0  0  0  0  0
  -25.7150    2.8246   31.6172 C   0  0  0  0  0  0  0  0  0  0  0  0
  -25.3597    3.8432   32.2198 C   0  0  0  0  0  0  0  0  0  0  0  0
  -25.3172    5.1792   31.6437 C   0  0  0  0  0  0  0  0  0  0  0  0
  -25.5617    5.2469   30.3289 C   0  0  0  0  0  0  0  0  0  0  0  0
  -25.1461    5.3839   27.7200 O   0  0  0  0  0  0  0  0  0  0  0  0
  -30.0562   -0.7781   29.8896 C   0  0  0  0  0  0  0  0  0  0  0  0
  -30.6658   -0.0760   29.1921 O   0  0  0  0  0  0  0  0  0  0  0  0
  -30.6923   -1.3614   30.9721 N   0  0  0  0  0  0  0  0  0  0  0  0
  -32.1155   -1.3904   31.0398 C   0  0  0  0  0  0  0  0  0  0  0  0
  -32.9080   -0.7811   30.6488 C   0  0  0  0  0  0  0  0  0  0  0  0
  -32.4115   -2.6034   31.9013 C   0  0  0  0  0  0  0  0  0  0  0  0
  -34.3171   -0.9385   30.7871 C   0  0  0  0  0  0  0  0  0  0  0  0
  -33.8029   -2.8096   32.1035 C   0  0  0  0  0  0  0  0  0  0  0  0
  -34.7056   -1.9684   31.5823 C   0  0  0  0  0  0  0  0  0  0  0  0
  3  4  1  0
  4  8  1  0
  8  9  2  0
  9 10  1  0
 10 11  2  0
 11 12  1  0
 12 13  1  0
  8 14  1  0
 12 15  1  0
 14 15  2  0
 13 16  1  0
 16 17  1  0
 17 18  1  0
 19 20  1  0
 16 21  1  0
 13 22  2  0
  2 23  1  0
 23 24  2  0
 23 25  1  0
 25 26  1  0
 18 19  1  0
 20 21  1  0
 26 27  2  0
 27 29  1  0
 29 31  2  0
 31 30  1  0
 30 28  2  0
 28 26  1  0
  1  2  2  0
  2  5  1  0
  5  6  2  0
  6  7  1  0
  7  3  2  0
  3  1  1  0
M  END

$$$$
