No_1641-gen_results/8p0m/2024-11-26-14-13-15/
     RDKit          3D

  4  3  0  0  0  0  0  0  0  0999 V2000
  -28.1229   -1.3353   28.4874 O   0  0  0  0  0  0  0  0  0  0  0  0
  -27.4806   -0.4044   28.7094 C   0  0  0  0  0  0  0  0  0  0  0  0
  -26.6213   -0.2319   28.0734 F   0  0  0  0  0  0  0  0  0  0  0  0
  -27.7887    0.3765   29.7586 F   0  0  0  0  0  0  0  0  0  0  0  0
  1  2  2  0
  2  3  1  0
  2  4  1  0
M  END

$$$$
