No_1939-gen_results/8p0m/2024-11-26-14-13-15/
     RDKit          3D

 23 25  0  0  0  0  0  0  0  0999 V2000
  -28.0162   -0.8135   28.8779 C   0  0  0  0  0  0  0  0  0  0  0  0
  -28.4690   -0.7850   29.8287 C   0  0  0  0  0  0  0  0  0  0  0  0
  -26.5455   -0.8762   28.8500 C   0  0  0  0  0  0  0  0  0  0  0  0
  -25.8041   -1.0324   30.0571 C   0  0  0  0  0  0  0  0  0  0  0  0
  -27.9437   -0.9869   31.2075 C   0  0  0  0  0  0  0  0  0  0  0  0
  -26.5825   -1.0386   31.2231 C   0  0  0  0  0  0  0  0  0  0  0  0
  -29.9267   -0.7257   29.8772 O   0  0  0  0  0  0  0  0  0  0  0  0
  -30.5050   -0.0237   28.9624 C   0  0  0  0  0  0  0  0  0  0  0  0
  -31.3773   -0.3992   28.1172 C   0  0  0  0  0  0  0  0  0  0  0  0
  -31.9394    0.3228   27.0412 C   0  0  0  0  0  0  0  0  0  0  0  0
  -31.4912    1.6577   26.9464 C   0  0  0  0  0  0  0  0  0  0  0  0
  -29.9322    1.2797   28.6976 C   0  0  0  0  0  0  0  0  0  0  0  0
  -30.4949    2.1221   27.7800 C   0  0  0  0  0  0  0  0  0  0  0  0
  -24.3769   -1.1246   30.0691 C   0  0  0  0  0  0  0  0  0  0  0  0
  -23.7104    0.0919   29.8780 C   0  0  0  0  0  0  0  0  0  0  0  0
  -23.8709    1.1689   30.5918 C   0  0  0  0  0  0  0  0  0  0  0  0
  -24.0187    2.3333   30.3229 C   0  0  0  0  0  0  0  0  0  0  0  0
  -24.8033    3.3106   31.0905 C   0  0  0  0  0  0  0  0  0  0  0  0
  -25.0741    4.6203   30.7319 C   0  0  0  0  0  0  0  0  0  0  0  0
  -25.4384    5.4940   31.7040 N   0  0  0  0  0  0  0  0  0  0  0  0
  -22.7361    0.1340   28.7726 C   0  0  0  0  0  0  0  0  0  0  0  0
  -22.5013    1.3728   28.1541 C   0  0  0  0  0  0  0  0  0  0  0  0
  -23.1569    2.6165   28.8882 C   0  0  0  0  0  0  0  0  0  0  0  0
  2  7  1  0
  7  8  1  0
  4 14  1  0
 14 15  1  0
 18 19  1  0
 19 20  1  0
 18 17  1  0
 15 16  2  0
 16 17  1  0
 17 23  2  0
 23 22  1  0
 22 21  2  0
 21 15  1  0
  1  2  2  0
  2  5  1  0
  5  6  2  0
  6  4  1  0
  4  3  2  0
  3  1  1  0
  8  9  2  0
  9 10  1  0
 10 11  2  0
 11 13  1  0
 13 12  2  0
 12  8  1  0
M  END

$$$$
