No_1891-gen_results/8p0m/2024-11-26-14-13-15/
     RDKit          3D

 18 19  0  0  0  0  0  0  0  0999 V2000
  -28.1229   -1.3353   28.4874 O   0  0  0  0  0  0  0  0  0  0  0  0
  -28.5208   -0.4363   29.0779 C   0  0  0  0  0  0  0  0  0  0  0  0
  -27.9150    0.0780   30.0386 O   0  0  0  0  0  0  0  0  0  0  0  0
  -29.8074    0.1885   28.6630 C   0  0  0  0  0  0  0  0  0  0  0  0
  -29.7096    1.3760   28.1635 C   0  0  0  0  0  0  0  0  0  0  0  0
  -30.6214    1.8870   27.5825 C   0  0  0  0  0  0  0  0  0  0  0  0
  -30.8859   -0.0166   29.9921 Cl  0  0  0  0  0  0  0  0  0  0  0  0
  -30.5352    3.2828   27.0777 C   0  0  0  0  0  0  0  0  0  0  0  0
  -31.5798    4.0830   26.4608 C   0  0  0  0  0  0  0  0  0  0  0  0
  -32.7185    3.3834   26.1484 C   0  0  0  0  0  0  0  0  0  0  0  0
  -32.8218    2.0659   26.5233 C   0  0  0  0  0  0  0  0  0  0  0  0
  -31.8725    1.3479   27.1718 C   0  0  0  0  0  0  0  0  0  0  0  0
  -29.2746    4.0842   27.3477 C   0  0  0  0  0  0  0  0  0  0  0  0
  -29.0963    4.5860   28.6193 C   0  0  0  0  0  0  0  0  0  0  0  0
  -27.8533    5.0996   28.9662 C   0  0  0  0  0  0  0  0  0  0  0  0
  -26.7734    5.0506   28.0549 C   0  0  0  0  0  0  0  0  0  0  0  0
  -26.9341    4.4743   26.8170 C   0  0  0  0  0  0  0  0  0  0  0  0
  -28.1856    3.9218   26.4764 C   0  0  0  0  0  0  0  0  0  0  0  0
  1  2  2  0
  2  3  1  0
  2  4  1  0
  4  5  1  0
  4  7  1  0
  8 13  1  0
  5  6  1  0
 13 14  2  0
 14 15  1  0
 15 16  2  0
 16 17  1  0
 17 18  2  0
 18 13  1  0
  6  8  2  0
  8  9  1  0
  9 10  2  0
 10 11  1  0
 11 12  2  0
 12  6  1  0
M  END

$$$$
