No_1756-gen_results/8p0m/2024-11-26-14-13-15/
     RDKit          3D

 25 27  0  0  0  0  0  0  0  0999 V2000
  -28.0162   -0.8135   28.8779 C   0  0  0  0  0  0  0  0  0  0  0  0
  -28.4690   -0.7850   29.8287 C   0  0  0  0  0  0  0  0  0  0  0  0
  -27.0871    0.2903   28.6377 C   0  0  0  0  0  0  0  0  0  0  0  0
  -26.8317    1.2487   29.5869 C   0  0  0  0  0  0  0  0  0  0  0  0
  -28.3914    0.0801   31.0065 C   0  0  0  0  0  0  0  0  0  0  0  0
  -27.4940    1.1521   30.7841 C   0  0  0  0  0  0  0  0  0  0  0  0
  -26.3172    0.3994   27.3653 C   0  0  0  0  0  0  0  0  0  0  0  0
  -25.4794    1.4098   27.2651 N   0  0  0  0  0  0  0  0  0  0  0  0
  -25.2242    2.3589   28.1845 C   0  0  0  0  0  0  0  0  0  0  0  0
  -25.9048    2.2831   29.4060 C   0  0  0  0  0  0  0  0  0  0  0  0
  -26.4307   -0.4136   26.4457 O   0  0  0  0  0  0  0  0  0  0  0  0
  -25.6097    3.3621   30.4048 C   0  0  0  0  0  0  0  0  0  0  0  0
  -24.7795    3.0882   31.2598 O   0  0  0  0  0  0  0  0  0  0  0  0
  -26.5762    4.3339   30.5410 N   0  0  0  0  0  0  0  0  0  0  0  0
  -26.3996    5.3381   31.6280 C   0  0  0  0  0  0  0  0  0  0  0  0
  -27.5550    4.6520   29.5613 C   0  0  0  0  0  0  0  0  0  0  0  0
  -28.8290    4.7528   30.0797 C   0  0  0  0  0  0  0  0  0  0  0  0
  -29.6637    5.3391   29.3086 C   0  0  0  0  0  0  0  0  0  0  0  0
  -31.0395    5.4427   29.7379 C   0  0  0  0  0  0  0  0  0  0  0  0
  -31.4192    4.9067   30.9901 C   0  0  0  0  0  0  0  0  0  0  0  0
  -30.4902    4.2578   31.7573 C   0  0  0  0  0  0  0  0  0  0  0  0
  -29.2058    4.1706   31.3614 C   0  0  0  0  0  0  0  0  0  0  0  0
  -27.2422    4.7883   28.4379 O   0  0  0  0  0  0  0  0  0  0  0  0
  -26.1351    4.8856   32.8246 C   0  0  0  0  0  0  0  0  0  0  0  0
  -25.6789    3.9916   33.2894 C   0  0  0  0  0  0  0  0  0  0  0  0
  3  7  1  0
  7  8  1  0
  4 10  1  0
  9 10  1  0
  7 11  2  0
 10 12  1  0
 12 13  2  0
 12 14  1  0
 14 15  1  0
 14 16  1  0
 16 17  1  0
 16 23  2  0
 15 24  1  0
 24 25  2  0
  9  8  1  0
 17 18  2  0
 18 19  1  0
 19 20  2  0
 20 21  1  0
 21 22  2  0
 22 17  1  0
  1  2  2  0
  2  5  1  0
  5  6  2  0
  6  4  1  0
  4  3  2  0
  3  1  1  0
M  END

$$$$
