No_1417-gen_results/8p0m/2024-11-26-14-13-15/
     RDKit          3D

 22 25  0  0  0  0  0  0  0  0999 V2000
  -28.0162   -0.8135   28.8779 C   0  0  0  0  0  0  0  0  0  0  0  0
  -27.0636   -0.1189   28.6079 C   0  0  0  0  0  0  0  0  0  0  0  0
  -26.9716    0.7139   27.5060 C   0  0  0  0  0  0  0  0  0  0  0  0
  -25.8205    1.4909   27.1160 C   0  0  0  0  0  0  0  0  0  0  0  0
  -24.8579    1.3421   27.6008 C   0  0  0  0  0  0  0  0  0  0  0  0
  -23.5687    2.1107   27.3209 C   0  0  0  0  0  0  0  0  0  0  0  0
  -23.7824    2.7538   26.1406 N   0  0  0  0  0  0  0  0  0  0  0  0
  -25.8619   -0.1480   29.5202 C   0  0  0  0  0  0  0  0  0  0  0  0
  -24.5977    0.6202   28.9602 C   0  0  0  0  0  0  0  0  0  0  0  0
  -22.3567    1.9601   27.8197 N   0  0  0  0  0  0  0  0  0  0  0  0
  -27.9163   -1.4387   30.1272 N   0  0  0  0  0  0  0  0  0  0  0  0
  -26.0176   -0.8701   30.6293 C   0  0  0  0  0  0  0  0  0  0  0  0
  -26.9575   -1.5752   30.9733 C   0  0  0  0  0  0  0  0  0  0  0  0
  -29.2527   -2.3012   30.4966 C   0  0  0  0  0  0  0  0  0  0  0  0
  -29.1400   -3.4820   30.6356 O   0  0  0  0  0  0  0  0  0  0  0  0
  -30.2575   -1.7120   30.4929 F   0  0  0  0  0  0  0  0  0  0  0  0
  -25.9044    2.2262   25.9104 C   0  0  0  0  0  0  0  0  0  0  0  0
  -24.8205    2.9923   25.4853 C   0  0  0  0  0  0  0  0  0  0  0  0
  -28.0845    0.7735   26.7658 O   0  0  0  0  0  0  0  0  0  0  0  0
  -21.9333    1.0929   28.7313 C   0  0  0  0  0  0  0  0  0  0  0  0
  -23.3653    0.3770   29.6981 C   0  0  0  0  0  0  0  0  0  0  0  0
  -23.0391   -0.1432   30.6829 O   0  0  0  0  0  0  0  0  0  0  0  0
  2  3  1  0
  3  4  1  0
  2  8  1  0
  5  9  1  0
  8  9  1  0
  6 10  1  0
  1 11  1  0
  8 12  1  0
 11 13  1  0
 12 13  1  0
 11 14  1  0
 14 15  2  0
 14 16  1  0
  3 19  2  0
 10 20  1  0
  9 21  1  0
 20 21  1  0
 21 22  2  0
  1  2  1  0
  4  5  2  0
  5  6  1  0
  6  7  2  0
  7 18  1  0
 18 17  2  0
 17  4  1  0
M  END

$$$$
