No_125-gen_results/8p0m/2024-11-26-14-13-15/
     RDKit          3D

 15 15  0  0  0  0  0  0  0  0999 V2000
  -28.0162   -0.8135   28.8779 C   0  0  0  0  0  0  0  0  0  0  0  0
  -27.0636   -0.1190   28.6079 C   0  0  0  0  0  0  0  0  0  0  0  0
  -25.7647   -0.3897   29.0360 C   0  0  0  0  0  0  0  0  0  0  0  0
  -25.5296   -1.5302   29.9014 C   0  0  0  0  0  0  0  0  0  0  0  0
  -26.6888   -2.2893   30.1810 C   0  0  0  0  0  0  0  0  0  0  0  0
  -27.8727   -1.9508   29.7373 C   0  0  0  0  0  0  0  0  0  0  0  0
  -24.5491    0.4100   28.7341 C   0  0  0  0  0  0  0  0  0  0  0  0
  -24.4789    1.1871   27.6843 C   0  0  0  0  0  0  0  0  0  0  0  0
  -23.2716    1.8973   27.3731 C   0  0  0  0  0  0  0  0  0  0  0  0
  -22.1063    1.7032   28.0412 C   0  0  0  0  0  0  0  0  0  0  0  0
  -23.3188    0.1792   29.4669 C   0  0  0  0  0  0  0  0  0  0  0  0
  -22.1165    0.8402   29.1011 C   0  0  0  0  0  0  0  0  0  0  0  0
  -23.2363   -0.6779   30.4785 F   0  0  0  0  0  0  0  0  0  0  0  0
  -23.6301    0.0857   30.4296 F   0  0  0  0  0  0  0  0  0  0  0  0
  -20.9698    0.6201   29.6732 F   0  0  0  0  0  0  0  0  0  0  0  0
  3  7  1  0
  7  8  2  3
  8  9  1  0
  9 10  2  3
  7 11  1  0
 10 12  1  0
 11 13  1  0
 11 14  1  0
 12 15  1  0
  1  2  2  0
  2  3  1  0
  3  4  2  0
  4  5  1  0
  5  6  2  0
  6  1  1  0
M  END

$$$$
