No_1460-gen_results/8p0m/2024-11-26-14-13-15/
     RDKit          3D

 21 23  0  0  0  0  0  0  0  0999 V2000
  -28.0162   -0.8135   28.8779 C   0  0  0  0  0  0  0  0  0  0  0  0
  -27.0636   -0.1190   28.6079 C   0  0  0  0  0  0  0  0  0  0  0  0
  -27.0010    0.6913   27.4910 C   0  0  0  0  0  0  0  0  0  0  0  0
  -27.1778    1.9037   27.5632 C   0  0  0  0  0  0  0  0  0  0  0  0
  -29.3113   -0.2245   28.4756 C   0  0  0  0  0  0  0  0  0  0  0  0
  -28.7654    2.1211   27.8478 C   0  0  0  0  0  0  0  0  0  0  0  0
  -29.6074    1.1032   28.3182 C   0  0  0  0  0  0  0  0  0  0  0  0
  -25.6839   -0.7110   29.0569 C   0  0  0  0  0  0  0  0  0  0  0  0
  -25.3556   -0.5185   30.3400 C   0  0  0  0  0  0  0  0  0  0  0  0
  -24.1474   -0.9936   30.8505 C   0  0  0  0  0  0  0  0  0  0  0  0
  -23.1809   -1.0740   30.0738 C   0  0  0  0  0  0  0  0  0  0  0  0
  -23.3186   -1.0282   28.6440 C   0  0  0  0  0  0  0  0  0  0  0  0
  -24.6096   -0.7930   28.1270 C   0  0  0  0  0  0  0  0  0  0  0  0
  -28.0570   -1.8662   29.6129 O   0  0  0  0  0  0  0  0  0  0  0  0
  -26.4396    0.2304   26.2031 C   0  0  0  0  0  0  0  0  0  0  0  0
  -25.8549    1.2420   25.4780 C   0  0  0  0  0  0  0  0  0  0  0  0
  -24.6674    1.6249   25.8500 C   0  0  0  0  0  0  0  0  0  0  0  0
  -23.4288    1.5120   25.4714 C   0  0  0  0  0  0  0  0  0  0  0  0
  -22.3175    2.1869   26.1157 C   0  0  0  0  0  0  0  0  0  0  0  0
  -24.4757    2.6436   27.0607 C   0  0  0  0  0  0  0  0  0  0  0  0
  -23.1244    2.8109   27.1307 N   0  0  0  0  0  0  0  0  0  0  0  0
  1  2  1  0
  2  3  1  0
  3  4  2  0
  1  5  1  0
  4  6  1  0
  5  7  2  0
  6  7  2  0
  2  8  1  0
  1 14  2  0
  3 15  1  0
 15 16  1  0
 16 17  1  0
 17 18  1  0
 18 19  2  0
 17 20  1  0
 19 21  1  0
 20 21  2  0
  8  9  2  0
  9 10  1  0
 10 11  2  0
 11 12  1  0
 12 13  2  0
 13  8  1  0
M  END

$$$$
