No_1930-gen_results/8p0m/2024-11-26-14-13-15/
     RDKit          3D

 35 37  0  0  0  0  0  0  0  0999 V2000
  -28.0162   -0.8135   28.8779 C   0  0  0  0  0  0  0  0  0  0  0  0
  -27.0636   -0.1189   28.6079 C   0  0  0  0  0  0  0  0  0  0  0  0
  -25.7647   -0.3897   29.0360 C   0  0  0  0  0  0  0  0  0  0  0  0
  -25.5296   -1.5302   29.9014 C   0  0  0  0  0  0  0  0  0  0  0  0
  -26.6888   -2.2893   30.1810 C   0  0  0  0  0  0  0  0  0  0  0  0
  -27.8727   -1.9508   29.7373 C   0  0  0  0  0  0  0  0  0  0  0  0
  -24.7724    0.5231   28.6920 N   0  0  0  0  0  0  0  0  0  0  0  0
  -23.5400    0.2571   29.0905 C   0  0  0  0  0  0  0  0  0  0  0  0
  -22.5577    1.1667   28.4950 C   0  0  0  0  0  0  0  0  0  0  0  0
  -25.0193    1.7893   28.3727 C   0  0  0  0  0  0  0  0  0  0  0  0
  -24.2576    2.3960   27.6133 C   0  0  0  0  0  0  0  0  0  0  0  0
  -21.0919    0.8554   28.6609 C   0  0  0  0  0  0  0  0  0  0  0  0
  -22.8777    2.2877   27.7274 C   0  0  0  0  0  0  0  0  0  0  0  0
  -28.9310   -2.8960   30.2586 C   0  0  0  0  0  0  0  0  0  0  0  0
  -28.6611   -4.1450   30.3049 F   0  0  0  0  0  0  0  0  0  0  0  0
  -30.0030   -2.7231   29.4419 F   0  0  0  0  0  0  0  0  0  0  0  0
  -29.2717   -2.5038   31.5134 F   0  0  0  0  0  0  0  0  0  0  0  0
  -24.5799    3.7727   26.9632 C   0  0  0  0  0  0  0  0  0  0  0  0
  -25.2919    4.6787   27.6671 C   0  0  0  0  0  0  0  0  0  0  0  0
  -25.4971    5.9510   27.1147 C   0  0  0  0  0  0  0  0  0  0  0  0
  -26.1851    6.9722   27.8095 C   0  0  0  0  0  0  0  0  0  0  0  0
  -26.8007    6.6665   29.0246 C   0  0  0  0  0  0  0  0  0  0  0  0
  -26.6544    5.3825   29.5264 C   0  0  0  0  0  0  0  0  0  0  0  0
  -25.8992    4.4319   28.9110 C   0  0  0  0  0  0  0  0  0  0  0  0
  -27.3159    5.0524   30.8627 C   0  0  0  0  0  0  0  0  0  0  0  0
  -28.2347    5.2452   31.2719 F   0  0  0  0  0  0  0  0  0  0  0  0
  -26.2677    5.4921   31.7690 F   0  0  0  0  0  0  0  0  0  0  0  0
  -26.9583    3.6149   31.0023 F   0  0  0  0  0  0  0  0  0  0  0  0
  -20.7863   -0.4134   28.8623 O   0  0  0  0  0  0  0  0  0  0  0  0
  -20.1844    1.5867   28.0040 O   0  0  0  0  0  0  0  0  0  0  0  0
  -24.5327    3.7379   25.6710 O   0  0  0  0  0  0  0  0  0  0  0  0
  -26.2829    8.3331   27.2563 C   0  0  0  0  0  0  0  0  0  0  0  0
  -27.4671    8.7364   27.4695 F   0  0  0  0  0  0  0  0  0  0  0  0
  -25.4203    9.1216   27.8600 F   0  0  0  0  0  0  0  0  0  0  0  0
  -25.9695    8.2955   25.9700 F   0  0  0  0  0  0  0  0  0  0  0  0
  3  7  1  0
  7  8  1  0
  7 10  1  0
  9 12  1  0
  9 13  1  0
 11 13  1  0
  6 14  1  0
 14 15  1  0
 14 16  1  0
 14 17  1  0
 11 18  1  0
 18 19  1  0
 23 25  1  0
 25 26  1  0
 25 27  1  0
 25 28  1  0
 12 29  2  0
 12 30  1  0
 18 31  2  0
 21 32  1  0
 32 33  1  0
 32 34  1  0
 32 35  1  0
  8  9  1  0
 11 10  1  0
  1  2  2  0
  2  3  1  0
  3  4  2  0
  4  5  1  0
  5  6  2  0
  6  1  1  0
 19 20  2  0
 20 21  1  0
 21 22  2  0
 22 23  1  0
 23 24  2  0
 24 19  1  0
M  END

$$$$
