No_1495-gen_results/8p0m/2024-11-26-14-13-15/
     RDKit          3D

  8  7  0  0  0  0  0  0  0  0999 V2000
  -28.0727   -1.2542   28.5316 F   0  0  0  0  0  0  0  0  0  0  0  0
  -27.3591   -0.3792   28.7224 C   0  0  0  0  0  0  0  0  0  0  0  0
  -26.9761   -0.0935   27.6617 F   0  0  0  0  0  0  0  0  0  0  0  0
  -27.9492    0.6817   29.3005 F   0  0  0  0  0  0  0  0  0  0  0  0
  -26.1865   -0.8372   29.5966 C   0  0  0  0  0  0  0  0  0  0  0  0
  -25.4080    0.1754   30.1801 C   0  0  0  0  0  0  0  0  0  0  0  0
  -24.5037    0.7437   29.3967 C   0  0  0  0  0  0  0  0  0  0  0  0
  -24.4293    0.7189   28.1157 C   0  0  0  0  0  0  0  0  0  0  0  0
  1  2  1  0
  2  3  1  0
  2  4  1  0
  2  5  1  0
  5  6  1  0
  6  7  1  0
  7  8  2  0
M  END

$$$$
