No_1328-gen_results/8p0m/2024-11-26-14-13-15/
     RDKit          3D

 28 31  0  0  0  0  0  0  0  0999 V2000
  -28.0162   -0.8135   28.8779 C   0  0  0  0  0  0  0  0  0  0  0  0
  -28.4690   -0.7850   29.8287 C   0  0  0  0  0  0  0  0  0  0  0  0
  -26.5042   -0.7777   28.8766 C   0  0  0  0  0  0  0  0  0  0  0  0
  -25.8103   -0.8531   30.1028 C   0  0  0  0  0  0  0  0  0  0  0  0
  -27.9906   -0.8916   31.2257 C   0  0  0  0  0  0  0  0  0  0  0  0
  -26.6042   -0.8676   31.2652 C   0  0  0  0  0  0  0  0  0  0  0  0
  -29.9538   -0.7893   29.6417 N   0  0  0  0  0  0  0  0  0  0  0  0
  -30.5157   -0.0312   28.8183 C   0  0  0  0  0  0  0  0  0  0  0  0
  -31.7837   -0.4577   28.4284 C   0  0  0  0  0  0  0  0  0  0  0  0
  -30.7427   -1.7344   30.4415 C   0  0  0  0  0  0  0  0  0  0  0  0
  -31.9850   -2.0587   29.9802 C   0  0  0  0  0  0  0  0  0  0  0  0
  -32.3843    0.3374   27.3150 C   0  0  0  0  0  0  0  0  0  0  0  0
  -32.4916   -1.4149   29.0118 C   0  0  0  0  0  0  0  0  0  0  0  0
  -32.6244    1.5287   27.5491 N   0  0  0  0  0  0  0  0  0  0  0  0
  -33.0565    2.3915   26.7538 C   0  0  0  0  0  0  0  0  0  0  0  0
  -32.5997   -0.2628   26.2411 O   0  0  0  0  0  0  0  0  0  0  0  0
  -24.3717   -0.8421   30.1390 C   0  0  0  0  0  0  0  0  0  0  0  0
  -23.6195   -0.4566   29.0784 C   0  0  0  0  0  0  0  0  0  0  0  0
  -22.5586    0.2161   29.0644 C   0  0  0  0  0  0  0  0  0  0  0  0
  -22.0244    0.7803   27.8751 C   0  0  0  0  0  0  0  0  0  0  0  0
  -22.9313    1.0905   26.8267 C   0  0  0  0  0  0  0  0  0  0  0  0
  -24.2204    0.6002   26.8824 C   0  0  0  0  0  0  0  0  0  0  0  0
  -24.6329   -0.1188   27.9778 C   0  0  0  0  0  0  0  0  0  0  0  0
  -25.8141   -0.3758   27.8382 N   0  0  0  0  0  0  0  0  0  0  0  0
  -25.0237    0.8609   25.7625 C   0  0  0  0  0  0  0  0  0  0  0  0
  -33.1712    3.5953   27.0545 C   0  0  0  0  0  0  0  0  0  0  0  0
  -32.8513    4.1311   28.3266 C   0  0  0  0  0  0  0  0  0  0  0  0
  -32.3260    3.1481   29.2260 C   0  0  0  0  0  0  0  0  0  0  0  0
  2  7  1  0
  7  8  1  0
  8  9  1  0
  7 10  1  0
  9 12  1  0
  9 13  1  0
 11 13  1  0
 12 14  1  0
 14 15  2  3
 12 16  2  0
 22 25  1  0
 15 26  1  0
 26 27  2  3
 27 28  1  0
 11 10  1  0
 18 19  1  0
 19 20  2  0
 20 21  1  0
 21 22  2  0
 22 23  1  0
  1  2  2  0
  2  5  1  0
  5  6  2  0
  6  4  1  0
  3  1  1  0
  3  4  2  0
  4 17  1  0
 17 18  2  0
 18 23  1  0
 23 24  2  0
 24  3  1  0
M  END

$$$$
