No_1807-gen_results/8p0m/2024-11-26-14-13-15/
     RDKit          3D

 35 39  0  0  0  0  0  0  0  0999 V2000
  -28.0162   -0.8135   28.8779 C   0  0  0  0  0  0  0  0  0  0  0  0
  -28.4690   -0.7850   29.8287 C   0  0  0  0  0  0  0  0  0  0  0  0
  -26.5455   -0.8762   28.8500 C   0  0  0  0  0  0  0  0  0  0  0  0
  -25.6825   -0.7773   27.6829 C   0  0  0  0  0  0  0  0  0  0  0  0
  -29.9909   -0.7300   29.9814 C   0  0  0  0  0  0  0  0  0  0  0  0
  -24.2640   -0.7731   27.9513 C   0  0  0  0  0  0  0  0  0  0  0  0
  -23.7548   -0.9500   29.2468 C   0  0  0  0  0  0  0  0  0  0  0  0
  -25.6279   -1.0194   30.0116 C   0  0  0  0  0  0  0  0  0  0  0  0
  -24.4691   -1.0218   30.2986 C   0  0  0  0  0  0  0  0  0  0  0  0
  -30.6810   -1.1403   31.0486 C   0  0  0  0  0  0  0  0  0  0  0  0
  -29.9624   -1.3797   32.2797 C   0  0  0  0  0  0  0  0  0  0  0  0
  -28.6140   -1.4770   32.2893 C   0  0  0  0  0  0  0  0  0  0  0  0
  -27.9235   -1.3059   31.1768 C   0  0  0  0  0  0  0  0  0  0  0  0
  -26.6728   -1.2312   31.2211 N   0  0  0  0  0  0  0  0  0  0  0  0
  -22.1869   -0.8923   29.2221 C   0  0  0  0  0  0  0  0  0  0  0  0
  -21.5877    0.0414   28.6720 O   0  0  0  0  0  0  0  0  0  0  0  0
  -30.6235   -0.4620   28.8860 O   0  0  0  0  0  0  0  0  0  0  0  0
  -30.5432    0.7396   28.3043 C   0  0  0  0  0  0  0  0  0  0  0  0
  -30.6111    0.7462   26.9043 C   0  0  0  0  0  0  0  0  0  0  0  0
  -30.1047    1.8569   26.2398 C   0  0  0  0  0  0  0  0  0  0  0  0
  -29.6769    3.0249   26.8777 C   0  0  0  0  0  0  0  0  0  0  0  0
  -29.6288    2.9469   28.2831 C   0  0  0  0  0  0  0  0  0  0  0  0
  -29.9285    1.7910   28.9768 C   0  0  0  0  0  0  0  0  0  0  0  0
  -31.0461   -0.3616   26.1653 C   0  0  0  0  0  0  0  0  0  0  0  0
  -30.4869   -0.7332   25.1356 O   0  0  0  0  0  0  0  0  0  0  0  0
  -32.2122   -0.8595   26.4302 O   0  0  0  0  0  0  0  0  0  0  0  0
  -29.1930    4.1973   29.0313 C   0  0  0  0  0  0  0  0  0  0  0  0
  -29.4578    4.3417   30.2232 C   0  0  0  0  0  0  0  0  0  0  0  0
  -30.2402    3.5121   31.0064 C   0  0  0  0  0  0  0  0  0  0  0  0
  -30.3777    2.1538   30.3784 C   0  0  0  0  0  0  0  0  0  0  0  0
  -30.4256    3.5626   32.4278 C   0  0  0  0  0  0  0  0  0  0  0  0
  -31.3241    4.4277   32.8723 C   0  0  0  0  0  0  0  0  0  0  0  0
  -31.6164    4.4522   34.2140 C   0  0  0  0  0  0  0  0  0  0  0  0
  -29.2378    3.4683   33.2273 C   0  0  0  0  0  0  0  0  0  0  0  0
  -29.4748    3.4612   34.6697 C   0  0  0  0  0  0  0  0  0  0  0  0
  7 15  1  0
 15 16  2  0
  5 17  1  0
 17 18  1  0
 19 24  1  0
 24 25  2  0
 24 26  1  0
 29 31  1  0
 31 32  1  0
 32 33  2  0
 31 34  1  0
 34 35  2  0
 18 19  2  0
 19 20  1  0
 20 21  2  0
 21 22  1  0
 23 18  1  0
  3  4  2  0
  4  6  1  0
  6  7  2  0
  7  9  1  0
  9  8  2  0
  2  5  1  0
  5 10  2  0
 10 11  1  0
 11 12  2  0
 12 13  1  0
 22 23  2  0
 23 30  1  0
 30 29  2  0
 29 28  1  0
 28 27  2  0
 27 22  1  0
  1  2  2  0
  2 13  1  0
 13 14  2  0
 14  8  1  0
  8  3  1  0
  3  1  1  0
M  END

$$$$
