No_1252-gen_results/8p0m/2024-11-26-14-13-15/
     RDKit          3D

 14 15  0  0  0  0  0  0  0  0999 V2000
  -28.0162   -0.8135   28.8779 C   0  0  0  0  0  0  0  0  0  0  0  0
  -27.0636   -0.1189   28.6079 C   0  0  0  0  0  0  0  0  0  0  0  0
  -27.0010    0.6913   27.4910 C   0  0  0  0  0  0  0  0  0  0  0  0
  -28.1373    0.7363   26.6350 C   0  0  0  0  0  0  0  0  0  0  0  0
  -29.2360    0.0765   27.0690 C   0  0  0  0  0  0  0  0  0  0  0  0
  -29.2177   -0.6429   28.1747 C   0  0  0  0  0  0  0  0  0  0  0  0
  -30.4152    0.1590   26.1819 C   0  0  0  0  0  0  0  0  0  0  0  0
  -31.4540   -0.5158   26.5659 C   0  0  0  0  0  0  0  0  0  0  0  0
  -31.5535   -1.0981   27.8263 C   0  0  0  0  0  0  0  0  0  0  0  0
  -30.4299   -1.2643   28.5772 C   0  0  0  0  0  0  0  0  0  0  0  0
  -25.6910    1.3881   27.0841 C   0  0  0  0  0  0  0  0  0  0  0  0
  -24.6493    0.9280   27.6344 N   0  0  0  0  0  0  0  0  0  0  0  0
  -23.8405    1.5515   28.2041 C   0  0  0  0  0  0  0  0  0  0  0  0
  -22.5002    0.9175   28.6648 C   0  0  0  0  0  0  0  0  0  0  0  0
  3 11  1  0
 11 12  1  0
 12 13  1  0
 13 14  2  0
  1  2  2  0
  2  3  1  0
  3  4  2  0
  4  5  1  0
  6  1  1  0
  5  6  2  0
  6 10  1  0
 10  9  2  0
  9  8  1  0
  8  7  2  0
  7  5  1  0
M  END

$$$$
