No_1759-gen_results/8p0m/2024-11-26-14-13-15/
     RDKit          3D

 17 18  0  0  0  0  0  0  0  0999 V2000
  -28.0162   -0.8135   28.8779 C   0  0  0  0  0  0  0  0  0  0  0  0
  -27.0636   -0.1189   28.6079 C   0  0  0  0  0  0  0  0  0  0  0  0
  -26.9716    0.7139   27.5060 C   0  0  0  0  0  0  0  0  0  0  0  0
  -25.8205    1.4909   27.1160 C   0  0  0  0  0  0  0  0  0  0  0  0
  -24.6562    1.4242   27.9180 C   0  0  0  0  0  0  0  0  0  0  0  0
  -24.6847    0.5901   29.0659 C   0  0  0  0  0  0  0  0  0  0  0  0
  -25.8099   -0.1265   29.3338 C   0  0  0  0  0  0  0  0  0  0  0  0
  -28.0445   -1.5734   30.1690 C   0  0  0  0  0  0  0  0  0  0  0  0
  -26.8172   -1.7595   30.8704 C   0  0  0  0  0  0  0  0  0  0  0  0
  -25.7477   -0.9917   30.5376 C   0  0  0  0  0  0  0  0  0  0  0  0
  -23.3500    1.8408   27.5433 C   0  0  0  0  0  0  0  0  0  0  0  0
  -22.2411    1.6530   28.2435 N   0  0  0  0  0  0  0  0  0  0  0  0
  -23.2359    2.6922   26.4265 N   0  0  0  0  0  0  0  0  0  0  0  0
  -28.0891    0.8406   26.5439 C   0  0  0  0  0  0  0  0  0  0  0  0
  -27.9728    0.8235   25.3162 N   0  0  0  0  0  0  0  0  0  0  0  0
  -29.2423    0.4805   27.0310 O   0  0  0  0  0  0  0  0  0  0  0  0
  -28.9497    0.7986   24.2934 C   0  0  0  0  0  0  0  0  0  0  0  0
  5 11  1  0
 11 12  2  0
 11 13  1  0
  3 14  1  0
 14 15  1  0
 14 16  2  0
 15 17  1  0
  2  3  1  0
  3  4  2  0
  4  5  1  0
  5  6  2  0
  6  7  1  0
  1  2  2  0
  2  7  1  0
  7 10  2  0
 10  9  1  0
  9  8  2  0
  8  1  1  0
M  END

$$$$
