No_1118-gen_results/8p0m/2024-11-26-14-13-15/
     RDKit          3D

 18 19  0  0  0  0  0  0  0  0999 V2000
  -28.0162   -0.8135   28.8779 C   0  0  0  0  0  0  0  0  0  0  0  0
  -27.0636   -0.1190   28.6079 C   0  0  0  0  0  0  0  0  0  0  0  0
  -25.7647   -0.3897   29.0360 C   0  0  0  0  0  0  0  0  0  0  0  0
  -24.5516    0.4058   28.7646 C   0  0  0  0  0  0  0  0  0  0  0  0
  -24.6957    1.4480   27.7988 C   0  0  0  0  0  0  0  0  0  0  0  0
  -23.6098    2.2430   27.4348 C   0  0  0  0  0  0  0  0  0  0  0  0
  -22.3389    1.8613   27.9444 C   0  0  0  0  0  0  0  0  0  0  0  0
  -22.1755    0.8566   28.8491 C   0  0  0  0  0  0  0  0  0  0  0  0
  -23.3105    0.0894   29.2367 C   0  0  0  0  0  0  0  0  0  0  0  0
  -27.8890   -1.8961   29.8630 C   0  0  0  0  0  0  0  0  0  0  0  0
  -26.6448   -2.3275   30.2761 C   0  0  0  0  0  0  0  0  0  0  0  0
  -25.5282   -1.5495   29.9084 C   0  0  0  0  0  0  0  0  0  0  0  0
  -29.0472   -2.7243   30.2569 C   0  0  0  0  0  0  0  0  0  0  0  0
  -28.9712   -3.9394   30.2791 O   0  0  0  0  0  0  0  0  0  0  0  0
  -30.1666   -2.1142   30.6549 N   0  0  0  0  0  0  0  0  0  0  0  0
  -31.3410   -2.8821   31.0828 C   0  0  0  0  0  0  0  0  0  0  0  0
  -31.3421   -3.8235   31.7422 C   0  0  0  0  0  0  0  0  0  0  0  0
  -32.5147   -4.5449   32.1816 C   0  0  0  0  0  0  0  0  0  0  0  0
  3  4  1  0
 10 13  1  0
 13 14  2  0
 13 15  1  0
 15 16  1  0
 16 17  2  3
 17 18  1  0
  1  2  2  0
  2  3  1  0
  3 12  2  0
 12 11  1  0
 11 10  2  0
 10  1  1  0
  4  5  2  0
  5  6  1  0
  6  7  2  0
  7  8  1  0
  8  9  2  0
  9  4  1  0
M  END

$$$$
