No_1003-gen_results/8p0m/2024-11-26-14-13-15/
     RDKit          3D

 35 38  0  0  0  0  0  0  0  0999 V2000
  -28.0162   -0.8135   28.8779 C   0  0  0  0  0  0  0  0  0  0  0  0
  -27.0636   -0.1190   28.6079 C   0  0  0  0  0  0  0  0  0  0  0  0
  -25.7923   -0.4302   29.0761 C   0  0  0  0  0  0  0  0  0  0  0  0
  -24.5456    0.3494   28.8225 C   0  0  0  0  0  0  0  0  0  0  0  0
  -24.6586    1.4196   27.8878 C   0  0  0  0  0  0  0  0  0  0  0  0
  -25.9471    1.6811   27.3792 C   0  0  0  0  0  0  0  0  0  0  0  0
  -27.0439    0.9739   27.6871 C   0  0  0  0  0  0  0  0  0  0  0  0
  -28.6597   -0.4600   30.2006 C   0  0  0  0  0  0  0  0  0  0  0  0
  -29.7497   -1.2486   30.6773 C   0  0  0  0  0  0  0  0  0  0  0  0
  -23.4472    2.1466   27.5918 C   0  0  0  0  0  0  0  0  0  0  0  0
  -22.2595    1.7395   28.0790 N   0  0  0  0  0  0  0  0  0  0  0  0
  -23.5252    2.9897   26.6724 F   0  0  0  0  0  0  0  0  0  0  0  0
  -30.2131   -2.1860   29.9106 C   0  0  0  0  0  0  0  0  0  0  0  0
  -31.3379   -2.9359   30.4778 C   0  0  0  0  0  0  0  0  0  0  0  0
  -31.8338   -2.6381   31.6744 C   0  0  0  0  0  0  0  0  0  0  0  0
  -31.3333   -1.6487   32.4614 C   0  0  0  0  0  0  0  0  0  0  0  0
  -30.2628   -0.9041   31.9963 C   0  0  0  0  0  0  0  0  0  0  0  0
  -28.1290    0.6300   31.0311 C   0  0  0  0  0  0  0  0  0  0  0  0
  -27.2399    1.5010   30.6918 C   0  0  0  0  0  0  0  0  0  0  0  0
  -26.9214    2.5095   31.3177 C   0  0  0  0  0  0  0  0  0  0  0  0
  -27.4762    2.7555   32.6119 C   0  0  0  0  0  0  0  0  0  0  0  0
  -28.4283    1.8739   33.1003 C   0  0  0  0  0  0  0  0  0  0  0  0
  -28.7803    0.8426   32.3146 C   0  0  0  0  0  0  0  0  0  0  0  0
  -29.8164   -0.0339   32.6889 C   0  0  0  0  0  0  0  0  0  0  0  0
  -25.8381    3.5381   30.9530 C   0  0  0  0  0  0  0  0  0  0  0  0
  -24.9659    3.9220   31.6326 N   0  0  0  0  0  0  0  0  0  0  0  0
  -25.7399    3.7906   29.6308 O   0  0  0  0  0  0  0  0  0  0  0  0
  -31.8333   -3.9150   29.6651 O   0  0  0  0  0  0  0  0  0  0  0  0
  -31.4235   -4.5662   28.8385 C   0  0  0  0  0  0  0  0  0  0  0  0
  -30.5810   -5.7210   29.1736 C   0  0  0  0  0  0  0  0  0  0  0  0
  -31.7239   -4.5316   27.4222 C   0  0  0  0  0  0  0  0  0  0  0  0
  -32.2758   -3.4971   26.9728 O   0  0  0  0  0  0  0  0  0  0  0  0
  -31.3753   -5.4259   26.6097 O   0  0  0  0  0  0  0  0  0  0  0  0
  -30.3194    0.2461   33.9192 O   0  0  0  0  0  0  0  0  0  0  0  0
  -28.2970    1.3936   27.0152 C   0  0  0  0  0  0  0  0  0  0  0  0
  1  2  1  0
  1  8  1  0
  8  9  1  0
  5 10  1  0
 10 11  2  0
 10 12  1  0
  8 18  1  0
 17 24  1  0
 23 24  1  0
 20 25  1  0
 25 26  1  0
 25 27  2  0
 14 28  1  0
 28 29  1  0
 29 30  2  0
 29 31  1  0
 31 32  2  0
 31 33  1  0
 24 34  2  0
  7 35  1  0
 18 19  2  0
 19 20  1  0
 20 21  2  0
 21 22  1  0
 22 23  2  0
 23 18  1  0
  2  3  2  0
  3  4  1  0
  4  5  2  0
  5  6  1  0
  6  7  2  0
  7  2  1  0
  9 13  2  0
 13 14  1  0
 14 15  2  0
 15 16  1  0
 16 17  2  0
 17  9  1  0
M  END

$$$$
