No_2388-gen_results/8p0m/2024-11-26-14-13-15/
     RDKit          3D

 21 21  0  0  0  0  0  0  0  0999 V2000
  -28.0162   -0.8135   28.8779 C   0  0  0  0  0  0  0  0  0  0  0  0
  -27.0636   -0.1189   28.6079 C   0  0  0  0  0  0  0  0  0  0  0  0
  -25.7923   -0.4302   29.0761 C   0  0  0  0  0  0  0  0  0  0  0  0
  -24.5456    0.3494   28.8225 C   0  0  0  0  0  0  0  0  0  0  0  0
  -23.2409    0.0217   29.3323 C   0  0  0  0  0  0  0  0  0  0  0  0
  -27.8820   -1.8995   29.8633 C   0  0  0  0  0  0  0  0  0  0  0  0
  -26.6706   -2.3272   30.3212 C   0  0  0  0  0  0  0  0  0  0  0  0
  -25.5433   -1.5852   29.9316 C   0  0  0  0  0  0  0  0  0  0  0  0
  -22.1918    0.8302   29.0004 C   0  0  0  0  0  0  0  0  0  0  0  0
  -22.1472    1.7783   28.0287 C   0  0  0  0  0  0  0  0  0  0  0  0
  -24.5322    1.3987   27.8163 C   0  0  0  0  0  0  0  0  0  0  0  0
  -23.3620    2.0694   27.4607 C   0  0  0  0  0  0  0  0  0  0  0  0
  -23.5308    3.2718   26.2287 Cl  0  0  0  0  0  0  0  0  0  0  0  0
  -24.1921    2.9507   27.0604 Br  0  0  0  0  0  0  0  0  0  0  0  0
  -25.4740    0.7978   26.7722 O   0  0  0  0  0  0  0  0  0  0  0  0
  -25.6052    1.9030   28.8072 C   0  0  0  0  0  0  0  0  0  0  0  0
  -26.7676    1.8599   28.9793 C   0  0  0  0  0  0  0  0  0  0  0  0
  -27.2563    1.0637   29.0503 F   0  0  0  0  0  0  0  0  0  0  0  0
  -26.9086   -0.2320   27.1946 O   0  0  0  0  0  0  0  0  0  0  0  0
  -25.3217    0.6098   25.4414 C   0  0  0  0  0  0  0  0  0  0  0  0
  -27.5776   -0.1924   26.1626 C   0  0  0  0  0  0  0  0  0  0  0  0
  3  4  1  0
  4  5  2  3
  5  9  1  0
  9 10  2  3
  4 11  1  0
 10 12  1  0
 12 13  1  0
 12 14  1  0
 11 15  1  0
 11 16  1  0
 16 17  2  3
 17 18  1  0
  2 19  1  0
 15 20  1  0
 19 21  1  0
  1  2  2  0
  2  3  1  0
  3  8  2  0
  8  7  1  0
  7  6  2  0
  6  1  1  0
M  END

$$$$
