No_203-gen_results/8p0m/2024-11-26-14-13-15/
     RDKit          3D

 33 35  0  0  0  0  0  0  0  0999 V2000
  -28.0162   -0.8135   28.8779 C   0  0  0  0  0  0  0  0  0  0  0  0
  -28.4690   -0.7850   29.8287 C   0  0  0  0  0  0  0  0  0  0  0  0
  -28.1816    0.4277   28.1134 C   0  0  0  0  0  0  0  0  0  0  0  0
  -28.9841    1.4155   28.5154 C   0  0  0  0  0  0  0  0  0  0  0  0
  -29.3802    0.1384   30.4612 C   0  0  0  0  0  0  0  0  0  0  0  0
  -29.5415    1.2736   29.7242 C   0  0  0  0  0  0  0  0  0  0  0  0
  -27.4586    0.4934   26.7701 C   0  0  0  0  0  0  0  0  0  0  0  0
  -26.0264    0.3840   26.7617 C   0  0  0  0  0  0  0  0  0  0  0  0
  -25.2257    1.3507   27.3721 C   0  0  0  0  0  0  0  0  0  0  0  0
  -23.8242    1.1314   27.4773 C   0  0  0  0  0  0  0  0  0  0  0  0
  -23.1494    1.3831   28.5698 C   0  0  0  0  0  0  0  0  0  0  0  0
  -23.7348    2.0152   29.6428 C   0  0  0  0  0  0  0  0  0  0  0  0
  -25.1261    2.2181   29.6400 C   0  0  0  0  0  0  0  0  0  0  0  0
  -25.8411    1.7367   28.5977 C   0  0  0  0  0  0  0  0  0  0  0  0
  -25.7537    2.8088   30.8774 C   0  0  0  0  0  0  0  0  0  0  0  0
  -25.2617    3.8307   31.2602 O   0  0  0  0  0  0  0  0  0  0  0  0
  -26.8865    2.3179   31.2673 O   0  0  0  0  0  0  0  0  0  0  0  0
  -28.2274    0.7042   25.6573 C   0  0  0  0  0  0  0  0  0  0  0  0
  -28.7331    1.6324   25.3371 O   0  0  0  0  0  0  0  0  0  0  0  0
  -28.2290   -0.3593   24.7887 O   0  0  0  0  0  0  0  0  0  0  0  0
  -21.4047    1.2474   28.4755 Cl  0  0  0  0  0  0  0  0  0  0  0  0
  -28.2877   -2.0972   30.7997 C   0  0  0  0  0  0  0  0  0  0  0  0
  -27.2058   -2.4898   30.9146 O   0  0  0  0  0  0  0  0  0  0  0  0
  -29.3763   -2.7875   31.0694 O   0  0  0  0  0  0  0  0  0  0  0  0
  -29.2975   -4.1318   31.1099 C   0  0  0  0  0  0  0  0  0  0  0  0
  -29.5373   -4.6860   29.7541 C   0  0  0  0  0  0  0  0  0  0  0  0
  -30.5915   -5.4974   29.7152 O   0  0  0  0  0  0  0  0  0  0  0  0
  -31.1753   -5.6177   28.4779 C   0  0  0  0  0  0  0  0  0  0  0  0
  -31.6890   -6.3029   27.8998 C   0  0  0  0  0  0  0  0  0  0  0  0
  -32.2244   -6.2271   26.5419 C   0  0  0  0  0  0  0  0  0  0  0  0
  -32.3393   -4.9390   26.0334 C   0  0  0  0  0  0  0  0  0  0  0  0
  -31.8683   -3.8931   26.7664 C   0  0  0  0  0  0  0  0  0  0  0  0
  -31.2964   -4.0871   28.0444 C   0  0  0  0  0  0  0  0  0  0  0  0
  3  7  1  0
  7  8  1  0
 13 15  1  0
 15 16  1  0
 15 17  2  0
  7 18  1  0
 18 19  2  0
 18 20  1  0
 11 21  1  0
  2 22  1  0
 22 23  2  0
 22 24  1  0
 24 25  1  0
 25 26  1  0
 26 27  1  0
 27 28  1  0
  8  9  1  0
  9 10  2  0
 10 11  1  0
 11 12  2  0
 12 13  1  0
 13 14  2  0
 14  9  1  0
 28 29  2  0
 29 30  1  0
 30 31  2  0
 31 32  1  0
 32 33  2  0
 33 28  1  0
  1  2  2  0
  2  5  1  0
  5  6  2  0
  6  4  1  0
  4  3  2  0
  3  1  1  0
M  END

$$$$
