No_2156-gen_results/8p0m/2024-11-26-14-13-15/
     RDKit          3D

 13 14  0  0  0  0  0  0  0  0999 V2000
  -28.1493   -0.8198   28.9079 Cl  0  0  0  0  0  0  0  0  0  0  0  0
  -26.9116   -0.0797   28.9452 C   0  0  0  0  0  0  0  0  0  0  0  0
  -25.9665   -0.2123   29.6235 C   0  0  0  0  0  0  0  0  0  0  0  0
  -24.7040    0.5534   29.6218 C   0  0  0  0  0  0  0  0  0  0  0  0
  -23.5065    0.4257   30.4049 C   0  0  0  0  0  0  0  0  0  0  0  0
  -23.5620   -0.6559   31.2829 C   0  0  0  0  0  0  0  0  0  0  0  0
  -24.6801   -1.4685   31.4122 C   0  0  0  0  0  0  0  0  0  0  0  0
  -25.7403   -1.3148   30.6188 C   0  0  0  0  0  0  0  0  0  0  0  0
  -26.7467    0.9896   27.8022 C   0  0  0  0  0  0  0  0  0  0  0  0
  -25.7583    1.6633   27.5435 N   0  0  0  0  0  0  0  0  0  0  0  0
  -24.6104    1.5455   28.4931 C   0  0  0  0  0  0  0  0  0  0  0  0
  -23.5905    2.3358   28.3259 F   0  0  0  0  0  0  0  0  0  0  0  0
  -27.8397    1.1655   27.1289 F   0  0  0  0  0  0  0  0  0  0  0  0
  1  2  1  0
 11 12  1  0
  9 13  1  0
  2  3  2  0
  4 11  2  0
 11 10  1  0
 10  9  2  0
  9  2  1  0
  3  4  1  0
  4  5  1  0
  5  6  2  0
  6  7  1  0
  7  8  2  0
  8  3  1  0
M  END

$$$$
