No_2711-gen_results/8p0m/2024-11-26-14-13-15/
     RDKit          3D

 25 28  0  0  0  0  0  0  0  0999 V2000
  -28.0162   -0.8135   28.8779 C   0  0  0  0  0  0  0  0  0  0  0  0
  -28.4690   -0.7850   29.8287 C   0  0  0  0  0  0  0  0  0  0  0  0
  -28.1816    0.4277   28.1134 C   0  0  0  0  0  0  0  0  0  0  0  0
  -27.4498    0.6435   26.8500 C   0  0  0  0  0  0  0  0  0  0  0  0
  -27.8596    1.4573   25.9076 C   0  0  0  0  0  0  0  0  0  0  0  0
  -29.4263    0.1097   30.4178 C   0  0  0  0  0  0  0  0  0  0  0  0
  -29.6233    1.2198   29.7351 C   0  0  0  0  0  0  0  0  0  0  0  0
  -28.9609    1.4529   28.5513 C   0  0  0  0  0  0  0  0  0  0  0  0
  -27.1733    1.5743   24.7028 C   0  0  0  0  0  0  0  0  0  0  0  0
  -26.0892    0.7468   24.4126 C   0  0  0  0  0  0  0  0  0  0  0  0
  -25.6364   -0.1191   25.3972 C   0  0  0  0  0  0  0  0  0  0  0  0
  -26.2807   -0.2063   26.5817 C   0  0  0  0  0  0  0  0  0  0  0  0
  -30.6758    2.4766   30.3234 Cl  0  0  0  0  0  0  0  0  0  0  0  0
  -28.2794   -2.1430   30.7156 C   0  0  0  0  0  0  0  0  0  0  0  0
  -28.8515   -2.7864   31.2807 N   0  0  0  0  0  0  0  0  0  0  0  0
  -26.8995   -2.6387   30.5315 N   0  0  0  0  0  0  0  0  0  0  0  0
  -28.2926   -4.0106   31.4474 C   0  0  0  0  0  0  0  0  0  0  0  0
  -27.1718   -3.9905   30.7467 N   0  0  0  0  0  0  0  0  0  0  0  0
  -25.7374   -2.1672   29.9744 C   0  0  0  0  0  0  0  0  0  0  0  0
  -25.0094   -1.2293   30.7513 C   0  0  0  0  0  0  0  0  0  0  0  0
  -25.1966   -2.4416   28.7997 C   0  0  0  0  0  0  0  0  0  0  0  0
  -23.7916   -0.7061   30.3595 C   0  0  0  0  0  0  0  0  0  0  0  0
  -23.2591   -1.0971   29.1518 C   0  0  0  0  0  0  0  0  0  0  0  0
  -23.9636   -1.9563   28.3617 C   0  0  0  0  0  0  0  0  0  0  0  0
  -21.7708   -0.4636   28.6694 Cl  0  0  0  0  0  0  0  0  0  0  0  0
  3  4  1  0
  7 13  1  0
  2 14  1  0
 14 15  2  0
 14 16  1  0
 15 17  1  0
 16 18  1  0
 17 18  1  0
 16 19  1  0
 23 25  1  0
 19 20  2  0
 20 22  1  0
 22 23  2  0
 23 24  1  0
 24 21  2  0
 21 19  1  0
  4  5  2  0
  5  9  1  0
  9 10  2  0
 10 11  1  0
 11 12  2  0
 12  4  1  0
  1  2  2  0
  2  6  1  0
  6  7  2  0
  7  8  1  0
  8  3  2  0
  3  1  1  0
M  END

$$$$
