No_2768-gen_results/8p0m/2024-11-26-14-13-15/
     RDKit          3D

 25 26  0  0  0  0  0  0  0  0999 V2000
  -28.0162   -0.8135   28.8779 C   0  0  0  0  0  0  0  0  0  0  0  0
  -27.0636   -0.1190   28.6079 C   0  0  0  0  0  0  0  0  0  0  0  0
  -26.9287    1.1713   29.0083 C   0  0  0  0  0  0  0  0  0  0  0  0
  -25.7702    2.0341   28.6884 C   0  0  0  0  0  0  0  0  0  0  0  0
  -24.7141    1.4431   27.9188 C   0  0  0  0  0  0  0  0  0  0  0  0
  -24.8590    0.0783   27.5836 C   0  0  0  0  0  0  0  0  0  0  0  0
  -25.9647   -0.6606   27.9164 C   0  0  0  0  0  0  0  0  0  0  0  0
  -28.0410   -1.4978   30.2732 C   0  0  0  0  0  0  0  0  0  0  0  0
  -28.2622   -0.9656   31.1067 F   0  0  0  0  0  0  0  0  0  0  0  0
  -26.7379   -2.0490   30.3580 F   0  0  0  0  0  0  0  0  0  0  0  0
  -28.7980   -2.6818   30.1742 F   0  0  0  0  0  0  0  0  0  0  0  0
  -23.5236    2.1583   27.5738 C   0  0  0  0  0  0  0  0  0  0  0  0
  -23.4612    2.9897   26.8513 F   0  0  0  0  0  0  0  0  0  0  0  0
  -22.3297    1.6338   27.9828 F   0  0  0  0  0  0  0  0  0  0  0  0
  -25.6219    3.6211   29.2119 Cl  0  0  0  0  0  0  0  0  0  0  0  0
  -27.8949    1.7531   29.7051 O   0  0  0  0  0  0  0  0  0  0  0  0
  -27.7240    2.5930   30.6510 C   0  0  0  0  0  0  0  0  0  0  0  0
  -27.8834    2.5954   31.9095 C   0  0  0  0  0  0  0  0  0  0  0  0
  -27.5957    3.5161   32.8557 C   0  0  0  0  0  0  0  0  0  0  0  0
  -27.1925    4.8029   32.3693 C   0  0  0  0  0  0  0  0  0  0  0  0
  -26.9824    4.9605   31.0396 C   0  0  0  0  0  0  0  0  0  0  0  0
  -27.2459    3.9246   30.1908 C   0  0  0  0  0  0  0  0  0  0  0  0
  -28.2528    4.4577   29.2140 C   0  0  0  0  0  0  0  0  0  0  0  0
  -27.8124    5.3194   28.2866 C   0  0  0  0  0  0  0  0  0  0  0  0
  -28.7470    5.8651   27.3594 C   0  0  0  0  0  0  0  0  0  0  0  0
  1  2  1  0
  1  8  1  0
  8  9  1  0
  8 10  1  0
  8 11  1  0
  5 12  1  0
 12 13  1  0
 12 14  1  0
  4 15  1  0
  3 16  1  0
 16 17  1  0
 22 23  1  0
 23 24  2  3
 24 25  1  0
 17 18  2  0
 18 19  1  0
 19 20  2  0
 20 21  1  0
 21 22  2  0
 22 17  1  0
  2  3  2  0
  3  4  1  0
  4  5  2  0
  5  6  1  0
  6  7  2  0
  7  2  1  0
M  END

$$$$
