No_2134-gen_results/8p0m/2024-11-26-14-13-15/
     RDKit          3D

 23 25  0  0  0  0  0  0  0  0999 V2000
  -28.1229   -1.3353   28.4874 O   0  0  0  0  0  0  0  0  0  0  0  0
  -27.4806   -0.4044   28.7094 C   0  0  0  0  0  0  0  0  0  0  0  0
  -26.3804   -0.0867   27.9394 C   0  0  0  0  0  0  0  0  0  0  0  0
  -27.7306    0.3455   29.8481 F   0  0  0  0  0  0  0  0  0  0  0  0
  -25.1283   -0.3314   28.3752 C   0  0  0  0  0  0  0  0  0  0  0  0
  -23.9073    0.3013   27.7332 C   0  0  0  0  0  0  0  0  0  0  0  0
  -24.1266    1.1577   26.6568 C   0  0  0  0  0  0  0  0  0  0  0  0
  -25.4274    1.4266   26.2518 C   0  0  0  0  0  0  0  0  0  0  0  0
  -26.4762    0.8946   26.8698 C   0  0  0  0  0  0  0  0  0  0  0  0
  -22.6043    2.0355   25.9962 Br  0  0  0  0  0  0  0  0  0  0  0  0
  -22.5957    0.0429   28.3675 C   0  0  0  0  0  0  0  0  0  0  0  0
  -22.4599   -0.9849   29.3154 C   0  0  0  0  0  0  0  0  0  0  0  0
  -23.5221   -1.3932   30.0802 C   0  0  0  0  0  0  0  0  0  0  0  0
  -24.8961   -1.1962   29.5139 C   0  0  0  0  0  0  0  0  0  0  0  0
  -27.8078    1.1843   26.2715 C   0  0  0  0  0  0  0  0  0  0  0  0
  -28.3548    2.3539   26.6737 C   0  0  0  0  0  0  0  0  0  0  0  0
  -29.2892    2.6187   27.0408 C   0  0  0  0  0  0  0  0  0  0  0  0
  -29.9171    3.4787   27.5490 C   0  0  0  0  0  0  0  0  0  0  0  0
  -29.2384    4.8369   27.4645 C   0  0  0  0  0  0  0  0  0  0  0  0
  -27.9736    4.7994   26.8354 C   0  0  0  0  0  0  0  0  0  0  0  0
  -27.4761    3.6261   26.4815 C   0  0  0  0  0  0  0  0  0  0  0  0
  -28.3948    0.3134   25.4388 C   0  0  0  0  0  0  0  0  0  0  0  0
  -27.9644   -0.0713   24.4265 O   0  0  0  0  0  0  0  0  0  0  0  0
  1  2  2  0
  2  3  1  0
  2  4  1  0
  7 10  1  0
  9 15  1  0
 15 16  1  0
 15 22  1  0
 22 23  2  0
  3  5  2  0
  6  7  2  0
  7  8  1  0
  8  9  2  0
  9  3  1  0
  5  6  1  0
  6 11  1  0
 11 12  2  0
 12 13  1  0
 13 14  2  0
 14  5  1  0
 16 17  2  0
 17 18  1  0
 18 19  2  0
 19 20  1  0
 20 21  2  0
 21 16  1  0
M  END

$$$$
