No_2395-gen_results/8p0m/2024-11-26-14-13-15/
     RDKit          3D

  5  4  0  0  0  0  0  0  0  0999 V2000
  -28.0727   -1.2542   28.5316 F   0  0  0  0  0  0  0  0  0  0  0  0
  -28.2662   -0.4214   29.1931 C   0  0  0  0  0  0  0  0  0  0  0  0
  -29.4400   -0.1817   29.3649 F   0  0  0  0  0  0  0  0  0  0  0  0
  -27.6959   -0.7085   30.4324 F   0  0  0  0  0  0  0  0  0  0  0  0
  -27.5996    0.6243   28.7040 F   0  0  0  0  0  0  0  0  0  0  0  0
  1  2  1  0
  2  3  1  0
  2  4  1  0
  2  5  1  0
M  END

$$$$
