No_2252-gen_results/8p0m/2024-11-26-14-13-15/
     RDKit          3D

 13 14  0  0  0  0  0  0  0  0999 V2000
  -28.0162   -0.8135   28.8779 C   0  0  0  0  0  0  0  0  0  0  0  0
  -28.4690   -0.7850   29.8287 C   0  0  0  0  0  0  0  0  0  0  0  0
  -26.5042   -0.7777   28.8766 C   0  0  0  0  0  0  0  0  0  0  0  0
  -25.9150   -0.6580   29.9230 C   0  0  0  0  0  0  0  0  0  0  0  0
  -27.9691   -0.7243   31.2047 C   0  0  0  0  0  0  0  0  0  0  0  0
  -26.5847   -0.6393   31.2062 C   0  0  0  0  0  0  0  0  0  0  0  0
  -24.4026   -0.5847   30.0419 C   0  0  0  0  0  0  0  0  0  0  0  0
  -23.6753   -0.1487   28.9955 C   0  0  0  0  0  0  0  0  0  0  0  0
  -22.5262    0.3897   29.0332 C   0  0  0  0  0  0  0  0  0  0  0  0
  -21.9192    0.9170   27.8544 C   0  0  0  0  0  0  0  0  0  0  0  0
  -22.7471    1.3656   26.8107 C   0  0  0  0  0  0  0  0  0  0  0  0
  -24.0877    1.0977   26.8708 C   0  0  0  0  0  0  0  0  0  0  0  0
  -24.6317    0.4002   27.9438 C   0  0  0  0  0  0  0  0  0  0  0  0
  4  7  1  0
  7  8  1  0
  8  9  2  0
  9 10  1  0
 10 11  2  0
 11 12  1  0
 12 13  2  0
 13  8  1  0
  1  2  2  0
  2  5  1  0
  5  6  2  0
  6  4  1  0
  4  3  2  0
  3  1  1  0
M  END

$$$$
