No_2157-gen_results/8p0m/2024-11-26-14-13-15/
     RDKit          3D

 35 38  0  0  0  0  0  0  0  0999 V2000
  -28.0162   -0.8135   28.8779 C   0  0  0  0  0  0  0  0  0  0  0  0
  -28.4690   -0.7850   29.8287 C   0  0  0  0  0  0  0  0  0  0  0  0
  -26.5042   -0.7777   28.8766 C   0  0  0  0  0  0  0  0  0  0  0  0
  -25.8103   -0.8531   30.1028 C   0  0  0  0  0  0  0  0  0  0  0  0
  -27.9906   -0.8916   31.2257 C   0  0  0  0  0  0  0  0  0  0  0  0
  -26.6042   -0.8676   31.2652 C   0  0  0  0  0  0  0  0  0  0  0  0
  -29.9385   -0.8194   29.8358 O   0  0  0  0  0  0  0  0  0  0  0  0
  -30.5356   -0.1119   28.9448 C   0  0  0  0  0  0  0  0  0  0  0  0
  -31.4501   -0.5434   28.1111 C   0  0  0  0  0  0  0  0  0  0  0  0
  -32.0404    0.1645   27.0421 C   0  0  0  0  0  0  0  0  0  0  0  0
  -31.6050    1.5042   26.9115 C   0  0  0  0  0  0  0  0  0  0  0  0
  -30.6305    2.0115   27.7313 C   0  0  0  0  0  0  0  0  0  0  0  0
  -30.0462    1.2281   28.7239 C   0  0  0  0  0  0  0  0  0  0  0  0
  -23.9726   -0.8419   30.1449 Br  0  0  0  0  0  0  0  0  0  0  0  0
  -25.7209   -0.5671   27.3479 Cl  0  0  0  0  0  0  0  0  0  0  0  0
  -32.3906    2.4715   25.7330 Cl  0  0  0  0  0  0  0  0  0  0  0  0
  -31.8457   -1.8417   28.2215 O   0  0  0  0  0  0  0  0  0  0  0  0
  -32.1862   -2.4370   29.3569 C   0  0  0  0  0  0  0  0  0  0  0  0
  -33.4068   -2.1476   29.7901 C   0  0  0  0  0  0  0  0  0  0  0  0
  -33.7752   -2.6604   31.0540 C   0  0  0  0  0  0  0  0  0  0  0  0
  -32.9551   -3.6080   31.6851 C   0  0  0  0  0  0  0  0  0  0  0  0
  -31.7213   -3.9245   31.1501 C   0  0  0  0  0  0  0  0  0  0  0  0
  -31.3077   -3.3456   29.9894 C   0  0  0  0  0  0  0  0  0  0  0  0
  -30.8362   -4.8710   31.8720 C   0  0  0  0  0  0  0  0  0  0  0  0
  -29.9903   -5.5244   31.1802 C   0  0  0  0  0  0  0  0  0  0  0  0
  -30.8327   -4.9689   33.2801 C   0  0  0  0  0  0  0  0  0  0  0  0
  -29.9970   -5.8629   33.9340 C   0  0  0  0  0  0  0  0  0  0  0  0
  -29.0286   -6.4383   31.8736 C   0  0  0  0  0  0  0  0  0  0  0  0
  -29.1090   -6.6101   33.1946 C   0  0  0  0  0  0  0  0  0  0  0  0
  -35.0973   -2.2746   31.5839 C   0  0  0  0  0  0  0  0  0  0  0  0
  -35.1441   -1.3434   32.4041 N   0  0  0  0  0  0  0  0  0  0  0  0
  -35.6962   -0.4017   32.7346 C   0  0  0  0  0  0  0  0  0  0  0  0
  -35.6856    0.6166   32.8790 C   0  0  0  0  0  0  0  0  0  0  0  0
  -36.1184   -2.5284   30.9441 O   0  0  0  0  0  0  0  0  0  0  0  0
  -36.7377    1.6778   33.0442 C   0  0  0  0  0  0  0  0  0  0  0  0
  2  7  1  0
  7  8  1  0
  4 14  1  0
  3 15  1  0
 11 16  1  0
  9 17  1  0
 17 18  1  0
 22 24  1  0
 20 30  1  0
 30 31  1  0
 31 32  1  0
 32 33  2  3
 30 34  2  0
 33 35  1  0
 18 19  2  0
 19 20  1  0
 20 21  2  0
 21 22  1  0
 22 23  2  0
 23 18  1  0
 24 25  2  0
 25 28  1  0
 28 29  2  0
 29 27  1  0
 27 26  2  0
 26 24  1  0
  8  9  1  0
  9 10  2  0
 10 11  1  0
 11 12  2  0
 12 13  1  0
 13  8  2  0
  1  2  2  0
  2  5  1  0
  5  6  2  0
  6  4  1  0
  4  3  2  0
  3  1  1  0
M  END

$$$$
