No_2683-gen_results/8p0m/2024-11-26-14-13-15/
     RDKit          3D

 35 39  0  0  0  0  0  0  0  0999 V2000
  -28.0162   -0.8135   28.8779 C   0  0  0  0  0  0  0  0  0  0  0  0
  -27.0636   -0.1190   28.6079 C   0  0  0  0  0  0  0  0  0  0  0  0
  -25.7923   -0.4302   29.0761 C   0  0  0  0  0  0  0  0  0  0  0  0
  -24.5456    0.3494   28.8225 C   0  0  0  0  0  0  0  0  0  0  0  0
  -24.6586    1.4196   27.8878 C   0  0  0  0  0  0  0  0  0  0  0  0
  -25.9471    1.6811   27.3792 C   0  0  0  0  0  0  0  0  0  0  0  0
  -27.0439    0.9739   27.6871 C   0  0  0  0  0  0  0  0  0  0  0  0
  -29.1882   -0.1472   29.0918 N   0  0  0  0  0  0  0  0  0  0  0  0
  -30.2017   -0.7833   29.7303 C   0  0  0  0  0  0  0  0  0  0  0  0
  -23.5963    2.0984   27.6349 F   0  0  0  0  0  0  0  0  0  0  0  0
  -29.9461   -1.9665   30.3502 C   0  0  0  0  0  0  0  0  0  0  0  0
  -28.7083   -2.5804   30.3497 C   0  0  0  0  0  0  0  0  0  0  0  0
  -27.6858   -1.9074   29.7878 C   0  0  0  0  0  0  0  0  0  0  0  0
  -26.3559   -2.2011   29.9238 N   0  0  0  0  0  0  0  0  0  0  0  0
  -25.4841   -1.5674   29.8384 C   0  0  0  0  0  0  0  0  0  0  0  0
  -31.3780   -0.3212   29.6204 O   0  0  0  0  0  0  0  0  0  0  0  0
  -24.2803   -1.8903   30.1044 O   0  0  0  0  0  0  0  0  0  0  0  0
  -31.0909   -2.7098   31.0192 C   0  0  0  0  0  0  0  0  0  0  0  0
  -31.0654   -3.8155   31.2420 O   0  0  0  0  0  0  0  0  0  0  0  0
  -32.1548   -1.9503   31.4272 N   0  0  0  0  0  0  0  0  0  0  0  0
  -33.0541   -2.3583   32.2513 C   0  0  0  0  0  0  0  0  0  0  0  0
  -33.7233   -1.8626   32.8207 C   0  0  0  0  0  0  0  0  0  0  0  0
  -34.6953   -2.3263   33.8768 C   0  0  0  0  0  0  0  0  0  0  0  0
  -34.7269   -3.7097   34.0086 C   0  0  0  0  0  0  0  0  0  0  0  0
  -33.8676   -4.4675   33.2626 C   0  0  0  0  0  0  0  0  0  0  0  0
  -33.0091   -3.9024   32.4377 C   0  0  0  0  0  0  0  0  0  0  0  0
  -35.6853   -4.3208   34.9744 C   0  0  0  0  0  0  0  0  0  0  0  0
  -36.4741   -4.9948   35.0010 C   0  0  0  0  0  0  0  0  0  0  0  0
  -37.2805   -5.5002   36.1047 C   0  0  0  0  0  0  0  0  0  0  0  0
  -36.9943   -4.9686   37.3718 C   0  0  0  0  0  0  0  0  0  0  0  0
  -35.9915   -4.0717   37.4824 C   0  0  0  0  0  0  0  0  0  0  0  0
  -35.2394   -3.6249   36.3881 C   0  0  0  0  0  0  0  0  0  0  0  0
  -37.7791   -5.4227   38.5187 C   0  0  0  0  0  0  0  0  0  0  0  0
  -38.6601   -6.1574   38.5475 C   0  0  0  0  0  0  0  0  0  0  0  0
  -39.4235   -6.6010   39.7238 C   0  0  0  0  0  0  0  0  0  0  0  0
  1  2  1  0
  1  8  1  0
  8  9  1  0
  5 10  1  0
  9 11  1  0
  1 13  1  0
 12 13  1  0
  3 15  1  0
 14 15  1  0
  9 16  2  0
 15 17  2  0
 11 18  1  0
 18 19  2  0
 18 20  1  0
 20 21  1  0
 24 27  1  0
 30 33  1  0
 33 34  2  3
 34 35  1  0
 12 11  1  0
 13 14  1  0
 27 28  2  0
 28 29  1  0
 29 30  2  0
 30 31  1  0
 31 32  2  0
 32 27  1  0
  2  7  1  0
  7  6  2  0
  6  5  1  0
  5  4  2  0
  4  3  1  0
  3  2  2  0
 21 22  2  0
 22 23  1  0
 23 24  2  0
 24 25  1  0
 25 26  2  0
 26 21  1  0
M  END

$$$$
