No_2350-gen_results/8p0m/2024-11-26-14-13-15/
     RDKit          3D

 22 24  0  0  0  0  0  0  0  0999 V2000
  -28.0162   -0.8135   28.8779 C   0  0  0  0  0  0  0  0  0  0  0  0
  -28.4690   -0.7850   29.8287 C   0  0  0  0  0  0  0  0  0  0  0  0
  -26.5455   -0.8762   28.8500 C   0  0  0  0  0  0  0  0  0  0  0  0
  -25.8041   -1.0324   30.0571 C   0  0  0  0  0  0  0  0  0  0  0  0
  -26.5373   -1.0386   31.2171 C   0  0  0  0  0  0  0  0  0  0  0  0
  -27.8843   -0.9532   31.1862 C   0  0  0  0  0  0  0  0  0  0  0  0
  -24.1391   -1.1177   30.0459 Cl  0  0  0  0  0  0  0  0  0  0  0  0
  -30.0700   -0.7183   29.9328 C   0  0  0  0  0  0  0  0  0  0  0  0
  -30.6408    0.0642   30.8485 O   0  0  0  0  0  0  0  0  0  0  0  0
  -30.7036   -1.3034   29.0843 O   0  0  0  0  0  0  0  0  0  0  0  0
  -25.7500   -0.8357   27.6931 O   0  0  0  0  0  0  0  0  0  0  0  0
  -25.4649    0.3449   27.1125 C   0  0  0  0  0  0  0  0  0  0  0  0
  -26.1407    1.3724   27.1087 C   0  0  0  0  0  0  0  0  0  0  0  0
  -27.2568    1.4574   28.0092 C   0  0  0  0  0  0  0  0  0  0  0  0
  -27.8654    2.9085   27.9475 C   0  0  0  0  0  0  0  0  0  0  0  0
  -28.7905    3.2637   28.9233 C   0  0  0  0  0  0  0  0  0  0  0  0
  -29.3363    4.5334   28.8534 C   0  0  0  0  0  0  0  0  0  0  0  0
  -28.9808    5.3945   27.8370 C   0  0  0  0  0  0  0  0  0  0  0  0
  -28.0949    5.0087   26.8611 C   0  0  0  0  0  0  0  0  0  0  0  0
  -27.5047    3.7612   26.9341 C   0  0  0  0  0  0  0  0  0  0  0  0
  -25.8344    2.4565   26.1891 C   0  0  0  0  0  0  0  0  0  0  0  0
  -26.4564    3.4923   26.0418 C   0  0  0  0  0  0  0  0  0  0  0  0
  4  7  1  0
  2  8  1  0
  8  9  1  0
  8 10  2  0
  3 11  1  0
 11 12  1  0
 12 13  1  0
 15 16  2  0
 16 17  1  0
 17 18  2  0
 18 19  1  0
 19 20  2  0
  1  2  2  0
  2  6  1  0
  6  5  2  0
  5  4  1  0
  4  3  2  0
  3  1  1  0
 13 14  2  0
 14 15  1  0
 15 20  1  0
 20 22  1  0
 22 21  2  0
 21 13  1  0
M  END

$$$$
