No_2730-gen_results/8p0m/2024-11-26-14-13-15/
     RDKit          3D

 19 20  0  0  0  0  0  0  0  0999 V2000
  -28.0162   -0.8135   28.8779 C   0  0  0  0  0  0  0  0  0  0  0  0
  -28.4690   -0.7850   29.8287 C   0  0  0  0  0  0  0  0  0  0  0  0
  -26.5455   -0.8762   28.8500 C   0  0  0  0  0  0  0  0  0  0  0  0
  -25.8041   -1.0324   30.0571 C   0  0  0  0  0  0  0  0  0  0  0  0
  -26.5373   -1.0386   31.2171 C   0  0  0  0  0  0  0  0  0  0  0  0
  -27.8843   -0.9532   31.1862 C   0  0  0  0  0  0  0  0  0  0  0  0
  -24.3555   -1.1121   30.0346 C   0  0  0  0  0  0  0  0  0  0  0  0
  -23.6610    0.1027   29.8448 C   0  0  0  0  0  0  0  0  0  0  0  0
  -23.9525    1.2330   30.4520 C   0  0  0  0  0  0  0  0  0  0  0  0
  -25.0366    1.3255   31.3176 C   0  0  0  0  0  0  0  0  0  0  0  0
  -25.2922    2.6604   31.9114 C   0  0  0  0  0  0  0  0  0  0  0  0
  -26.2987    2.8292   32.9041 C   0  0  0  0  0  0  0  0  0  0  0  0
  -26.9128    1.6565   33.3355 C   0  0  0  0  0  0  0  0  0  0  0  0
  -26.4813    0.4428   32.9690 C   0  0  0  0  0  0  0  0  0  0  0  0
  -25.5077    0.3037   32.0696 C   0  0  0  0  0  0  0  0  0  0  0  0
  -24.4273   -0.5586   32.7934 C   0  0  0  0  0  0  0  0  0  0  0  0
  -26.1445   -2.4764   31.8363 C   0  0  0  0  0  0  0  0  0  0  0  0
  -26.3531   -0.2520   31.9929 Cl  0  0  0  0  0  0  0  0  0  0  0  0
  -26.4752   -2.3705   30.5482 O   0  0  0  0  0  0  0  0  0  0  0  0
  4  7  1  0
  7  8  1  0
  8  9  2  3
  9 10  1  0
 10 11  2  0
 11 12  1  0
 12 13  2  0
 13 14  1  0
 10 15  1  0
 14 15  1  0
 15 16  1  0
  5 17  1  0
 15 18  1  0
 17 19  1  0
  1  2  2  0
  2  6  1  0
  6  5  2  0
  5  4  1  0
  4  3  2  0
  3  1  1  0
M  END

$$$$
