No_2831-gen_results/8p0m/2024-11-26-14-13-15/
     RDKit          3D

 21 23  0  0  0  0  0  0  0  0999 V2000
  -28.0544   -1.0498   28.7246 N   0  0  0  0  0  0  0  0  0  0  0  0
  -28.6544   -0.5669   29.5076 C   0  0  0  0  0  0  0  0  0  0  0  0
  -26.6945   -1.3221   29.0236 C   0  0  0  0  0  0  0  0  0  0  0  0
  -26.3171   -1.0619   30.3116 N   0  0  0  0  0  0  0  0  0  0  0  0
  -30.0524   -0.2833   29.1917 N   0  0  0  0  0  0  0  0  0  0  0  0
  -28.3753   -0.1641   30.8403 N   0  0  0  0  0  0  0  0  0  0  0  0
  -27.1066   -0.4331   31.1804 C   0  0  0  0  0  0  0  0  0  0  0  0
  -30.3274    0.2913   28.0432 C   0  0  0  0  0  0  0  0  0  0  0  0
  -29.5531    0.7901   27.3412 O   0  0  0  0  0  0  0  0  0  0  0  0
  -31.7947    0.1872   27.6199 C   0  0  0  0  0  0  0  0  0  0  0  0
  -32.6713    0.1005   28.2976 N   0  0  0  0  0  0  0  0  0  0  0  0
  -32.0371    0.1579   26.1380 C   0  0  0  0  0  0  0  0  0  0  0  0
  -33.9979   -0.0319   27.9861 C   0  0  0  0  0  0  0  0  0  0  0  0
  -30.9467    0.1895   25.1953 C   0  0  0  0  0  0  0  0  0  0  0  0
  -34.2305   -0.0388   26.6727 C   0  0  0  0  0  0  0  0  0  0  0  0
  -33.2866    0.0175   25.7285 C   0  0  0  0  0  0  0  0  0  0  0  0
  -30.2008    1.2390   24.9255 C   0  0  0  0  0  0  0  0  0  0  0  0
  -30.6024   -1.1119   24.5576 C   0  0  0  0  0  0  0  0  0  0  0  0
  -29.5715   -1.1181   23.6982 N   0  0  0  0  0  0  0  0  0  0  0  0
  -29.1990    1.2354   23.9227 C   0  0  0  0  0  0  0  0  0  0  0  0
  -28.8899   -0.0373   23.3548 C   0  0  0  0  0  0  0  0  0  0  0  0
  2  5  1  0
  5  8  1  0
  8  9  2  0
  8 10  1  0
 12 14  1  0
 14 17  2  0
 17 20  1  0
 20 21  2  0
 21 19  1  0
 19 18  2  0
 18 14  1  0
  1  2  2  0
  2  6  1  0
  6  7  2  0
  7  4  1  0
  4  3  2  0
  3  1  1  0
 10 11  2  0
 11 13  1  0
 13 15  2  0
 15 16  1  0
 16 12  2  0
 12 10  1  0
M  END

$$$$
