No_2280-gen_results/8p0m/2024-11-26-14-13-15/
     RDKit          3D

  6  5  0  0  0  0  0  0  0  0999 V2000
  -28.0162   -0.8135   28.8779 C   0  0  0  0  0  0  0  0  0  0  0  0
  -27.0636   -0.1189   28.6079 C   0  0  0  0  0  0  0  0  0  0  0  0
  -25.7923   -0.4302   29.0761 C   0  0  0  0  0  0  0  0  0  0  0  0
  -25.5756   -1.5654   29.9363 C   0  0  0  0  0  0  0  0  0  0  0  0
  -24.3722   -1.9422   30.4466 C   0  0  0  0  0  0  0  0  0  0  0  0
  -27.9640   -1.9247   29.7899 C   0  0  0  0  0  0  0  0  0  0  0  0
  1  2  1  0
  2  3  2  3
  3  4  1  0
  4  5  2  0
  1  6  1  0
M  END

$$$$
