No_2184-gen_results/8p0m/2024-11-26-14-13-15/
     RDKit          3D

 22 24  0  0  0  0  0  0  0  0999 V2000
  -28.0162   -0.8135   28.8779 C   0  0  0  0  0  0  0  0  0  0  0  0
  -28.4690   -0.7850   29.8287 C   0  0  0  0  0  0  0  0  0  0  0  0
  -28.1960    0.3478   28.0550 C   0  0  0  0  0  0  0  0  0  0  0  0
  -29.0191    1.3501   28.3782 C   0  0  0  0  0  0  0  0  0  0  0  0
  -28.3170   -1.9812   30.8560 C   0  0  0  0  0  0  0  0  0  0  0  0
  -29.5950    1.2859   29.6049 C   0  0  0  0  0  0  0  0  0  0  0  0
  -29.3465    0.2093   30.3749 C   0  0  0  0  0  0  0  0  0  0  0  0
  -27.6425   -1.7250   31.6976 F   0  0  0  0  0  0  0  0  0  0  0  0
  -29.5781   -2.4357   31.2523 F   0  0  0  0  0  0  0  0  0  0  0  0
  -27.7667   -3.0404   30.1323 F   0  0  0  0  0  0  0  0  0  0  0  0
  -27.4492    0.3791   26.6653 C   0  0  0  0  0  0  0  0  0  0  0  0
  -28.1014    0.3671   25.4815 C   0  0  0  0  0  0  0  0  0  0  0  0
  -25.9943    0.3741   26.6643 C   0  0  0  0  0  0  0  0  0  0  0  0
  -25.1482    0.1932   27.7409 C   0  0  0  0  0  0  0  0  0  0  0  0
  -24.3612    1.0609   28.4042 C   0  0  0  0  0  0  0  0  0  0  0  0
  -23.3432    0.6467   29.2565 C   0  0  0  0  0  0  0  0  0  0  0  0
  -23.1610   -0.7166   29.5806 C   0  0  0  0  0  0  0  0  0  0  0  0
  -24.6832   -1.2001   28.0184 C   0  0  0  0  0  0  0  0  0  0  0  0
  -23.8424   -1.5931   28.9759 C   0  0  0  0  0  0  0  0  0  0  0  0
  -25.4452    0.7224   25.4362 C   0  0  0  0  0  0  0  0  0  0  0  0
  -27.6216    0.7034   24.3418 C   0  0  0  0  0  0  0  0  0  0  0  0
  -26.1658    0.7209   24.3024 C   0  0  0  0  0  0  0  0  0  0  0  0
  2  5  1  0
  5  8  1  0
  5  9  1  0
  5 10  1  0
  3 11  1  0
 13 14  1  0
 14 15  2  0
 15 16  1  0
 16 17  2  0
 17 19  1  0
 19 18  2  0
 18 14  1  0
 11 12  2  0
 12 21  1  0
 21 22  2  0
 22 20  1  0
 20 13  2  0
 13 11  1  0
  1  2  2  0
  2  7  1  0
  7  6  2  0
  6  4  1  0
  4  3  2  0
  3  1  1  0
M  END

$$$$
