No_2776-gen_results/8p0m/2024-11-26-14-13-15/
     RDKit          3D

 30 32  0  0  0  0  0  0  0  0999 V2000
  -28.0162   -0.8135   28.8779 C   0  0  0  0  0  0  0  0  0  0  0  0
  -28.4690   -0.7850   29.8287 C   0  0  0  0  0  0  0  0  0  0  0  0
  -28.1960    0.3478   28.0550 C   0  0  0  0  0  0  0  0  0  0  0  0
  -29.0191    1.3501   28.3782 C   0  0  0  0  0  0  0  0  0  0  0  0
  -29.4107    0.1803   30.3782 C   0  0  0  0  0  0  0  0  0  0  0  0
  -29.6059    1.2495   29.6193 C   0  0  0  0  0  0  0  0  0  0  0  0
  -27.5003    0.3576   26.8164 O   0  0  0  0  0  0  0  0  0  0  0  0
  -26.4976    1.3388   26.6595 C   0  0  0  0  0  0  0  0  0  0  0  0
  -25.2287    0.7278   26.6101 C   0  0  0  0  0  0  0  0  0  0  0  0
  -24.0880    1.5526   26.6229 C   0  0  0  0  0  0  0  0  0  0  0  0
  -22.7905    1.0978   26.8973 C   0  0  0  0  0  0  0  0  0  0  0  0
  -21.7701    2.1256   27.0157 C   0  0  0  0  0  0  0  0  0  0  0  0
  -20.6380    1.7025   27.6823 N   0  0  0  0  0  0  0  0  0  0  0  0
  -20.8974    0.4554   28.2443 C   0  0  0  0  0  0  0  0  0  0  0  0
  -22.0147   -0.1544   28.4179 C   0  0  0  0  0  0  0  0  0  0  0  0
  -22.8798    0.1849   27.8847 C   0  0  0  0  0  0  0  0  0  0  0  0
  -26.7788    2.6127   26.4529 C   0  0  0  0  0  0  0  0  0  0  0  0
  -25.6790    3.5087   26.4180 C   0  0  0  0  0  0  0  0  0  0  0  0
  -24.4317    3.0761   26.9620 C   0  0  0  0  0  0  0  0  0  0  0  0
  -30.5473    2.3800   30.0040 C   0  0  0  0  0  0  0  0  0  0  0  0
  -31.2008    2.9709   29.3390 O   0  0  0  0  0  0  0  0  0  0  0  0
  -30.6841    2.4289   31.4181 O   0  0  0  0  0  0  0  0  0  0  0  0
  -28.2842   -2.2124   30.9766 Cl  0  0  0  0  0  0  0  0  0  0  0  0
  -31.5088    3.3560   31.9433 C   0  0  0  0  0  0  0  0  0  0  0  0
  -32.7235    2.9773   32.1632 C   0  0  0  0  0  0  0  0  0  0  0  0
  -32.9995    1.8344   32.8271 C   0  0  0  0  0  0  0  0  0  0  0  0
  -32.4259    1.6344   34.0247 C   0  0  0  0  0  0  0  0  0  0  0  0
  -31.9870    0.8543   34.6029 C   0  0  0  0  0  0  0  0  0  0  0  0
  -31.3714    0.7822   35.9656 C   0  0  0  0  0  0  0  0  0  0  0  0
  -30.7993   -0.3580   36.5894 C   0  0  0  0  0  0  0  0  0  0  0  0
  3  7  1  0
  7  8  1  0
 10 11  1  0
  6 20  1  0
 20 21  2  0
 20 22  1  0
  2 23  1  0
 22 24  1  0
 24 25  1  0
 25 26  1  0
 26 27  1  0
 27 28  2  3
 28 29  1  0
 29 30  2  0
 11 12  2  0
 12 13  1  0
 13 14  2  0
 14 15  1  0
 15 16  2  0
 16 11  1  0
  8  9  2  0
  9 10  1  0
 10 19  2  0
 19 18  1  0
 18 17  2  0
 17  8  1  0
  1  2  2  0
  2  5  1  0
  5  6  2  0
  6  4  1  0
  4  3  2  0
  3  1  1  0
M  END

$$$$
