No_2870-gen_results/8p0m/2024-11-26-14-13-15/
     RDKit          3D

 31 34  0  0  0  0  0  0  0  0999 V2000
  -28.0162   -0.8135   28.8779 C   0  0  0  0  0  0  0  0  0  0  0  0
  -27.0636   -0.1189   28.6079 C   0  0  0  0  0  0  0  0  0  0  0  0
  -27.0010    0.6913   27.4910 C   0  0  0  0  0  0  0  0  0  0  0  0
  -25.8548    1.4825   27.0830 C   0  0  0  0  0  0  0  0  0  0  0  0
  -24.6901    1.4526   27.8807 C   0  0  0  0  0  0  0  0  0  0  0  0
  -24.7379    0.6010   29.0416 C   0  0  0  0  0  0  0  0  0  0  0  0
  -25.8234   -0.1688   29.3887 C   0  0  0  0  0  0  0  0  0  0  0  0
  -27.9613   -1.6072   30.0877 N   0  0  0  0  0  0  0  0  0  0  0  0
  -23.5206    2.2106   27.5733 C   0  0  0  0  0  0  0  0  0  0  0  0
  -22.9726    2.6850   28.5756 F   0  0  0  0  0  0  0  0  0  0  0  0
  -22.5521    1.3926   26.9591 F   0  0  0  0  0  0  0  0  0  0  0  0
  -23.8434    3.2524   26.7319 F   0  0  0  0  0  0  0  0  0  0  0  0
  -29.1896   -0.5955   28.5050 O   0  0  0  0  0  0  0  0  0  0  0  0
  -29.0649   -2.4659   30.5835 C   0  0  0  0  0  0  0  0  0  0  0  0
  -29.4294   -2.0887   31.7998 C   0  0  0  0  0  0  0  0  0  0  0  0
  -30.4037   -1.0684   31.9303 C   0  0  0  0  0  0  0  0  0  0  0  0
  -30.5393   -0.5550   33.1124 C   0  0  0  0  0  0  0  0  0  0  0  0
  -30.1726   -1.2245   34.2301 C   0  0  0  0  0  0  0  0  0  0  0  0
  -29.3301   -2.3055   34.1850 C   0  0  0  0  0  0  0  0  0  0  0  0
  -28.9434   -2.7472   32.9041 C   0  0  0  0  0  0  0  0  0  0  0  0
  -29.2826   -3.4571   29.9643 O   0  0  0  0  0  0  0  0  0  0  0  0
  -31.7265    0.3946   33.4046 C   0  0  0  0  0  0  0  0  0  0  0  0
  -31.3807    1.5115   33.6924 C   0  0  0  0  0  0  0  0  0  0  0  0
  -32.4013    2.6158   33.8824 C   0  0  0  0  0  0  0  0  0  0  0  0
  -33.7071    2.2264   33.6014 C   0  0  0  0  0  0  0  0  0  0  0  0
  -32.9763    0.0649   33.0501 C   0  0  0  0  0  0  0  0  0  0  0  0
  -33.9801    0.9604   33.1741 C   0  0  0  0  0  0  0  0  0  0  0  0
  -35.3593    0.5621   32.8584 C   0  0  0  0  0  0  0  0  0  0  0  0
  -35.7426   -0.3177   32.3644 N   0  0  0  0  0  0  0  0  0  0  0  0
  -34.8305   -1.2639   31.9906 C   0  0  0  0  0  0  0  0  0  0  0  0
  -33.4523   -1.1965   32.4025 C   0  0  0  0  0  0  0  0  0  0  0  0
  1  2  1  0
  1  8  1  0
  5  9  1  0
  9 10  1  0
  9 11  1  0
  9 12  1  0
  1 13  2  0
  8 14  1  0
 14 15  1  0
 14 21  2  0
 17 22  1  0
 15 16  2  0
 16 17  1  0
 17 18  2  0
 18 19  1  0
 19 20  2  0
 20 15  1  0
  2  3  2  0
  3  4  1  0
  4  5  2  0
  5  6  1  0
  6  7  2  0
  7  2  1  0
 22 23  2  0
 23 24  1  0
 24 25  2  0
 25 27  1  0
 26 22  1  0
 26 27  2  0
 27 28  1  0
 28 29  2  0
 29 30  1  0
 30 31  2  0
 31 26  1  0
M  END

$$$$
