No_2561-gen_results/8p0m/2024-11-26-14-13-15/
     RDKit          3D

 25 27  0  0  0  0  0  0  0  0999 V2000
  -28.0162   -0.8135   28.8779 C   0  0  0  0  0  0  0  0  0  0  0  0
  -27.0636   -0.1189   28.6079 C   0  0  0  0  0  0  0  0  0  0  0  0
  -25.7923   -0.4302   29.0761 C   0  0  0  0  0  0  0  0  0  0  0  0
  -25.5756   -1.5654   29.9363 C   0  0  0  0  0  0  0  0  0  0  0  0
  -26.7354   -2.3004   30.2173 C   0  0  0  0  0  0  0  0  0  0  0  0
  -27.9184   -1.9537   29.7629 C   0  0  0  0  0  0  0  0  0  0  0  0
  -26.8968    1.1016   27.7052 C   0  0  0  0  0  0  0  0  0  0  0  0
  -27.7061    1.4295   26.9663 C   0  0  0  0  0  0  0  0  0  0  0  0
  -27.5765    2.4938   26.0287 C   0  0  0  0  0  0  0  0  0  0  0  0
  -26.3864    3.2775   26.0454 C   0  0  0  0  0  0  0  0  0  0  0  0
  -25.3753    2.9110   26.9270 C   0  0  0  0  0  0  0  0  0  0  0  0
  -25.5708    1.8546   27.7479 C   0  0  0  0  0  0  0  0  0  0  0  0
  -28.9660   -2.6775   30.1031 F   0  0  0  0  0  0  0  0  0  0  0  0
  -24.1522    3.7138   26.9231 C   0  0  0  0  0  0  0  0  0  0  0  0
  -24.3078    4.8957   26.7250 N   0  0  0  0  0  0  0  0  0  0  0  0
  -22.9993    3.0644   27.0478 N   0  0  0  0  0  0  0  0  0  0  0  0
  -22.6148    1.8037   27.0144 C   0  0  0  0  0  0  0  0  0  0  0  0
  -21.3872    1.5195   27.7058 C   0  0  0  0  0  0  0  0  0  0  0  0
  -23.3748    0.9336   26.6587 O   0  0  0  0  0  0  0  0  0  0  0  0
  -21.3370    0.6396   28.8942 C   0  0  0  0  0  0  0  0  0  0  0  0
  -22.4132    0.5270   29.5786 N   0  0  0  0  0  0  0  0  0  0  0  0
  -24.3319   -1.8101   30.2198 O   0  0  0  0  0  0  0  0  0  0  0  0
  -23.8033   -1.2265   31.3666 C   0  0  0  0  0  0  0  0  0  0  0  0
  -22.8050   -0.6209   30.4055 C   0  0  0  0  0  0  0  0  0  0  0  0
  -21.6385   -1.3488   30.4524 O   0  0  0  0  0  0  0  0  0  0  0  0
  2  7  1  0
  6 13  1  0
 11 14  1  0
 14 15  2  0
 14 16  1  0
 16 17  1  0
 17 18  1  0
 17 19  2  0
 18 20  1  0
 20 21  1  0
  4 22  1  0
 22 23  1  0
 21 24  1  0
 23 24  1  0
 24 25  2  0
  1  2  2  0
  2  3  1  0
  3  4  2  0
  4  5  1  0
  5  6  2  0
  6  1  1  0
  7  8  2  0
  8  9  1  0
  9 10  2  0
 10 11  1  0
 11 12  2  0
 12  7  1  0
M  END

$$$$
