No_2521-gen_results/8p0m/2024-11-26-14-13-15/
     RDKit          3D

 35 38  0  0  0  0  0  0  0  0999 V2000
  -28.1229   -1.3353   28.4874 O   0  0  0  0  0  0  0  0  0  0  0  0
  -28.5208   -0.4363   29.0779 C   0  0  0  0  0  0  0  0  0  0  0  0
  -27.6655    0.1129   30.0346 C   0  0  0  0  0  0  0  0  0  0  0  0
  -29.7419    0.1102   28.8873 N   0  0  0  0  0  0  0  0  0  0  0  0
  -27.8398    1.2287   30.6424 C   0  0  0  0  0  0  0  0  0  0  0  0
  -30.6057   -0.3352   28.0357 C   0  0  0  0  0  0  0  0  0  0  0  0
  -26.6824   -0.8305   30.6107 C   0  0  0  0  0  0  0  0  0  0  0  0
  -25.7002   -0.3354   31.5831 C   0  0  0  0  0  0  0  0  0  0  0  0
  -26.8590    1.7362   31.6598 C   0  0  0  0  0  0  0  0  0  0  0  0
  -25.8690    0.9489   32.1232 C   0  0  0  0  0  0  0  0  0  0  0  0
  -30.6573   -0.0755   26.9227 C   0  0  0  0  0  0  0  0  0  0  0  0
  -31.5835   -0.6547   25.8917 C   0  0  0  0  0  0  0  0  0  0  0  0
  -32.5059   -1.6020   26.3778 C   0  0  0  0  0  0  0  0  0  0  0  0
  -32.4424   -1.9211   27.7639 C   0  0  0  0  0  0  0  0  0  0  0  0
  -31.5439   -1.3199   28.6157 C   0  0  0  0  0  0  0  0  0  0  0  0
  -33.5471   -2.8523   28.0774 C   0  0  0  0  0  0  0  0  0  0  0  0
  -33.7792   -3.3263   29.1397 O   0  0  0  0  0  0  0  0  0  0  0  0
  -34.4344   -3.0577   27.1779 O   0  0  0  0  0  0  0  0  0  0  0  0
  -29.4368    1.1897   26.1008 Br  0  0  0  0  0  0  0  0  0  0  0  0
  -27.0229    3.1367   32.1886 C   0  0  0  0  0  0  0  0  0  0  0  0
  -27.7959    3.3989   32.9529 C   0  0  0  0  0  0  0  0  0  0  0  0
  -26.0181    4.0484   31.6067 C   0  0  0  0  0  0  0  0  0  0  0  0
  -25.3328    3.9613   30.6006 C   0  0  0  0  0  0  0  0  0  0  0  0
  -26.2632    5.4259   32.1629 C   0  0  0  0  0  0  0  0  0  0  0  0
  -25.4773    6.5228   31.6895 C   0  0  0  0  0  0  0  0  0  0  0  0
  -24.9081    7.2879   32.5165 C   0  0  0  0  0  0  0  0  0  0  0  0
  -28.0171    4.6937   33.5940 C   0  0  0  0  0  0  0  0  0  0  0  0
  -27.1455    5.7042   33.2189 C   0  0  0  0  0  0  0  0  0  0  0  0
  -25.3124    6.6673   30.3017 C   0  0  0  0  0  0  0  0  0  0  0  0
  -25.6572    5.8324   29.3945 C   0  0  0  0  0  0  0  0  0  0  0  0
  -25.4175    4.4863   29.3746 C   0  0  0  0  0  0  0  0  0  0  0  0
  -25.2841    3.7135   28.1837 C   0  0  0  0  0  0  0  0  0  0  0  0
  -24.5972    2.7388   28.1625 O   0  0  0  0  0  0  0  0  0  0  0  0
  -25.8575    4.0936   27.0274 N   0  0  0  0  0  0  0  0  0  0  0  0
  -25.7046    3.3636   25.7991 C   0  0  0  0  0  0  0  0  0  0  0  0
  1  2  2  0
  2  3  1  0
  2  4  1  0
  4  6  1  0
 14 16  1  0
 16 17  2  0
 16 18  1  0
 11 19  1  0
  9 20  1  0
 22 23  1  0
 24 25  1  0
 25 26  2  0
 25 29  1  0
 29 30  2  0
 23 31  1  0
 30 31  1  0
 31 32  1  0
 32 33  2  0
 32 34  1  0
 34 35  1  0
  6 11  2  0
 11 12  1  0
 12 13  2  0
 13 14  1  0
 14 15  2  0
 15  6  1  0
 20 21  2  0
 21 27  1  0
 27 28  2  0
 28 24  1  0
 24 22  2  0
 22 20  1  0
  3  5  2  0
  5  9  1  0
  9 10  2  0
 10  8  1  0
  8  7  2  0
  7  3  1  0
M  END

$$$$
