No_201-gen_results/8p0m/2024-11-26-14-13-15/
     RDKit          3D

 26 27  0  0  0  0  0  0  0  0999 V2000
  -28.0162   -0.8135   28.8779 C   0  0  0  0  0  0  0  0  0  0  0  0
  -28.4690   -0.7850   29.8287 C   0  0  0  0  0  0  0  0  0  0  0  0
  -26.5042   -0.7777   28.8766 C   0  0  0  0  0  0  0  0  0  0  0  0
  -25.6540   -0.6597   27.7191 C   0  0  0  0  0  0  0  0  0  0  0  0
  -27.9180   -0.9374   31.1824 C   0  0  0  0  0  0  0  0  0  0  0  0
  -26.5423   -0.9399   31.2606 C   0  0  0  0  0  0  0  0  0  0  0  0
  -25.7832   -0.8935   30.1201 C   0  0  0  0  0  0  0  0  0  0  0  0
  -24.5285   -1.2244   27.7836 F   0  0  0  0  0  0  0  0  0  0  0  0
  -25.4143    0.6864   27.4207 F   0  0  0  0  0  0  0  0  0  0  0  0
  -26.3277   -1.0051   26.5536 F   0  0  0  0  0  0  0  0  0  0  0  0
  -30.0525   -0.8138   29.8905 C   0  0  0  0  0  0  0  0  0  0  0  0
  -30.6188   -0.2689   29.0853 O   0  0  0  0  0  0  0  0  0  0  0  0
  -30.6811   -1.4001   30.8847 O   0  0  0  0  0  0  0  0  0  0  0  0
  -31.8803   -0.6154   28.5129 C   0  0  0  0  0  0  0  0  0  0  0  0
  -32.4916    0.5388   27.8951 C   0  0  0  0  0  0  0  0  0  0  0  0
  -31.9837    1.7431   28.0460 C   0  0  0  0  0  0  0  0  0  0  0  0
  -31.5440    2.3271   27.0283 C   0  0  0  0  0  0  0  0  0  0  0  0
  -30.6143    2.5786   26.6907 C   0  0  0  0  0  0  0  0  0  0  0  0
  -30.1557    3.1958   25.4104 C   0  0  0  0  0  0  0  0  0  0  0  0
  -31.1575    3.6278   24.5896 C   0  0  0  0  0  0  0  0  0  0  0  0
  -32.4236    3.4359   24.9370 C   0  0  0  0  0  0  0  0  0  0  0  0
  -32.7035    2.8234   26.1148 C   0  0  0  0  0  0  0  0  0  0  0  0
  -32.1607   -1.7685   28.3961 O   0  0  0  0  0  0  0  0  0  0  0  0
  -33.6053    0.2782   27.2497 N   0  0  0  0  0  0  0  0  0  0  0  0
  -33.7646   -0.3886   26.1842 C   0  0  0  0  0  0  0  0  0  0  0  0
  -34.4763   -1.1070   26.0083 C   0  0  0  0  0  0  0  0  0  0  0  0
  3  4  1  0
  4  8  1  0
  4  9  1  0
  4 10  1  0
  2 11  1  0
 11 12  1  0
 11 13  2  0
 12 14  1  0
 14 15  1  0
 15 16  1  0
 14 23  2  0
 15 24  2  3
 24 25  1  0
 25 26  2  0
 16 17  1  0
 17 18  2  0
 18 19  1  0
 19 20  2  0
 20 21  1  0
 21 22  2  0
 22 17  1  0
  1  2  2  0
  2  5  1  0
  5  6  2  0
  6  7  1  0
  7  3  2  0
  3  1  1  0
M  END

$$$$
