No_2631-gen_results/8p0m/2024-11-26-14-13-15/
     RDKit          3D

 25 27  0  0  0  0  0  0  0  0999 V2000
  -28.0162   -0.8135   28.8779 C   0  0  0  0  0  0  0  0  0  0  0  0
  -28.4690   -0.7850   29.8287 C   0  0  0  0  0  0  0  0  0  0  0  0
  -27.1356    0.2359   28.5352 C   0  0  0  0  0  0  0  0  0  0  0  0
  -26.3351    0.2900   27.2835 C   0  0  0  0  0  0  0  0  0  0  0  0
  -28.2789    0.0305   30.6941 C   0  0  0  0  0  0  0  0  0  0  0  0
  -27.4578    1.1551   30.6624 C   0  0  0  0  0  0  0  0  0  0  0  0
  -26.7863    1.2369   29.4971 C   0  0  0  0  0  0  0  0  0  0  0  0
  -26.8376    0.5104   26.2518 C   0  0  0  0  0  0  0  0  0  0  0  0
  -28.1889    0.8707   26.0877 C   0  0  0  0  0  0  0  0  0  0  0  0
  -28.7395    0.9055   24.7521 C   0  0  0  0  0  0  0  0  0  0  0  0
  -30.0797    1.2984   24.5705 C   0  0  0  0  0  0  0  0  0  0  0  0
  -30.7256    1.4807   25.3142 C   0  0  0  0  0  0  0  0  0  0  0  0
  -30.3883    1.4818   26.7583 C   0  0  0  0  0  0  0  0  0  0  0  0
  -29.1038    1.2221   27.0697 C   0  0  0  0  0  0  0  0  0  0  0  0
  -25.9897    0.8556   25.0966 C   0  0  0  0  0  0  0  0  0  0  0  0
  -24.9619   -0.1520   27.4970 C   0  0  0  0  0  0  0  0  0  0  0  0
  -24.4684   -0.7106   28.6960 C   0  0  0  0  0  0  0  0  0  0  0  0
  -24.5390   -1.7561   29.0640 C   0  0  0  0  0  0  0  0  0  0  0  0
  -23.8707   -2.2215   30.3281 C   0  0  0  0  0  0  0  0  0  0  0  0
  -23.3670   -1.2050   31.1845 C   0  0  0  0  0  0  0  0  0  0  0  0
  -23.7673    0.3697   29.5480 C   0  0  0  0  0  0  0  0  0  0  0  0
  -23.3242    0.1028   30.7737 C   0  0  0  0  0  0  0  0  0  0  0  0
  -29.5078   -1.9623   30.1854 C   0  0  0  0  0  0  0  0  0  0  0  0
  -30.5947   -1.9191   30.3192 O   0  0  0  0  0  0  0  0  0  0  0  0
  -28.8983   -3.1860   30.2991 O   0  0  0  0  0  0  0  0  0  0  0  0
  3  4  1  0
  4  8  1  0
  8  9  1  0
  8 15  1  0
  4 16  1  0
 16 17  1  0
  2 23  1  0
 23 24  2  0
 23 25  1  0
  9 10  2  0
 10 11  1  0
 11 12  2  0
 12 13  1  0
 13 14  2  0
 14  9  1  0
 17 18  2  0
 18 19  1  0
 19 20  2  0
 20 22  1  0
 22 21  2  0
 21 17  1  0
  1  2  2  0
  2  5  1  0
  5  6  2  0
  6  7  1  0
  7  3  2  0
  3  1  1  0
M  END

$$$$
