No_2990-gen_results/8p0m/2024-11-26-14-13-15/
     RDKit          3D

 17 17  0  0  0  0  0  0  0  0999 V2000
  -28.0162   -0.8135   28.8779 C   0  0  0  0  0  0  0  0  0  0  0  0
  -27.0636   -0.1189   28.6079 C   0  0  0  0  0  0  0  0  0  0  0  0
  -26.8756    1.1325   28.9134 C   0  0  0  0  0  0  0  0  0  0  0  0
  -25.6883    1.9515   28.5672 C   0  0  0  0  0  0  0  0  0  0  0  0
  -24.6394    1.2834   27.8753 C   0  0  0  0  0  0  0  0  0  0  0  0
  -24.8068   -0.0513   27.6040 C   0  0  0  0  0  0  0  0  0  0  0  0
  -25.9019   -0.7670   27.9511 C   0  0  0  0  0  0  0  0  0  0  0  0
  -28.6391   -0.5118   30.2403 C   0  0  0  0  0  0  0  0  0  0  0  0
  -29.6536   -1.1144   30.6354 C   0  0  0  0  0  0  0  0  0  0  0  0
  -23.4500    1.9911   27.4655 C   0  0  0  0  0  0  0  0  0  0  0  0
  -23.4459    2.4845   26.3783 F   0  0  0  0  0  0  0  0  0  0  0  0
  -23.0370    2.9185   28.4262 F   0  0  0  0  0  0  0  0  0  0  0  0
  -22.3182    1.1182   27.5626 F   0  0  0  0  0  0  0  0  0  0  0  0
  -30.2456   -2.1433   29.8439 C   0  0  0  0  0  0  0  0  0  0  0  0
  -31.1932   -3.0035   30.3797 C   0  0  0  0  0  0  0  0  0  0  0  0
  -31.7452   -2.7440   31.6238 C   0  0  0  0  0  0  0  0  0  0  0  0
  -31.2794   -1.7666   32.4558 C   0  0  0  0  0  0  0  0  0  0  0  0
  1  8  1  0
  8  9  2  3
  5 10  1  0
 10 11  1  0
 10 12  1  0
 10 13  1  0
  9 14  1  0
 14 15  2  3
 15 16  1  0
 16 17  2  0
  1  2  1  0
  2  3  2  0
  3  4  1  0
  4  5  2  0
  5  6  1  0
  6  7  2  0
  7  2  1  0
M  END

$$$$
