No_2910-gen_results/8p0m/2024-11-26-14-13-15/
     RDKit          3D

 20 23  0  0  0  0  0  0  0  0999 V2000
  -28.0162   -0.8135   28.8779 C   0  0  0  0  0  0  0  0  0  0  0  0
  -27.0636   -0.1189   28.6079 C   0  0  0  0  0  0  0  0  0  0  0  0
  -26.9716    0.7139   27.5060 C   0  0  0  0  0  0  0  0  0  0  0  0
  -25.8205    1.4909   27.1160 C   0  0  0  0  0  0  0  0  0  0  0  0
  -25.7505    2.3193   26.0233 C   0  0  0  0  0  0  0  0  0  0  0  0
  -26.8263    2.2181   25.1373 C   0  0  0  0  0  0  0  0  0  0  0  0
  -27.9219    1.4707   25.3693 C   0  0  0  0  0  0  0  0  0  0  0  0
  -27.9201    0.7049   26.5395 C   0  0  0  0  0  0  0  0  0  0  0  0
  -28.0691   -1.5855   30.1465 C   0  0  0  0  0  0  0  0  0  0  0  0
  -26.8934   -1.7725   30.8693 C   0  0  0  0  0  0  0  0  0  0  0  0
  -25.7089   -1.1804   30.4661 C   0  0  0  0  0  0  0  0  0  0  0  0
  -25.7600   -0.3315   29.3682 C   0  0  0  0  0  0  0  0  0  0  0  0
  -29.2818   -2.3225   30.5501 C   0  0  0  0  0  0  0  0  0  0  0  0
  -29.2620   -3.4911   30.8831 O   0  0  0  0  0  0  0  0  0  0  0  0
  -30.4365   -1.8354   30.1212 O   0  0  0  0  0  0  0  0  0  0  0  0
  -24.5571    3.1434   25.8189 C   0  0  0  0  0  0  0  0  0  0  0  0
  -23.3839    2.7049   26.3048 N   0  0  0  0  0  0  0  0  0  0  0  0
  -23.3253    2.1108   27.5538 C   0  0  0  0  0  0  0  0  0  0  0  0
  -24.5354    1.3494   27.9348 C   0  0  0  0  0  0  0  0  0  0  0  0
  -24.6306    0.4768   28.9156 C   0  0  0  0  0  0  0  0  0  0  0  0
  2  3  1  0
  9 13  1  0
 13 14  2  0
 13 15  1  0
 12 20  1  0
 19 20  1  0
  1  2  2  0
  2 12  1  0
 12 11  2  0
 11 10  1  0
 10  9  2  0
  9  1  1  0
  5 16  1  0
 16 17  2  0
 17 18  1  0
 18 19  2  0
 19  4  1  0
  3  4  2  0
  4  5  1  0
  5  6  2  0
  6  7  1  0
  7  8  2  0
  8  3  1  0
M  END

$$$$
