No_2505-gen_results/8p0m/2024-11-26-14-13-15/
     RDKit          3D

 21 22  0  0  0  0  0  0  0  0999 V2000
  -28.0162   -0.8135   28.8779 C   0  0  0  0  0  0  0  0  0  0  0  0
  -27.0636   -0.1189   28.6079 C   0  0  0  0  0  0  0  0  0  0  0  0
  -27.0010    0.6913   27.4910 C   0  0  0  0  0  0  0  0  0  0  0  0
  -28.1373    0.7363   26.6350 C   0  0  0  0  0  0  0  0  0  0  0  0
  -29.2360    0.0765   27.0690 C   0  0  0  0  0  0  0  0  0  0  0  0
  -29.2177   -0.6429   28.1747 C   0  0  0  0  0  0  0  0  0  0  0  0
  -28.0030   -1.6604   30.1266 C   0  0  0  0  0  0  0  0  0  0  0  0
  -28.6910   -1.7921   30.8886 O   0  0  0  0  0  0  0  0  0  0  0  0
  -26.8652   -2.5159   30.0807 O   0  0  0  0  0  0  0  0  0  0  0  0
  -30.4292    0.1677   26.1966 C   0  0  0  0  0  0  0  0  0  0  0  0
  -30.3222    0.1602   25.0134 F   0  0  0  0  0  0  0  0  0  0  0  0
  -31.1941    1.2018   26.6164 F   0  0  0  0  0  0  0  0  0  0  0  0
  -31.2687   -0.9441   26.4560 F   0  0  0  0  0  0  0  0  0  0  0  0
  -25.7495    1.4269   27.0680 C   0  0  0  0  0  0  0  0  0  0  0  0
  -24.6078    1.0068   27.5447 C   0  0  0  0  0  0  0  0  0  0  0  0
  -23.3446    1.6865   27.2683 C   0  0  0  0  0  0  0  0  0  0  0  0
  -22.1305    1.4408   27.9076 C   0  0  0  0  0  0  0  0  0  0  0  0
  -22.0889    0.3359   28.7752 C   0  0  0  0  0  0  0  0  0  0  0  0
  -23.2203   -0.4943   28.9662 C   0  0  0  0  0  0  0  0  0  0  0  0
  -24.3940   -0.1205   28.4269 C   0  0  0  0  0  0  0  0  0  0  0  0
  -25.7540    1.5939   25.5167 C   0  0  0  0  0  0  0  0  0  0  0  0
  1  7  1  0
  7  8  2  0
  7  9  1  0
  5 10  1  0
 10 11  1  0
 10 12  1  0
 10 13  1  0
  3 14  1  0
 14 21  1  0
 14 15  1  0
 15 16  2  0
 16 17  1  0
 17 18  2  0
 18 19  1  0
 19 20  2  0
 20 15  1  0
  1  2  2  0
  2  3  1  0
  3  4  2  0
  4  5  1  0
  5  6  2  0
  6  1  1  0
M  END

$$$$
