No_2789-gen_results/8p0m/2024-11-26-14-13-15/
     RDKit          3D

 35 37  0  0  0  0  0  0  0  0999 V2000
  -28.0162   -0.8135   28.8779 C   0  0  0  0  0  0  0  0  0  0  0  0
  -28.4690   -0.7850   29.8287 C   0  0  0  0  0  0  0  0  0  0  0  0
  -26.5042   -0.7777   28.8766 C   0  0  0  0  0  0  0  0  0  0  0  0
  -25.8103   -0.8531   30.1028 C   0  0  0  0  0  0  0  0  0  0  0  0
  -27.9906   -0.8916   31.2257 C   0  0  0  0  0  0  0  0  0  0  0  0
  -26.6042   -0.8676   31.2652 C   0  0  0  0  0  0  0  0  0  0  0  0
  -24.3894   -0.8049   30.1638 C   0  0  0  0  0  0  0  0  0  0  0  0
  -23.8657   -1.2777   31.0130 O   0  0  0  0  0  0  0  0  0  0  0  0
  -23.7818    0.0959   29.3797 O   0  0  0  0  0  0  0  0  0  0  0  0
  -30.0967   -0.8357   29.8520 C   0  0  0  0  0  0  0  0  0  0  0  0
  -30.7273   -0.2260   30.7352 O   0  0  0  0  0  0  0  0  0  0  0  0
  -30.6404   -1.4224   28.9134 O   0  0  0  0  0  0  0  0  0  0  0  0
  -22.4399   -0.1051   29.0427 C   0  0  0  0  0  0  0  0  0  0  0  0
  -21.8767    1.0955   28.3630 C   0  0  0  0  0  0  0  0  0  0  0  0
  -22.4900    1.4793   27.5639 O   0  0  0  0  0  0  0  0  0  0  0  0
  -23.6116    2.3399   27.7332 C   0  0  0  0  0  0  0  0  0  0  0  0
  -24.2500    2.7008   26.4698 C   0  0  0  0  0  0  0  0  0  0  0  0
  -24.2379    1.7834   25.5076 C   0  0  0  0  0  0  0  0  0  0  0  0
  -24.9126    0.5553   25.7480 C   0  0  0  0  0  0  0  0  0  0  0  0
  -25.4236   -0.2893   24.7571 C   0  0  0  0  0  0  0  0  0  0  0  0
  -26.3941   -1.2521   25.2515 C   0  0  0  0  0  0  0  0  0  0  0  0
  -27.2833   -1.5804   24.2500 C   0  0  0  0  0  0  0  0  0  0  0  0
  -28.4199   -0.6874   23.9783 C   0  0  0  0  0  0  0  0  0  0  0  0
  -28.4314    0.5651   24.4468 C   0  0  0  0  0  0  0  0  0  0  0  0
  -29.5555    1.4235   24.2278 C   0  0  0  0  0  0  0  0  0  0  0  0
  -30.6699    0.8158   23.6135 C   0  0  0  0  0  0  0  0  0  0  0  0
  -29.6621   -1.1189   23.4694 C   0  0  0  0  0  0  0  0  0  0  0  0
  -30.7371   -0.4061   23.3384 C   0  0  0  0  0  0  0  0  0  0  0  0
  -31.8826    1.7473   23.4732 C   0  0  0  0  0  0  0  0  0  0  0  0
  -32.9831    1.4085   24.0543 C   0  0  0  0  0  0  0  0  0  0  0  0
  -34.1187    2.2022   23.8892 C   0  0  0  0  0  0  0  0  0  0  0  0
  -34.0491    3.4188   23.0984 C   0  0  0  0  0  0  0  0  0  0  0  0
  -32.9089    3.7764   22.4458 C   0  0  0  0  0  0  0  0  0  0  0  0
  -31.7603    2.9766   22.6230 C   0  0  0  0  0  0  0  0  0  0  0  0
  -24.8741    3.9557   26.2570 C   0  0  0  0  0  0  0  0  0  0  0  0
  4  7  1  0
  7  8  2  0
  7  9  1  0
  2 10  1  0
 10 11  2  0
 10 12  1  0
  9 13  1  0
 13 14  1  0
 14 15  1  0
 15 16  1  0
 16 17  2  3
 17 18  1  0
 18 19  1  0
 19 20  2  3
 20 21  1  0
 21 22  2  3
 22 23  1  0
 26 29  1  0
 17 35  1  0
 29 30  2  0
 30 31  1  0
 31 32  2  0
 32 33  1  0
 33 34  2  0
 34 29  1  0
 23 24  2  0
 24 25  1  0
 25 26  2  0
 26 28  1  0
 28 27  2  0
 27 23  1  0
  1  2  2  0
  2  5  1  0
  5  6  2  0
  6  4  1  0
  4  3  2  0
  3  1  1  0
M  END

$$$$
