No_202-gen_results/8p0m/2024-11-26-14-13-15/
     RDKit          3D

 18 18  0  0  0  0  0  0  0  0999 V2000
  -28.0727   -1.2542   28.5316 F   0  0  0  0  0  0  0  0  0  0  0  0
  -28.2662   -0.4214   29.1931 C   0  0  0  0  0  0  0  0  0  0  0  0
  -29.4400   -0.1817   29.3649 F   0  0  0  0  0  0  0  0  0  0  0  0
  -27.6958   -0.7085   30.4324 F   0  0  0  0  0  0  0  0  0  0  0  0
  -27.5418    0.7768   28.6351 C   0  0  0  0  0  0  0  0  0  0  0  0
  -27.1712    1.6999   29.4293 C   0  0  0  0  0  0  0  0  0  0  0  0
  -27.3882    0.8746   27.2654 C   0  0  0  0  0  0  0  0  0  0  0  0
  -26.4303    2.8749   28.9849 C   0  0  0  0  0  0  0  0  0  0  0  0
  -26.6655    2.0250   26.6884 C   0  0  0  0  0  0  0  0  0  0  0  0
  -26.2169    3.0301   27.6037 C   0  0  0  0  0  0  0  0  0  0  0  0
  -25.5143    4.2005   27.0880 C   0  0  0  0  0  0  0  0  0  0  0  0
  -25.5894    5.3376   27.6423 N   0  0  0  0  0  0  0  0  0  0  0  0
  -24.4571    4.0185   26.0480 C   0  0  0  0  0  0  0  0  0  0  0  0
  -24.9195    6.4900   27.1633 C   0  0  0  0  0  0  0  0  0  0  0  0
  -24.1770    2.7504   25.5248 C   0  0  0  0  0  0  0  0  0  0  0  0
  -24.9732    7.6641   28.0403 C   0  0  0  0  0  0  0  0  0  0  0  0
  -25.2382    7.4063   29.3738 C   0  0  0  0  0  0  0  0  0  0  0  0
  -25.8722    6.3127   29.7948 C   0  0  0  0  0  0  0  0  0  0  0  0
  1  2  1  0
  2  3  1  0
  2  4  1  0
  2  5  1  0
 10 11  1  0
 11 12  2  3
 11 13  1  0
 12 14  1  0
 13 15  1  0
 14 16  1  0
 16 17  1  0
 17 18  2  0
  5  6  2  0
  6  8  1  0
  8 10  2  0
 10  9  1  0
  9  7  2  0
  7  5  1  0
M  END

$$$$
