No_2129-gen_results/8p0m/2024-11-26-14-13-15/
     RDKit          3D

 26 26  0  0  0  0  0  0  0  0999 V2000
  -28.0162   -0.8135   28.8779 C   0  0  0  0  0  0  0  0  0  0  0  0
  -27.0636   -0.1189   28.6079 C   0  0  0  0  0  0  0  0  0  0  0  0
  -26.8756    1.1325   28.9134 C   0  0  0  0  0  0  0  0  0  0  0  0
  -25.6883    1.9515   28.5672 C   0  0  0  0  0  0  0  0  0  0  0  0
  -24.6394    1.2834   27.8753 C   0  0  0  0  0  0  0  0  0  0  0  0
  -24.8068   -0.0513   27.6040 C   0  0  0  0  0  0  0  0  0  0  0  0
  -25.9020   -0.7670   27.9511 C   0  0  0  0  0  0  0  0  0  0  0  0
  -28.0678   -1.4475   30.2707 C   0  0  0  0  0  0  0  0  0  0  0  0
  -28.8375   -1.5002   30.9687 C   0  0  0  0  0  0  0  0  0  0  0  0
  -28.8365   -2.3418   32.2399 C   0  0  0  0  0  0  0  0  0  0  0  0
  -23.4475    1.9899   27.4666 C   0  0  0  0  0  0  0  0  0  0  0  0
  -23.3022    2.4123   26.5251 F   0  0  0  0  0  0  0  0  0  0  0  0
  -23.0765    2.9025   28.4898 F   0  0  0  0  0  0  0  0  0  0  0  0
  -22.3122    1.0852   27.7100 F   0  0  0  0  0  0  0  0  0  0  0  0
  -26.8268   -2.3071   30.5400 C   0  0  0  0  0  0  0  0  0  0  0  0
  -25.7389   -2.2114   29.7765 N   0  0  0  0  0  0  0  0  0  0  0  0
  -24.9215   -3.0978   29.3413 C   0  0  0  0  0  0  0  0  0  0  0  0
  -25.1267   -4.4953   29.7736 C   0  0  0  0  0  0  0  0  0  0  0  0
  -29.9425   -2.1538   33.1281 C   0  0  0  0  0  0  0  0  0  0  0  0
  -29.9716   -2.9033   34.2689 C   0  0  0  0  0  0  0  0  0  0  0  0
  -23.8055   -2.9174   28.5271 C   0  0  0  0  0  0  0  0  0  0  0  0
  -30.8139   -3.6163   34.5634 C   0  0  0  0  0  0  0  0  0  0  0  0
  -31.9676   -3.7238   33.7310 C   0  0  0  0  0  0  0  0  0  0  0  0
  -32.1487   -2.8721   32.6966 C   0  0  0  0  0  0  0  0  0  0  0  0
  -31.0081   -2.2285   32.2547 C   0  0  0  0  0  0  0  0  0  0  0  0
  -30.9373   -1.7075   30.9948 C   0  0  0  0  0  0  0  0  0  0  0  0
  1  8  1  0
  8  9  2  3
  9 10  1  0
  5 11  1  0
 11 12  1  0
 11 13  1  0
 11 14  1  0
  8 15  1  0
 15 16  1  0
 16 17  1  0
 17 18  2  0
 10 19  2  3
 19 20  1  0
 17 21  1  0
 20 22  2  3
 22 23  1  0
 23 24  2  3
 24 25  1  0
 25 26  2  0
  1  2  1  0
  2  3  2  0
  3  4  1  0
  4  5  2  0
  5  6  1  0
  6  7  2  0
  7  2  1  0
M  END

$$$$
