No_2986-gen_results/8p0m/2024-11-26-14-13-15/
     RDKit          3D

 15 16  0  0  0  0  0  0  0  0999 V2000
  -28.0162   -0.8135   28.8779 C   0  0  0  0  0  0  0  0  0  0  0  0
  -28.4690   -0.7850   29.8287 C   0  0  0  0  0  0  0  0  0  0  0  0
  -27.1356    0.2359   28.5352 C   0  0  0  0  0  0  0  0  0  0  0  0
  -26.8745    1.2825   29.3982 C   0  0  0  0  0  0  0  0  0  0  0  0
  -27.5070    1.2380   30.6295 C   0  0  0  0  0  0  0  0  0  0  0  0
  -28.3269    0.1637   30.9240 C   0  0  0  0  0  0  0  0  0  0  0  0
  -26.4110    0.3070   27.2192 C   0  0  0  0  0  0  0  0  0  0  0  0
  -25.0121    0.3340   27.3197 C   0  0  0  0  0  0  0  0  0  0  0  0
  -24.3469    0.8865   26.1549 C   0  0  0  0  0  0  0  0  0  0  0  0
  -26.8561    1.1835   26.2534 C   0  0  0  0  0  0  0  0  0  0  0  0
  -26.2560    1.4729   25.0637 C   0  0  0  0  0  0  0  0  0  0  0  0
  -24.8610    1.5641   25.1804 C   0  0  0  0  0  0  0  0  0  0  0  0
  -28.4430    0.9575   25.9443 C   0  0  0  0  0  0  0  0  0  0  0  0
  -29.2758    1.8453   26.0552 C   0  0  0  0  0  0  0  0  0  0  0  0
  -30.3906    1.9401   26.1249 C   0  0  0  0  0  0  0  0  0  0  0  0
  3  7  1  0
 10 13  1  0
 13 14  2  3
 14 15  1  0
  1  2  2  0
  2  6  1  0
  6  5  2  0
  5  4  1  0
  4  3  2  0
  3  1  1  0
  7  8  2  0
  8  9  1  0
  9 12  2  0
 12 11  1  0
 11 10  2  0
 10  7  1  0
M  END

$$$$
