No_2583-gen_results/8p0m/2024-11-26-14-13-15/
     RDKit          3D

 31 35  0  0  0  0  0  0  0  0999 V2000
  -28.0162   -0.8135   28.8779 C   0  0  0  0  0  0  0  0  0  0  0  0
  -27.0636   -0.1189   28.6079 C   0  0  0  0  0  0  0  0  0  0  0  0
  -25.7923   -0.4302   29.0761 C   0  0  0  0  0  0  0  0  0  0  0  0
  -25.5756   -1.5654   29.9363 C   0  0  0  0  0  0  0  0  0  0  0  0
  -26.7354   -2.3004   30.2173 C   0  0  0  0  0  0  0  0  0  0  0  0
  -27.9184   -1.9537   29.7629 C   0  0  0  0  0  0  0  0  0  0  0  0
  -26.8968    1.1016   27.7052 C   0  0  0  0  0  0  0  0  0  0  0  0
  -27.7061    1.4295   26.9663 C   0  0  0  0  0  0  0  0  0  0  0  0
  -28.9664    0.6339   26.8427 C   0  0  0  0  0  0  0  0  0  0  0  0
  -29.9426    1.3153   26.7143 C   0  0  0  0  0  0  0  0  0  0  0  0
  -31.2831    0.6460   26.7384 C   0  0  0  0  0  0  0  0  0  0  0  0
  -31.2094   -0.7053   26.6097 C   0  0  0  0  0  0  0  0  0  0  0  0
  -30.0740   -1.3517   26.3834 C   0  0  0  0  0  0  0  0  0  0  0  0
  -28.8630   -0.7252   26.6062 C   0  0  0  0  0  0  0  0  0  0  0  0
  -32.5084   -1.5159   26.3550 C   0  0  0  0  0  0  0  0  0  0  0  0
  -32.8869   -2.1969   27.6226 C   0  0  0  0  0  0  0  0  0  0  0  0
  -33.3309   -3.3235   27.5455 C   0  0  0  0  0  0  0  0  0  0  0  0
  -33.5604   -4.1381   28.7389 C   0  0  0  0  0  0  0  0  0  0  0  0
  -33.2923   -3.5537   30.0001 C   0  0  0  0  0  0  0  0  0  0  0  0
  -32.7896   -2.2719   30.0386 C   0  0  0  0  0  0  0  0  0  0  0  0
  -32.5109   -1.6201   28.8774 C   0  0  0  0  0  0  0  0  0  0  0  0
  -33.6002   -0.5934   25.9623 C   0  0  0  0  0  0  0  0  0  0  0  0
  -32.2610   -2.5705   25.2782 C   0  0  0  0  0  0  0  0  0  0  0  0
  -24.6208    0.3482   28.6310 C   0  0  0  0  0  0  0  0  0  0  0  0
  -25.2707    1.3414   27.7325 C   0  0  0  0  0  0  0  0  0  0  0  0
  -23.2917    0.3731   28.9723 C   0  0  0  0  0  0  0  0  0  0  0  0
  -22.6992   -0.6837   29.5241 C   0  0  0  0  0  0  0  0  0  0  0  0
  -21.2542   -0.5415   29.5177 N   0  0  0  0  0  0  0  0  0  0  0  0
  -22.2047    0.9575   28.0539 C   0  0  0  0  0  0  0  0  0  0  0  0
  -22.4609    2.0186   27.2635 N   0  0  0  0  0  0  0  0  0  0  0  0
  -21.0195    0.5373   28.5630 N   0  0  0  0  0  0  0  0  0  0  0  0
  2  7  1  0
  7  8  2  3
  8  9  1  0
 12 15  1  0
 15 16  1  0
 15 22  1  0
 15 23  1  0
  3 24  1  0
  7 25  1  0
 24 25  2  0
 24 26  1  0
 26 27  2  0
 27 28  1  0
 26 29  1  0
 29 30  1  0
 28 31  1  0
 29 31  1  0
  1  2  2  0
  2  3  1  0
  3  4  2  0
  4  5  1  0
  5  6  2  0
  6  1  1  0
  9 10  2  0
 10 11  1  0
 11 12  2  0
 12 13  1  0
 13 14  2  0
 14  9  1  0
 16 17  2  0
 17 18  1  0
 18 19  2  0
 19 20  1  0
 20 21  2  0
 21 16  1  0
M  END

$$$$
