No_2054-gen_results/8p0m/2024-11-26-14-13-15/
     RDKit          3D

 26 27  0  0  0  0  0  0  0  0999 V2000
  -28.0162   -0.8135   28.8779 C   0  0  0  0  0  0  0  0  0  0  0  0
  -27.0636   -0.1190   28.6079 C   0  0  0  0  0  0  0  0  0  0  0  0
  -26.9849    0.5972   27.5218 N   0  0  0  0  0  0  0  0  0  0  0  0
  -27.9606   -1.5421   30.1660 C   0  0  0  0  0  0  0  0  0  0  0  0
  -26.8633   -1.6702   30.6613 C   0  0  0  0  0  0  0  0  0  0  0  0
  -25.6309   -1.1471   30.3294 C   0  0  0  0  0  0  0  0  0  0  0  0
  -25.7307   -0.3002   29.1969 C   0  0  0  0  0  0  0  0  0  0  0  0
  -26.6932    1.9442   27.4779 C   0  0  0  0  0  0  0  0  0  0  0  0
  -26.0521    2.6977   27.1006 C   0  0  0  0  0  0  0  0  0  0  0  0
  -24.7959    2.3870   26.2751 C   0  0  0  0  0  0  0  0  0  0  0  0
  -24.2279    1.2210   26.2707 C   0  0  0  0  0  0  0  0  0  0  0  0
  -27.0276    0.0215   26.1869 C   0  0  0  0  0  0  0  0  0  0  0  0
  -24.3569    0.4591   27.2858 C   0  0  0  0  0  0  0  0  0  0  0  0
  -24.4982   -0.0354   28.5380 C   0  0  0  0  0  0  0  0  0  0  0  0
  -24.9998   -0.7626   26.6860 F   0  0  0  0  0  0  0  0  0  0  0  0
  -28.1872    0.5407   25.4845 C   0  0  0  0  0  0  0  0  0  0  0  0
  -26.2461   -0.6681   25.7678 F   0  0  0  0  0  0  0  0  0  0  0  0
  -23.1877    0.1307   29.2838 C   0  0  0  0  0  0  0  0  0  0  0  0
  -23.0581   -0.1151   27.1527 F   0  0  0  0  0  0  0  0  0  0  0  0
  -23.7167   -0.8810   28.5370 O   0  0  0  0  0  0  0  0  0  0  0  0
  -23.4459   -1.7713   29.5046 C   0  0  0  0  0  0  0  0  0  0  0  0
  -22.3757    1.1824   29.1214 C   0  0  0  0  0  0  0  0  0  0  0  0
  -23.3594   -0.0828   30.7775 O   0  0  0  0  0  0  0  0  0  0  0  0
  -22.2423   -0.2164   29.2936 O   0  0  0  0  0  0  0  0  0  0  0  0
  -21.6740   -0.9417   28.4909 C   0  0  0  0  0  0  0  0  0  0  0  0
  -21.4283    1.4553   28.2418 O   0  0  0  0  0  0  0  0  0  0  0  0
  2  3  1  0
  3  8  1  0
  8  9  2  3
  9 10  1  0
 10 11  2  3
  3 12  1  0
 11 13  1  0
  7 14  1  0
 13 14  1  0
 13 15  1  0
 12 16  1  0
 12 17  1  0
 14 18  1  0
 13 19  1  0
 14 20  1  0
 20 21  1  0
 18 22  1  0
 18 23  1  0
 18 24  1  0
 24 25  1  0
 22 26  2  0
  1  2  2  0
  2  7  1  0
  7  6  2  0
  6  5  1  0
  5  4  2  0
  4  1  1  0
M  END

$$$$
