No_2833-gen_results/8p0m/2024-11-26-14-13-15/
     RDKit          3D

 26 27  0  0  0  0  0  0  0  0999 V2000
  -28.0162   -0.8135   28.8779 C   0  0  0  0  0  0  0  0  0  0  0  0
  -27.0636   -0.1190   28.6079 C   0  0  0  0  0  0  0  0  0  0  0  0
  -26.9287    1.1713   29.0083 C   0  0  0  0  0  0  0  0  0  0  0  0
  -25.7702    2.0341   28.6884 C   0  0  0  0  0  0  0  0  0  0  0  0
  -24.7141    1.4431   27.9188 C   0  0  0  0  0  0  0  0  0  0  0  0
  -24.8590    0.0783   27.5836 C   0  0  0  0  0  0  0  0  0  0  0  0
  -25.9647   -0.6606   27.9164 C   0  0  0  0  0  0  0  0  0  0  0  0
  -28.6510   -0.6086   30.2543 C   0  0  0  0  0  0  0  0  0  0  0  0
  -28.0810   -0.9494   31.1792 F   0  0  0  0  0  0  0  0  0  0  0  0
  -28.9319    0.7279   30.3540 F   0  0  0  0  0  0  0  0  0  0  0  0
  -29.8561   -1.3252   30.2825 F   0  0  0  0  0  0  0  0  0  0  0  0
  -23.5018    2.1352   27.5672 C   0  0  0  0  0  0  0  0  0  0  0  0
  -22.3121    1.6598   27.5081 N   0  0  0  0  0  0  0  0  0  0  0  0
  -23.7048    3.1411   26.7164 O   0  0  0  0  0  0  0  0  0  0  0  0
  -21.8385    0.7569   28.5140 C   0  0  0  0  0  0  0  0  0  0  0  0
  -21.7393   -0.3866   28.5243 C   0  0  0  0  0  0  0  0  0  0  0  0
  -22.5587   -1.1702   29.4426 C   0  0  0  0  0  0  0  0  0  0  0  0
  -22.9685   -0.6039   30.7111 C   0  0  0  0  0  0  0  0  0  0  0  0
  -23.6978   -1.3208   31.6321 C   0  0  0  0  0  0  0  0  0  0  0  0
  -25.0417   -0.9206   31.8476 C   0  0  0  0  0  0  0  0  0  0  0  0
  -25.2433    0.3796   32.5987 C   0  0  0  0  0  0  0  0  0  0  0  0
  -24.7648    1.4823   31.7522 C   0  0  0  0  0  0  0  0  0  0  0  0
  -25.1352    2.8016   32.3663 C   0  0  0  0  0  0  0  0  0  0  0  0
  -25.9680    2.9225   33.4275 C   0  0  0  0  0  0  0  0  0  0  0  0
  -26.5541    1.7540   33.9863 C   0  0  0  0  0  0  0  0  0  0  0  0
  -26.2361    0.5030   33.5262 C   0  0  0  0  0  0  0  0  0  0  0  0
  1  2  1  0
  1  8  1  0
  8  9  1  0
  8 10  1  0
  8 11  1  0
  5 12  1  0
 12 13  1  0
 12 14  2  0
 13 15  1  0
 15 16  1  0
 16 17  1  0
 17 18  2  3
 18 19  1  0
 19 20  2  3
 20 21  1  0
  2  3  2  0
  3  4  1  0
  4  5  2  0
  5  6  1  0
  6  7  2  0
  7  2  1  0
 21 22  2  0
 22 23  1  0
 23 24  2  0
 24 25  1  0
 25 26  2  0
 26 21  1  0
M  END

$$$$
