No_2609-gen_results/8p0m/2024-11-26-14-13-15/
     RDKit          3D

 20 21  0  0  0  0  0  0  0  0999 V2000
  -28.0162   -0.8135   28.8779 C   0  0  0  0  0  0  0  0  0  0  0  0
  -28.4690   -0.7850   29.8287 C   0  0  0  0  0  0  0  0  0  0  0  0
  -26.5042   -0.7777   28.8766 C   0  0  0  0  0  0  0  0  0  0  0  0
  -25.8305   -1.6808   29.6849 C   0  0  0  0  0  0  0  0  0  0  0  0
  -28.0440   -1.2768   30.9816 C   0  0  0  0  0  0  0  0  0  0  0  0
  -26.6465   -1.7245   31.0112 C   0  0  0  0  0  0  0  0  0  0  0  0
  -29.9437   -0.3375   29.7581 C   0  0  0  0  0  0  0  0  0  0  0  0
  -30.2035    0.8070   30.2876 O   0  0  0  0  0  0  0  0  0  0  0  0
  -30.8532   -1.2729   29.6246 O   0  0  0  0  0  0  0  0  0  0  0  0
  -24.4875   -1.9313   29.7838 C   0  0  0  0  0  0  0  0  0  0  0  0
  -23.5759   -0.9020   29.9359 C   0  0  0  0  0  0  0  0  0  0  0  0
  -22.3998   -0.7842   29.1327 C   0  0  0  0  0  0  0  0  0  0  0  0
  -21.5953    0.3297   29.2441 C   0  0  0  0  0  0  0  0  0  0  0  0
  -23.7884    0.1865   30.8936 C   0  0  0  0  0  0  0  0  0  0  0  0
  -23.0189    1.3770   30.8115 C   0  0  0  0  0  0  0  0  0  0  0  0
  -21.9467    1.4167   30.0119 C   0  0  0  0  0  0  0  0  0  0  0  0
  -25.7386   -0.5657   27.5871 C   0  0  0  0  0  0  0  0  0  0  0  0
  -25.3755    0.8564   27.5234 C   0  0  0  0  0  0  0  0  0  0  0  0
  -24.6008    1.2519   26.3940 C   0  0  0  0  0  0  0  0  0  0  0  0
  -24.0685    2.5755   26.3705 C   0  0  0  0  0  0  0  0  0  0  0  0
  2  7  1  0
  7  8  2  0
  7  9  1  0
  4 10  1  0
 10 11  1  0
  3 17  1  0
 17 18  1  0
 18 19  2  3
 19 20  1  0
  1  2  2  0
  2  5  1  0
  5  6  2  0
  6  4  1  0
  4  3  2  0
  3  1  1  0
 11 12  2  0
 12 13  1  0
 13 16  2  0
 16 15  1  0
 15 14  2  0
 14 11  1  0
M  END

$$$$
