No_2862-gen_results/8p0m/2024-11-26-14-13-15/
     RDKit          3D

 19 21  0  0  0  0  0  0  0  0999 V2000
  -28.0162   -0.8135   28.8779 C   0  0  0  0  0  0  0  0  0  0  0  0
  -28.4690   -0.7850   29.8287 C   0  0  0  0  0  0  0  0  0  0  0  0
  -27.1356    0.2359   28.5352 C   0  0  0  0  0  0  0  0  0  0  0  0
  -26.3351    0.2900   27.2835 C   0  0  0  0  0  0  0  0  0  0  0  0
  -28.3692    0.1957   30.9236 C   0  0  0  0  0  0  0  0  0  0  0  0
  -27.5158    1.2655   30.6540 C   0  0  0  0  0  0  0  0  0  0  0  0
  -26.8411    1.2942   29.4761 C   0  0  0  0  0  0  0  0  0  0  0  0
  -25.6774    1.5199   26.9774 C   0  0  0  0  0  0  0  0  0  0  0  0
  -24.6512    1.5543   26.2096 C   0  0  0  0  0  0  0  0  0  0  0  0
  -23.8845    2.8925   26.0981 C   0  0  0  0  0  0  0  0  0  0  0  0
  -24.3714    4.0011   26.8162 C   0  0  0  0  0  0  0  0  0  0  0  0
  -25.5145    3.8796   27.5451 C   0  0  0  0  0  0  0  0  0  0  0  0
  -26.1261    2.6351   27.7527 C   0  0  0  0  0  0  0  0  0  0  0  0
  -26.7823    2.5336   28.9410 N   0  0  0  0  0  0  0  0  0  0  0  0
  -27.2258    3.7324   29.5839 C   0  0  0  0  0  0  0  0  0  0  0  0
  -26.4127    4.1855   30.6217 C   0  0  0  0  0  0  0  0  0  0  0  0
  -25.3545    3.3916   31.2802 Cl  0  0  0  0  0  0  0  0  0  0  0  0
  -26.4684    5.6671   30.8487 C   0  0  0  0  0  0  0  0  0  0  0  0
  -25.6089    6.1715   31.6308 N   0  0  0  0  0  0  0  0  0  0  0  0
  3  4  1  0
  4  8  1  0
  7 14  1  0
 13 14  1  0
 14 15  1  0
 15 16  1  0
 16 17  1  0
 16 18  1  0
 18 19  1  0
  8  9  2  0
  9 10  1  0
 10 11  2  0
 11 12  1  0
 12 13  2  0
 13  8  1  0
  1  2  2  0
  2  5  1  0
  5  6  2  0
  6  7  1  0
  7  3  2  0
  3  1  1  0
M  END

$$$$
