No_2763-gen_results/8p0m/2024-11-26-14-13-15/
     RDKit          3D

 35 37  0  0  0  0  0  0  0  0999 V2000
  -28.1229   -1.3353   28.4874 O   0  0  0  0  0  0  0  0  0  0  0  0
  -28.5208   -0.4363   29.0779 C   0  0  0  0  0  0  0  0  0  0  0  0
  -29.6977    0.0507   28.9764 C   0  0  0  0  0  0  0  0  0  0  0  0
  -27.4735    0.3426   29.7907 N   0  0  0  0  0  0  0  0  0  0  0  0
  -27.8125    1.4527   30.5890 C   0  0  0  0  0  0  0  0  0  0  0  0
  -30.1980    1.0295   29.7260 O   0  0  0  0  0  0  0  0  0  0  0  0
  -30.5906   -0.6538   28.2211 N   0  0  0  0  0  0  0  0  0  0  0  0
  -27.1064    2.1168   30.8995 C   0  0  0  0  0  0  0  0  0  0  0  0
  -25.5736    1.9404   30.7611 C   0  0  0  0  0  0  0  0  0  0  0  0
  -25.2182    0.7870   30.0179 C   0  0  0  0  0  0  0  0  0  0  0  0
  -26.1655    0.0279   29.5512 C   0  0  0  0  0  0  0  0  0  0  0  0
  -31.9755   -0.3645   27.9374 C   0  0  0  0  0  0  0  0  0  0  0  0
  -32.5386   -1.2654   27.1310 C   0  0  0  0  0  0  0  0  0  0  0  0
  -32.3140   -2.5248   27.3371 C   0  0  0  0  0  0  0  0  0  0  0  0
  -32.6535   -3.3472   26.3885 O   0  0  0  0  0  0  0  0  0  0  0  0
  -31.4894   -3.0870   28.1504 O   0  0  0  0  0  0  0  0  0  0  0  0
  -32.4627   -0.8915   25.6909 N   0  0  0  0  0  0  0  0  0  0  0  0
  -31.5345    0.1271   25.4562 C   0  0  0  0  0  0  0  0  0  0  0  0
  -33.7227   -0.4085   25.0251 C   0  0  0  0  0  0  0  0  0  0  0  0
  -23.7606    0.5844   29.8828 C   0  0  0  0  0  0  0  0  0  0  0  0
  -23.2572    0.0367   28.6878 C   0  0  0  0  0  0  0  0  0  0  0  0
  -21.8365   -0.1338   28.6779 C   0  0  0  0  0  0  0  0  0  0  0  0
  -24.0824   -0.2582   27.6892 C   0  0  0  0  0  0  0  0  0  0  0  0
  -31.2036    0.2742   23.9704 C   0  0  0  0  0  0  0  0  0  0  0  0
  -29.9926    0.9838   23.7281 C   0  0  0  0  0  0  0  0  0  0  0  0
  -29.0820    1.3537   24.7443 C   0  0  0  0  0  0  0  0  0  0  0  0
  -29.4409    1.0248   26.1174 C   0  0  0  0  0  0  0  0  0  0  0  0
  -30.5210    0.4373   26.3337 C   0  0  0  0  0  0  0  0  0  0  0  0
  -31.0516    1.5159   27.0753 O   0  0  0  0  0  0  0  0  0  0  0  0
  -30.9236    2.8682   26.4651 C   0  0  0  0  0  0  0  0  0  0  0  0
  -30.1295    3.7347   26.6749 C   0  0  0  0  0  0  0  0  0  0  0  0
  -29.3868    3.7311   27.9674 C   0  0  0  0  0  0  0  0  0  0  0  0
  -28.7669    4.8450   28.3328 C   0  0  0  0  0  0  0  0  0  0  0  0
  -29.5567    4.6577   26.1318 C   0  0  0  0  0  0  0  0  0  0  0  0
  -28.6617    5.5184   27.0137 C   0  0  0  0  0  0  0  0  0  0  0  0
  1  2  2  0
  2  3  1  0
  2  4  1  0
  4  5  1  0
  3  6  2  0
  3  7  1  0
  8  9  1  0
  4 11  1  0
 10 11  1  0
  7 12  1  0
 12 13  1  0
 13 14  1  0
 14 15  2  0
 14 16  1  0
 13 17  1  0
 17 18  1  0
 17 19  1  0
 10 20  1  0
 20 21  1  0
 21 22  1  0
 21 23  1  0
 28 29  1  0
 29 30  1  0
 30 31  1  0
 31 32  1  0
 32 33  2  0
 31 34  1  0
 33 35  1  0
 34 35  2  0
  5  8  1  0
  9 10  1  0
 18 24  2  0
 24 25  1  0
 25 26  2  0
 26 27  1  0
 27 28  2  0
 28 18  1  0
M  END

$$$$
