No_2533-gen_results/8p0m/2024-11-26-14-13-15/
     RDKit          3D

 16 18  0  0  0  0  0  0  0  0999 V2000
  -28.0162   -0.8135   28.8779 C   0  0  0  0  0  0  0  0  0  0  0  0
  -27.0636   -0.1189   28.6079 C   0  0  0  0  0  0  0  0  0  0  0  0
  -26.9716    0.7139   27.5060 C   0  0  0  0  0  0  0  0  0  0  0  0
  -28.1053    0.7744   26.6421 C   0  0  0  0  0  0  0  0  0  0  0  0
  -29.2041    0.1179   27.0477 C   0  0  0  0  0  0  0  0  0  0  0  0
  -29.2127   -0.6088   28.1281 C   0  0  0  0  0  0  0  0  0  0  0  0
  -30.2936    0.2344   26.2281 O   0  0  0  0  0  0  0  0  0  0  0  0
  -25.6944    1.4446   27.1335 C   0  0  0  0  0  0  0  0  0  0  0  0
  -24.5160    0.8711   27.6474 C   0  0  0  0  0  0  0  0  0  0  0  0
  -23.2694    1.6041   27.5113 C   0  0  0  0  0  0  0  0  0  0  0  0
  -22.1322    1.2186   28.2783 C   0  0  0  0  0  0  0  0  0  0  0  0
  -22.1365    0.0553   28.9971 C   0  0  0  0  0  0  0  0  0  0  0  0
  -23.3176   -0.7291   29.0723 C   0  0  0  0  0  0  0  0  0  0  0  0
  -24.4854   -0.2759   28.4646 C   0  0  0  0  0  0  0  0  0  0  0  0
  -25.6818   -0.6041   29.1766 C   0  0  0  0  0  0  0  0  0  0  0  0
  -25.7113   -1.5075   30.0470 O   0  0  0  0  0  0  0  0  0  0  0  0
  5  7  1  0
  3  8  1  0
  2 15  1  0
 14 15  1  0
 15 16  2  0
  8  9  1  0
  1  2  2  0
  2  3  1  0
  3  4  2  0
  4  5  1  0
  5  6  2  0
  6  1  1  0
  9 10  2  0
 10 11  1  0
 11 12  2  0
 12 13  1  0
 13 14  2  0
 14  9  1  0
M  END

$$$$
