No_2396-gen_results/8p0m/2024-11-26-14-13-15/
     RDKit          3D

 18 18  0  0  0  0  0  0  0  0999 V2000
  -28.0162   -0.8135   28.8779 C   0  0  0  0  0  0  0  0  0  0  0  0
  -28.4690   -0.7850   29.8287 C   0  0  0  0  0  0  0  0  0  0  0  0
  -27.1356    0.2359   28.5352 C   0  0  0  0  0  0  0  0  0  0  0  0
  -26.8745    1.2825   29.3982 C   0  0  0  0  0  0  0  0  0  0  0  0
  -28.3613    0.1987   30.9244 C   0  0  0  0  0  0  0  0  0  0  0  0
  -27.5277    1.2234   30.6356 C   0  0  0  0  0  0  0  0  0  0  0  0
  -26.3879    0.2914   27.2334 C   0  0  0  0  0  0  0  0  0  0  0  0
  -25.7787   -0.5228   27.0340 F   0  0  0  0  0  0  0  0  0  0  0  0
  -25.6034    1.4597   27.1041 F   0  0  0  0  0  0  0  0  0  0  0  0
  -27.2668    0.5439   26.1285 F   0  0  0  0  0  0  0  0  0  0  0  0
  -29.3952   -2.0218   30.3220 C   0  0  0  0  0  0  0  0  0  0  0  0
  -29.7666   -2.0142   31.5134 O   0  0  0  0  0  0  0  0  0  0  0  0
  -29.3032   -3.0973   29.7918 O   0  0  0  0  0  0  0  0  0  0  0  0
  -27.2867    2.3418   31.6018 C   0  0  0  0  0  0  0  0  0  0  0  0
  -27.1526    3.5358   31.3856 C   0  0  0  0  0  0  0  0  0  0  0  0
  -27.2923    4.0758   30.0262 C   0  0  0  0  0  0  0  0  0  0  0  0
  -27.9545    3.9891   29.2673 N   0  0  0  0  0  0  0  0  0  0  0  0
  -27.8455    4.5920   28.0139 C   0  0  0  0  0  0  0  0  0  0  0  0
  3  7  1  0
  7  8  1  0
  7  9  1  0
  7 10  1  0
  2 11  1  0
 11 12  1  0
 11 13  2  0
  6 14  1  0
 14 15  2  3
 15 16  1  0
 16 17  2  3
 17 18  1  0
  1  2  2  0
  2  5  1  0
  5  6  2  0
  6  4  1  0
  4  3  2  0
  3  1  1  0
M  END

$$$$
