No_2160-gen_results/8p0m/2024-11-26-14-13-15/
     RDKit          3D

 23 24  0  0  0  0  0  0  0  0999 V2000
  -28.0162   -0.8135   28.8779 C   0  0  0  0  0  0  0  0  0  0  0  0
  -27.0636   -0.1190   28.6079 C   0  0  0  0  0  0  0  0  0  0  0  0
  -25.7647   -0.3897   29.0360 C   0  0  0  0  0  0  0  0  0  0  0  0
  -25.5296   -1.5302   29.9014 C   0  0  0  0  0  0  0  0  0  0  0  0
  -26.6888   -2.2893   30.1810 C   0  0  0  0  0  0  0  0  0  0  0  0
  -27.8727   -1.9508   29.7373 C   0  0  0  0  0  0  0  0  0  0  0  0
  -28.9304   -2.7298   30.1154 O   0  0  0  0  0  0  0  0  0  0  0  0
  -24.5394    0.4211   28.7421 C   0  0  0  0  0  0  0  0  0  0  0  0
  -23.3807    0.0737   29.0489 N   0  0  0  0  0  0  0  0  0  0  0  0
  -22.2474    0.7245   28.5808 C   0  0  0  0  0  0  0  0  0  0  0  0
  -24.6461    1.5938   27.9902 C   0  0  0  0  0  0  0  0  0  0  0  0
  -23.5889    2.3019   27.4825 C   0  0  0  0  0  0  0  0  0  0  0  0
  -22.3554    1.8337   27.8344 N   0  0  0  0  0  0  0  0  0  0  0  0
  -30.0466   -2.2236   30.5826 C   0  0  0  0  0  0  0  0  0  0  0  0
  -31.0877   -2.9067   30.2448 C   0  0  0  0  0  0  0  0  0  0  0  0
  -32.0080   -2.9260   30.7402 O   0  0  0  0  0  0  0  0  0  0  0  0
  -30.9455   -3.9815   29.4287 O   0  0  0  0  0  0  0  0  0  0  0  0
  -21.0267    0.2397   28.8975 N   0  0  0  0  0  0  0  0  0  0  0  0
  -29.8988   -2.0075   32.1015 C   0  0  0  0  0  0  0  0  0  0  0  0
  -29.2973   -0.7892   32.4532 C   0  0  0  0  0  0  0  0  0  0  0  0
  -29.4299    0.3025   31.9444 C   0  0  0  0  0  0  0  0  0  0  0  0
  -28.7374    1.4936   32.3567 C   0  0  0  0  0  0  0  0  0  0  0  0
  -27.8533    1.3855   33.4206 C   0  0  0  0  0  0  0  0  0  0  0  0
  6  7  1  0
  3  8  1  0
  7 14  1  0
 14 15  1  0
 15 16  2  0
 15 17  1  0
 10 18  1  0
 14 19  1  0
 19 20  2  3
 20 21  1  0
 21 22  2  3
 22 23  1  0
  1  2  2  0
  2  3  1  0
  3  4  2  0
  4  5  1  0
  5  6  2  0
  6  1  1  0
  8  9  2  0
  9 10  1  0
 10 13  2  0
 13 12  1  0
 12 11  2  0
 11  8  1  0
M  END

$$$$
