No_2258-gen_results/8p0m/2024-11-26-14-13-15/
     RDKit          3D

 12 13  0  0  0  0  0  0  0  0999 V2000
  -28.0162   -0.8135   28.8779 C   0  0  0  0  0  0  0  0  0  0  0  0
  -27.0636   -0.1189   28.6079 C   0  0  0  0  0  0  0  0  0  0  0  0
  -25.7647   -0.3897   29.0360 C   0  0  0  0  0  0  0  0  0  0  0  0
  -25.4887   -1.1536   29.7171 C   0  0  0  0  0  0  0  0  0  0  0  0
  -26.4902   -2.1223   30.2112 C   0  0  0  0  0  0  0  0  0  0  0  0
  -27.7302   -1.9094   29.8268 C   0  0  0  0  0  0  0  0  0  0  0  0
  -24.6459    0.6287   28.5254 C   0  0  0  0  0  0  0  0  0  0  0  0
  -24.6119    1.3371   27.5056 C   0  0  0  0  0  0  0  0  0  0  0  0
  -23.5427    2.0385   27.0869 C   0  0  0  0  0  0  0  0  0  0  0  0
  -22.2865    1.9563   27.6701 C   0  0  0  0  0  0  0  0  0  0  0  0
  -23.3152    0.4568   29.2359 C   0  0  0  0  0  0  0  0  0  0  0  0
  -22.1870    1.1142   28.8000 C   0  0  0  0  0  0  0  0  0  0  0  0
  3  7  1  0
  7  8  2  0
  8  9  1  0
  9 10  2  0
 10 12  1  0
 12 11  2  0
 11  7  1  0
  1  2  2  0
  2  3  1  0
  3  4  2  0
  4  5  1  0
  5  6  2  0
  6  1  1  0
M  END

$$$$
