No_2706-gen_results/8p0m/2024-11-26-14-13-15/
     RDKit          3D

 22 22  0  0  0  0  0  0  0  0999 V2000
  -28.0162   -0.8135   28.8779 C   0  0  0  0  0  0  0  0  0  0  0  0
  -27.0636   -0.1190   28.6079 C   0  0  0  0  0  0  0  0  0  0  0  0
  -27.0010    0.6913   27.4910 C   0  0  0  0  0  0  0  0  0  0  0  0
  -25.8548    1.4825   27.0830 C   0  0  0  0  0  0  0  0  0  0  0  0
  -24.6901    1.4526   27.8807 C   0  0  0  0  0  0  0  0  0  0  0  0
  -24.7379    0.6010   29.0416 C   0  0  0  0  0  0  0  0  0  0  0  0
  -25.8234   -0.1688   29.3887 C   0  0  0  0  0  0  0  0  0  0  0  0
  -28.7125   -0.4634   30.1695 C   0  0  0  0  0  0  0  0  0  0  0  0
  -29.7400   -1.3351   30.6641 C   0  0  0  0  0  0  0  0  0  0  0  0
  -23.4183    1.8438   27.5344 C   0  0  0  0  0  0  0  0  0  0  0  0
  -23.4249    2.8533   26.7207 F   0  0  0  0  0  0  0  0  0  0  0  0
  -22.6927    2.4404   28.6119 F   0  0  0  0  0  0  0  0  0  0  0  0
  -22.5577    0.9541   27.0964 F   0  0  0  0  0  0  0  0  0  0  0  0
  -29.8633   -2.4114   30.2343 N   0  0  0  0  0  0  0  0  0  0  0  0
  -30.6889   -0.8394   31.2942 F   0  0  0  0  0  0  0  0  0  0  0  0
  -30.0336   -3.5670   31.0838 C   0  0  0  0  0  0  0  0  0  0  0  0
  -29.9587   -4.9119   30.4670 C   0  0  0  0  0  0  0  0  0  0  0  0
  -29.8266   -4.8756   29.2960 O   0  0  0  0  0  0  0  0  0  0  0  0
  -29.6698   -5.8935   31.1902 O   0  0  0  0  0  0  0  0  0  0  0  0
  -28.1392    0.8256   26.6003 C   0  0  0  0  0  0  0  0  0  0  0  0
  -28.2851    0.5761   25.4035 N   0  0  0  0  0  0  0  0  0  0  0  0
  -29.4284    0.5140   24.7672 C   0  0  0  0  0  0  0  0  0  0  0  0
  1  2  1  0
  1  8  1  0
  8  9  1  0
  5 10  1  0
 10 11  1  0
 10 12  1  0
 10 13  1  0
  9 14  2  3
  9 15  1  0
 14 16  1  0
 16 17  1  0
 17 18  1  0
 17 19  2  0
  3 20  1  0
 20 21  2  3
 21 22  1  0
  2  3  2  0
  3  4  1  0
  4  5  2  0
  5  6  1  0
  6  7  2  0
  7  2  1  0
M  END

$$$$
