No_2837-gen_results/8p0m/2024-11-26-14-13-15/
     RDKit          3D

 14 15  0  0  0  0  0  0  0  0999 V2000
  -28.0162   -0.8135   28.8779 C   0  0  0  0  0  0  0  0  0  0  0  0
  -27.0636   -0.1190   28.6079 C   0  0  0  0  0  0  0  0  0  0  0  0
  -25.7647   -0.3897   29.0360 C   0  0  0  0  0  0  0  0  0  0  0  0
  -25.5296   -1.5302   29.9014 C   0  0  0  0  0  0  0  0  0  0  0  0
  -26.6888   -2.2893   30.1810 C   0  0  0  0  0  0  0  0  0  0  0  0
  -27.8727   -1.9508   29.7373 C   0  0  0  0  0  0  0  0  0  0  0  0
  -24.6273    0.3693   28.7540 N   0  0  0  0  0  0  0  0  0  0  0  0
  -24.5034    1.1490   27.7392 C   0  0  0  0  0  0  0  0  0  0  0  0
  -23.9648    2.0913   27.5864 C   0  0  0  0  0  0  0  0  0  0  0  0
  -24.0428    3.0183   26.4314 C   0  0  0  0  0  0  0  0  0  0  0  0
  -24.9434    2.6318   25.4549 C   0  0  0  0  0  0  0  0  0  0  0  0
  -25.4978    1.0411   26.6000 C   0  0  0  0  0  0  0  0  0  0  0  0
  -25.5716    1.7148   25.5903 C   0  0  0  0  0  0  0  0  0  0  0  0
  -23.9856    0.9474   29.9451 C   0  0  0  0  0  0  0  0  0  0  0  0
  3  7  1  0
  7  8  1  0
  7 14  1  0
  1  2  2  0
  2  3  1  0
  3  4  2  0
  4  5  1  0
  5  6  2  0
  6  1  1  0
  8  9  2  0
  9 10  1  0
 10 11  2  0
 11 13  1  0
 13 12  2  0
 12  8  1  0
M  END

$$$$
