No_2506-gen_results/8p0m/2024-11-26-14-13-15/
     RDKit          3D

 18 19  0  0  0  0  0  0  0  0999 V2000
  -28.0162   -0.8135   28.8779 C   0  0  0  0  0  0  0  0  0  0  0  0
  -27.0636   -0.1189   28.6079 C   0  0  0  0  0  0  0  0  0  0  0  0
  -26.8756    1.1325   28.9134 C   0  0  0  0  0  0  0  0  0  0  0  0
  -25.6883    1.9515   28.5672 C   0  0  0  0  0  0  0  0  0  0  0  0
  -24.6394    1.2834   27.8753 C   0  0  0  0  0  0  0  0  0  0  0  0
  -24.8068   -0.0513   27.6040 C   0  0  0  0  0  0  0  0  0  0  0  0
  -25.9019   -0.7670   27.9511 C   0  0  0  0  0  0  0  0  0  0  0  0
  -27.9893   -1.5850   30.1056 N   0  0  0  0  0  0  0  0  0  0  0  0
  -23.4455    1.9844   27.4704 C   0  0  0  0  0  0  0  0  0  0  0  0
  -22.2640    2.2621   27.8566 N   0  0  0  0  0  0  0  0  0  0  0  0
  -23.6549    2.5772   26.1897 O   0  0  0  0  0  0  0  0  0  0  0  0
  -29.0199   -2.3772   30.5820 C   0  0  0  0  0  0  0  0  0  0  0  0
  -29.4853   -3.3034   30.1275 C   0  0  0  0  0  0  0  0  0  0  0  0
  -30.6062   -4.1211   30.7012 C   0  0  0  0  0  0  0  0  0  0  0  0
  -31.1568   -5.2166   30.0751 C   0  0  0  0  0  0  0  0  0  0  0  0
  -30.5835   -5.6059   28.8188 C   0  0  0  0  0  0  0  0  0  0  0  0
  -29.4223   -5.0207   28.4171 C   0  0  0  0  0  0  0  0  0  0  0  0
  -28.8376   -3.9864   29.0977 C   0  0  0  0  0  0  0  0  0  0  0  0
  1  2  2  3
  2  3  1  0
  3  4  1  0
  4  5  1  0
  5  6  1  0
  2  7  1  0
  6  7  1  0
  1  8  1  0
  5  9  1  0
  9 10  1  0
  9 11  2  0
  8 12  1  0
 12 13  1  0
 13 14  2  0
 14 15  1  0
 15 16  2  0
 16 17  1  0
 17 18  2  0
 18 13  1  0
M  END

$$$$
