No_2651-gen_results/8p0m/2024-11-26-14-13-15/
     RDKit          3D

 16 18  0  0  0  0  0  0  0  0999 V2000
  -28.0162   -0.8135   28.8779 C   0  0  0  0  0  0  0  0  0  0  0  0
  -28.4690   -0.7850   29.8287 C   0  0  0  0  0  0  0  0  0  0  0  0
  -28.1960    0.3478   28.0550 C   0  0  0  0  0  0  0  0  0  0  0  0
  -29.0191    1.3501   28.3782 C   0  0  0  0  0  0  0  0  0  0  0  0
  -29.6249    1.2683   29.6012 C   0  0  0  0  0  0  0  0  0  0  0  0
  -29.3821    0.1816   30.4004 C   0  0  0  0  0  0  0  0  0  0  0  0
  -27.4591    0.3787   26.7048 C   0  0  0  0  0  0  0  0  0  0  0  0
  -27.5985    0.6357   25.6182 C   0  0  0  0  0  0  0  0  0  0  0  0
  -29.0006    1.0333   25.3131 C   0  0  0  0  0  0  0  0  0  0  0  0
  -29.8436    1.4474   26.1306 C   0  0  0  0  0  0  0  0  0  0  0  0
  -29.8804    1.5539   27.4560 C   0  0  0  0  0  0  0  0  0  0  0  0
  -27.9608    2.5124   28.4487 C   0  0  0  0  0  0  0  0  0  0  0  0
  -31.3209    1.8934   27.8642 C   0  0  0  0  0  0  0  0  0  0  0  0
  -30.7463    2.0357   29.9384 C   0  0  0  0  0  0  0  0  0  0  0  0
  -31.6961    2.0875   29.0952 C   0  0  0  0  0  0  0  0  0  0  0  0
  -32.2341    2.0833   26.6391 C   0  0  0  0  0  0  0  0  0  0  0  0
  1  3  1  0
  3  4  1  0
  4  5  1  0
  2  6  1  0
  3  7  1  0
  7  8  2  0
  8  9  1  0
  9 10  2  0
  4 11  1  0
 10 11  1  0
  4 12  1  0
 11 13  1  0
  5 14  1  0
 13 15  1  0
 14 15  1  0
 13 16  1  0
  1  2  1  0
  6  5  1  0
M  END

$$$$
