No_2502-gen_results/8p0m/2024-11-26-14-13-15/
     RDKit          3D

 19 22  0  0  0  0  0  0  0  0999 V2000
  -28.0162   -0.8135   28.8779 C   0  0  0  0  0  0  0  0  0  0  0  0
  -28.4690   -0.7850   29.8287 C   0  0  0  0  0  0  0  0  0  0  0  0
  -26.5455   -0.8762   28.8500 C   0  0  0  0  0  0  0  0  0  0  0  0
  -25.8041   -1.0324   30.0571 C   0  0  0  0  0  0  0  0  0  0  0  0
  -27.9437   -0.9869   31.2075 C   0  0  0  0  0  0  0  0  0  0  0  0
  -26.5825   -1.0386   31.2231 C   0  0  0  0  0  0  0  0  0  0  0  0
  -29.9086   -0.7397   29.8642 F   0  0  0  0  0  0  0  0  0  0  0  0
  -24.3767   -1.0979   30.0689 C   0  0  0  0  0  0  0  0  0  0  0  0
  -23.5963   -0.5404   29.1043 C   0  0  0  0  0  0  0  0  0  0  0  0
  -22.1327   -0.5733   29.2662 C   0  0  0  0  0  0  0  0  0  0  0  0
  -24.1221    0.2265   28.0697 C   0  0  0  0  0  0  0  0  0  0  0  0
  -23.2398    1.1151   27.3443 C   0  0  0  0  0  0  0  0  0  0  0  0
  -21.3170    0.2337   28.4712 C   0  0  0  0  0  0  0  0  0  0  0  0
  -21.8443    1.0728   27.5500 C   0  0  0  0  0  0  0  0  0  0  0  0
  -23.8010    2.0232   26.3278 C   0  0  0  0  0  0  0  0  0  0  0  0
  -24.9378    1.6064   25.7140 C   0  0  0  0  0  0  0  0  0  0  0  0
  -25.5527    0.4325   26.1546 C   0  0  0  0  0  0  0  0  0  0  0  0
  -25.2091   -0.1408   27.3631 C   0  0  0  0  0  0  0  0  0  0  0  0
  -26.1302   -0.8931   27.6292 O   0  0  0  0  0  0  0  0  0  0  0  0
  2  7  1  0
  4  8  1  0
  3 19  1  0
 18 19  1  0
  8  9  1  0
  9 10  1  0
 10 13  2  0
 13 14  1  0
 14 12  2  0
 11  9  2  0
 11 12  1  0
 12 15  1  0
 15 16  2  0
 16 17  1  0
 17 18  2  0
 18 11  1  0
  1  2  2  0
  2  5  1  0
  5  6  2  0
  6  4  1  0
  4  3  2  0
  3  1  1  0
M  END

$$$$
