No_2750-gen_results/8p0m/2024-11-26-14-13-15/
     RDKit          3D

 13 14  0  0  0  0  0  0  0  0999 V2000
  -28.0544   -1.0498   28.7246 N   0  0  0  0  0  0  0  0  0  0  0  0
  -28.6544   -0.5669   29.5076 C   0  0  0  0  0  0  0  0  0  0  0  0
  -28.1376    0.1595   30.5233 C   0  0  0  0  0  0  0  0  0  0  0  0
  -28.8755    0.8806   31.5991 C   0  0  0  0  0  0  0  0  0  0  0  0
  -26.7171    0.3580   30.3081 C   0  0  0  0  0  0  0  0  0  0  0  0
  -25.9874   -0.1956   29.4028 C   0  0  0  0  0  0  0  0  0  0  0  0
  -26.6793   -0.9798   28.5276 C   0  0  0  0  0  0  0  0  0  0  0  0
  -29.9927    1.0791   31.6095 C   0  0  0  0  0  0  0  0  0  0  0  0
  -30.8457    0.7664   30.4682 C   0  0  0  0  0  0  0  0  0  0  0  0
  -30.1833   -0.1963   29.5513 C   0  0  0  0  0  0  0  0  0  0  0  0
  -24.5032   -0.1474   29.3358 C   0  0  0  0  0  0  0  0  0  0  0  0
  -23.7160   -0.9611   29.9383 C   0  0  0  0  0  0  0  0  0  0  0  0
  -22.2363   -0.8245   29.8348 C   0  0  0  0  0  0  0  0  0  0  0  0
  6 11  1  0
 11 12  2  3
 12 13  1  0
  3  4  1  0
  4  8  2  0
  8  9  1  0
  9 10  2  0
 10  2  1  0
  1  2  2  0
  2  3  1  0
  3  5  2  0
  5  6  1  0
  6  7  2  0
  7  1  1  0
M  END

$$$$
