No_2703-gen_results/8p0m/2024-11-26-14-13-15/
     RDKit          3D

 18 20  0  0  0  0  0  0  0  0999 V2000
  -28.1229   -1.3353   28.4874 O   0  0  0  0  0  0  0  0  0  0  0  0
  -27.0637   -0.8242   28.8687 C   0  0  0  0  0  0  0  0  0  0  0  0
  -25.9464   -1.0396   28.8492 C   0  0  0  0  0  0  0  0  0  0  0  0
  -25.3522   -2.2524   28.5471 C   0  0  0  0  0  0  0  0  0  0  0  0
  -27.2573    0.6208   29.4840 N   0  0  0  0  0  0  0  0  0  0  0  0
  -26.2615    1.3937   29.8365 C   0  0  0  0  0  0  0  0  0  0  0  0
  -24.9553    0.9041   29.8149 C   0  0  0  0  0  0  0  0  0  0  0  0
  -24.6763   -0.2883   29.3924 C   0  0  0  0  0  0  0  0  0  0  0  0
  -24.0447   -2.7834   28.9327 C   0  0  0  0  0  0  0  0  0  0  0  0
  -23.0235   -1.9902   29.3173 C   0  0  0  0  0  0  0  0  0  0  0  0
  -23.3155   -0.7597   29.5930 C   0  0  0  0  0  0  0  0  0  0  0  0
  -26.6312    2.7271   30.3878 C   0  0  0  0  0  0  0  0  0  0  0  0
  -25.6344    3.5432   30.7790 C   0  0  0  0  0  0  0  0  0  0  0  0
  -24.2736    2.9755   30.9109 C   0  0  0  0  0  0  0  0  0  0  0  0
  -23.9996    1.8169   30.4043 C   0  0  0  0  0  0  0  0  0  0  0  0
  -25.8285    4.8812   31.4258 C   0  0  0  0  0  0  0  0  0  0  0  0
  -25.2278    5.7932   30.8581 O   0  0  0  0  0  0  0  0  0  0  0  0
  -26.3118    4.9453   32.6048 O   0  0  0  0  0  0  0  0  0  0  0  0
  1  2  2  0
  2  3  1  0
  2  5  1  0
  7  8  1  0
 13 16  1  0
 16 17  1  0
 16 18  2  0
  6  5  1  0
  6  7  2  0
  7 15  1  0
 15 14  2  0
 14 13  1  0
 13 12  2  0
 12  6  1  0
  3  4  2  0
  4  9  1  0
  9 10  2  0
 10 11  1  0
 11  8  2  0
  8  3  1  0
M  END

$$$$
