No_2897-gen_results/8p0m/2024-11-26-14-13-15/
     RDKit          3D

 21 23  0  0  0  0  0  0  0  0999 V2000
  -28.0162   -0.8135   28.8779 C   0  0  0  0  0  0  0  0  0  0  0  0
  -28.4690   -0.7850   29.8287 C   0  0  0  0  0  0  0  0  0  0  0  0
  -26.5042   -0.7777   28.8766 C   0  0  0  0  0  0  0  0  0  0  0  0
  -25.6540   -0.6597   27.7191 C   0  0  0  0  0  0  0  0  0  0  0  0
  -27.9180   -0.9374   31.1824 C   0  0  0  0  0  0  0  0  0  0  0  0
  -26.5423   -0.9399   31.2606 C   0  0  0  0  0  0  0  0  0  0  0  0
  -25.7832   -0.8935   30.1201 C   0  0  0  0  0  0  0  0  0  0  0  0
  -25.2134    0.6923   27.3830 C   0  0  0  0  0  0  0  0  0  0  0  0
  -25.3646    1.1004   26.0936 C   0  0  0  0  0  0  0  0  0  0  0  0
  -23.7701    0.9821   27.7608 C   0  0  0  0  0  0  0  0  0  0  0  0
  -23.3936    2.0615   28.2858 C   0  0  0  0  0  0  0  0  0  0  0  0
  -21.9321    2.1976   28.5778 C   0  0  0  0  0  0  0  0  0  0  0  0
  -21.0755    1.0476   28.2756 C   0  0  0  0  0  0  0  0  0  0  0  0
  -21.5892   -0.1126   28.0247 C   0  0  0  0  0  0  0  0  0  0  0  0
  -22.9208   -0.1803   27.7606 C   0  0  0  0  0  0  0  0  0  0  0  0
  -26.0597    1.8253   28.2360 C   0  0  0  0  0  0  0  0  0  0  0  0
  -26.4434    2.8782   27.6311 C   0  0  0  0  0  0  0  0  0  0  0  0
  -26.5257    3.0712   26.3045 C   0  0  0  0  0  0  0  0  0  0  0  0
  -24.8159    0.1410   25.1937 C   0  0  0  0  0  0  0  0  0  0  0  0
  -25.9423    2.1960   25.5184 C   0  0  0  0  0  0  0  0  0  0  0  0
  -25.3502   -1.5924   27.1366 O   0  0  0  0  0  0  0  0  0  0  0  0
  3  4  1  0
  4  8  1  0
  8  9  1  0
  8 10  1  0
  8 16  1  0
 17 18  1  0
  9 19  1  0
  9 20  1  0
  4 21  2  0
 20 18  1  0
 17 16  1  0
  1  2  2  0
  2  5  1  0
  5  6  2  0
  6  7  1  0
  7  3  2  0
  3  1  1  0
 10 11  2  0
 11 12  1  0
 12 13  2  0
 13 14  1  0
 14 15  2  0
 15 10  1  0
M  END

$$$$
