No_2215-gen_results/8p0m/2024-11-26-14-13-15/
     RDKit          3D

 11 10  0  0  0  0  0  0  0  0999 V2000
  -28.1229   -1.3353   28.4874 O   0  0  0  0  0  0  0  0  0  0  0  0
  -27.0637   -0.8242   28.8687 C   0  0  0  0  0  0  0  0  0  0  0  0
  -27.0246    0.1877   29.7358 C   0  0  0  0  0  0  0  0  0  0  0  0
  -25.8391    0.8513   29.9958 C   0  0  0  0  0  0  0  0  0  0  0  0
  -25.4325   -1.7900   28.4530 Br  0  0  0  0  0  0  0  0  0  0  0  0
  -24.6420    0.5746   29.3097 C   0  0  0  0  0  0  0  0  0  0  0  0
  -23.4141    1.4488   29.5000 C   0  0  0  0  0  0  0  0  0  0  0  0
  -22.2639    1.0794   28.8065 C   0  0  0  0  0  0  0  0  0  0  0  0
  -21.6190    1.8170   28.0600 C   0  0  0  0  0  0  0  0  0  0  0  0
  -21.9843   -0.3407   29.0773 C   0  0  0  0  0  0  0  0  0  0  0  0
  -20.8515   -0.7709   28.4402 N   0  0  0  0  0  0  0  0  0  0  0  0
  1  2  1  0
  2  3  1  0
  3  4  2  3
  2  5  1  0
  4  6  1  0
  6  7  2  3
  7  8  1  0
  8  9  2  0
  8 10  1  0
 10 11  1  0
M  END

$$$$
