No_2751-gen_results/8p0m/2024-11-26-14-13-15/
     RDKit          3D

 15 16  0  0  0  0  0  0  0  0999 V2000
  -28.0162   -0.8135   28.8779 C   0  0  0  0  0  0  0  0  0  0  0  0
  -28.4690   -0.7850   29.8287 C   0  0  0  0  0  0  0  0  0  0  0  0
  -28.1816    0.4277   28.1134 C   0  0  0  0  0  0  0  0  0  0  0  0
  -28.9841    1.4155   28.5154 C   0  0  0  0  0  0  0  0  0  0  0  0
  -29.3802    0.1384   30.4612 C   0  0  0  0  0  0  0  0  0  0  0  0
  -29.5415    1.2736   29.7242 C   0  0  0  0  0  0  0  0  0  0  0  0
  -27.4452    0.4872   26.7726 C   0  0  0  0  0  0  0  0  0  0  0  0
  -26.1083    0.3438   26.7497 N   0  0  0  0  0  0  0  0  0  0  0  0
  -25.2371    1.1895   27.3583 C   0  0  0  0  0  0  0  0  0  0  0  0
  -23.8753    0.7849   27.5747 C   0  0  0  0  0  0  0  0  0  0  0  0
  -22.8367    1.6907   27.4686 C   0  0  0  0  0  0  0  0  0  0  0  0
  -25.5478    2.5301   27.5621 C   0  0  0  0  0  0  0  0  0  0  0  0
  -24.5356    3.5074   27.7773 C   0  0  0  0  0  0  0  0  0  0  0  0
  -23.1797    3.1076   27.7045 C   0  0  0  0  0  0  0  0  0  0  0  0
  -27.9450    1.1103   25.8586 O   0  0  0  0  0  0  0  0  0  0  0  0
  3  7  1  0
  7  8  1  0
  8  9  1  0
  7 15  2  0
  9 10  2  0
 10 11  1  0
 11 14  2  0
 14 13  1  0
 13 12  2  0
 12  9  1  0
  1  2  2  0
  2  5  1  0
  5  6  2  0
  6  4  1  0
  4  3  2  0
  3  1  1  0
M  END

$$$$
