No_2853-gen_results/8p0m/2024-11-26-14-13-15/
     RDKit          3D

 12 12  0  0  0  0  0  0  0  0999 V2000
  -28.0162   -0.8135   28.8779 C   0  0  0  0  0  0  0  0  0  0  0  0
  -28.4690   -0.7850   29.8287 C   0  0  0  0  0  0  0  0  0  0  0  0
  -26.6028   -1.0596   28.5384 C   0  0  0  0  0  0  0  0  0  0  0  0
  -25.7969   -1.4490   29.7273 C   0  0  0  0  0  0  0  0  0  0  0  0
  -26.4284   -1.5407   30.9833 C   0  0  0  0  0  0  0  0  0  0  0  0
  -27.7564   -1.2444   31.0750 C   0  0  0  0  0  0  0  0  0  0  0  0
  -24.3922   -1.7399   29.5644 C   0  0  0  0  0  0  0  0  0  0  0  0
  -23.3469   -1.1655   29.7936 N   0  0  0  0  0  0  0  0  0  0  0  0
  -23.3717    0.0005   30.5078 C   0  0  0  0  0  0  0  0  0  0  0  0
  -24.2280   -3.0338   29.0487 O   0  0  0  0  0  0  0  0  0  0  0  0
  -22.7317    1.2497   29.8453 C   0  0  0  0  0  0  0  0  0  0  0  0
  -23.8839    0.1191   31.8439 C   0  0  0  0  0  0  0  0  0  0  0  0
  4  7  1  0
  7  8  1  0
  8  9  1  0
  7 10  2  0
  9 11  2  0
  9 12  1  0
  1  2  2  0
  2  6  1  0
  6  5  2  0
  5  4  1  0
  4  3  2  0
  3  1  1  0
M  END

$$$$
