No_2554-gen_results/8p0m/2024-11-26-14-13-15/
     RDKit          3D

 19 20  0  0  0  0  0  0  0  0999 V2000
  -28.0162   -0.8135   28.8779 C   0  0  0  0  0  0  0  0  0  0  0  0
  -27.0636   -0.1189   28.6079 C   0  0  0  0  0  0  0  0  0  0  0  0
  -25.7923   -0.4302   29.0761 C   0  0  0  0  0  0  0  0  0  0  0  0
  -24.5456    0.3494   28.8225 C   0  0  0  0  0  0  0  0  0  0  0  0
  -24.6586    1.4196   27.8878 C   0  0  0  0  0  0  0  0  0  0  0  0
  -25.9471    1.6811   27.3792 C   0  0  0  0  0  0  0  0  0  0  0  0
  -27.0439    0.9739   27.6871 C   0  0  0  0  0  0  0  0  0  0  0  0
  -27.9229   -2.0316   29.0996 F   0  0  0  0  0  0  0  0  0  0  0  0
  -29.0495   -0.8160   27.8781 F   0  0  0  0  0  0  0  0  0  0  0  0
  -28.6339   -0.2562   30.0064 F   0  0  0  0  0  0  0  0  0  0  0  0
  -23.4725    2.1786   27.6322 C   0  0  0  0  0  0  0  0  0  0  0  0
  -22.2567    1.7526   28.0394 N   0  0  0  0  0  0  0  0  0  0  0  0
  -23.5964    3.2238   26.9585 F   0  0  0  0  0  0  0  0  0  0  0  0
  -22.0144    0.8025   28.8766 C   0  0  0  0  0  0  0  0  0  0  0  0
  -23.1784   -0.0844   29.2329 C   0  0  0  0  0  0  0  0  0  0  0  0
  -22.9466   -1.2471   30.0540 C   0  0  0  0  0  0  0  0  0  0  0  0
  -23.8612   -1.3845   30.7487 F   0  0  0  0  0  0  0  0  0  0  0  0
  -21.8885   -0.9486   30.8688 F   0  0  0  0  0  0  0  0  0  0  0  0
  -22.5885   -2.2038   29.2034 F   0  0  0  0  0  0  0  0  0  0  0  0
  1  2  1  0
  1  8  1  0
  1  9  1  0
  1 10  1  0
 11 13  1  0
 15 16  1  0
 16 17  1  0
 16 18  1  0
 16 19  1  0
  5 11  2  0
 11 12  1  0
 12 14  2  0
 14 15  1  0
 15  4  2  0
  2  3  2  0
  3  4  1  0
  4  5  1  0
  5  6  1  0
  6  7  2  0
  7  2  1  0
M  END

$$$$
