No_2459-gen_results/8p0m/2024-11-26-14-13-15/
     RDKit          3D

 35 38  0  0  0  0  0  0  0  0999 V2000
  -28.0162   -0.8135   28.8779 C   0  0  0  0  0  0  0  0  0  0  0  0
  -27.0636   -0.1190   28.6079 C   0  0  0  0  0  0  0  0  0  0  0  0
  -25.7647   -0.3897   29.0360 C   0  0  0  0  0  0  0  0  0  0  0  0
  -25.5296   -1.5302   29.9014 C   0  0  0  0  0  0  0  0  0  0  0  0
  -26.6577   -2.2915   30.2035 C   0  0  0  0  0  0  0  0  0  0  0  0
  -27.8548   -1.9555   29.7630 C   0  0  0  0  0  0  0  0  0  0  0  0
  -24.4389    0.1803   28.7279 C   0  0  0  0  0  0  0  0  0  0  0  0
  -24.3450    1.1842   27.7676 C   0  0  0  0  0  0  0  0  0  0  0  0
  -23.1506    1.7018   27.3711 C   0  0  0  0  0  0  0  0  0  0  0  0
  -21.9201    1.3331   28.0110 C   0  0  0  0  0  0  0  0  0  0  0  0
  -23.1002   -0.3112   29.0244 C   0  0  0  0  0  0  0  0  0  0  0  0
  -21.9145    0.3282   28.8135 C   0  0  0  0  0  0  0  0  0  0  0  0
  -29.0224   -2.7694   30.2005 C   0  0  0  0  0  0  0  0  0  0  0  0
  -28.9618   -4.0075   30.3302 O   0  0  0  0  0  0  0  0  0  0  0  0
  -30.1144   -2.1998   30.5257 O   0  0  0  0  0  0  0  0  0  0  0  0
  -31.0631   -2.6463   31.1556 C   0  0  0  0  0  0  0  0  0  0  0  0
  -32.3274   -1.9854   31.2164 C   0  0  0  0  0  0  0  0  0  0  0  0
  -33.2343   -2.4541   31.7423 O   0  0  0  0  0  0  0  0  0  0  0  0
  -32.4075   -0.7726   30.5731 N   0  0  0  0  0  0  0  0  0  0  0  0
  -33.6250   -0.0342   30.4382 C   0  0  0  0  0  0  0  0  0  0  0  0
  -33.5998    0.9808   29.9515 C   0  0  0  0  0  0  0  0  0  0  0  0
  -34.7049    1.9315   29.8235 C   0  0  0  0  0  0  0  0  0  0  0  0
  -35.9328    1.3862   30.3098 C   0  0  0  0  0  0  0  0  0  0  0  0
  -35.9214    0.1277   30.8695 C   0  0  0  0  0  0  0  0  0  0  0  0
  -34.7857   -0.5804   31.0067 C   0  0  0  0  0  0  0  0  0  0  0  0
  -37.2113   -0.3435   31.4146 C   0  0  0  0  0  0  0  0  0  0  0  0
  -38.0768   -0.9330   31.2006 C   0  0  0  0  0  0  0  0  0  0  0  0
  -39.2034   -1.3175   31.9556 C   0  0  0  0  0  0  0  0  0  0  0  0
  -37.2360    0.0774   32.9367 C   0  0  0  0  0  0  0  0  0  0  0  0
  -38.2331   -0.2079   33.7509 C   0  0  0  0  0  0  0  0  0  0  0  0
  -39.2652   -0.9372   33.2443 C   0  0  0  0  0  0  0  0  0  0  0  0
  -40.4499   -1.3092   34.0601 C   0  0  0  0  0  0  0  0  0  0  0  0
  -40.5018   -0.9012   35.3482 C   0  0  0  0  0  0  0  0  0  0  0  0
  -41.6066   -1.2321   36.1605 C   0  0  0  0  0  0  0  0  0  0  0  0
  -42.6304   -2.0081   35.5581 C   0  0  0  0  0  0  0  0  0  0  0  0
  3  7  1  0
  6 13  1  0
 13 14  2  0
 13 15  1  0
 15 16  1  0
 16 17  1  0
 17 18  2  0
 17 19  1  0
 19 20  1  0
 24 26  1  0
 31 32  1  0
 32 33  2  3
 33 34  1  0
 34 35  2  0
  7  8  2  0
  8  9  1  0
  9 10  2  0
 10 12  1  0
 12 11  2  0
 11  7  1  0
  1  2  2  0
  2  3  1  0
  3  4  2  0
  4  5  1  0
  5  6  2  0
  6  1  1  0
 26 27  2  0
 27 28  1  0
 28 31  2  0
 31 30  1  0
 30 29  2  0
 29 26  1  0
 20 21  2  0
 21 22  1  0
 22 23  2  0
 23 24  1  0
 24 25  2  0
 25 20  1  0
M  END

$$$$
