No_2537-gen_results/8p0m/2024-11-26-14-13-15/
     RDKit          3D

 19 20  0  0  0  0  0  0  0  0999 V2000
  -28.0162   -0.8135   28.8779 C   0  0  0  0  0  0  0  0  0  0  0  0
  -27.0636   -0.1189   28.6079 C   0  0  0  0  0  0  0  0  0  0  0  0
  -25.7923   -0.4302   29.0761 C   0  0  0  0  0  0  0  0  0  0  0  0
  -24.5456    0.3494   28.8225 C   0  0  0  0  0  0  0  0  0  0  0  0
  -24.6586    1.4196   27.8878 C   0  0  0  0  0  0  0  0  0  0  0  0
  -25.9471    1.6811   27.3792 C   0  0  0  0  0  0  0  0  0  0  0  0
  -27.1796    1.0029   27.7610 C   0  0  0  0  0  0  0  0  0  0  0  0
  -29.1898   -0.1813   29.1083 N   0  0  0  0  0  0  0  0  0  0  0  0
  -27.9131   -1.9927   29.4402 O   0  0  0  0  0  0  0  0  0  0  0  0
  -30.3752   -0.8058   29.5409 C   0  0  0  0  0  0  0  0  0  0  0  0
  -23.3051    2.3051   27.5188 Cl  0  0  0  0  0  0  0  0  0  0  0  0
  -31.4718   -0.5437   28.7946 C   0  0  0  0  0  0  0  0  0  0  0  0
  -32.4706   -0.2688   29.2339 C   0  0  0  0  0  0  0  0  0  0  0  0
  -32.7752   -0.5895   30.6972 C   0  0  0  0  0  0  0  0  0  0  0  0
  -31.6956   -0.8954   31.4768 C   0  0  0  0  0  0  0  0  0  0  0  0
  -30.5204   -0.8928   30.9466 C   0  0  0  0  0  0  0  0  0  0  0  0
  -34.0118   -0.5782   31.3212 N   0  0  0  0  0  0  0  0  0  0  0  0
  -34.8416    0.3405   31.0483 C   0  0  0  0  0  0  0  0  0  0  0  0
  -36.1624    0.2108   31.7470 C   0  0  0  0  0  0  0  0  0  0  0  0
  1  2  1  0
  1  8  1  0
  1  9  2  0
  8 10  1  0
  5 11  1  0
 14 17  1  0
 17 18  2  3
 18 19  1  0
  2  3  2  0
  3  4  1  0
  4  5  2  0
  5  6  1  0
  6  7  2  0
  7  2  1  0
 10 12  2  0
 12 13  1  0
 13 14  2  0
 14 15  1  0
 15 16  2  0
 16 10  1  0
M  END

$$$$
