No_2090-gen_results/8p0m/2024-11-26-14-13-15/
     RDKit          3D

 15 16  0  0  0  0  0  0  0  0999 V2000
  -28.0162   -0.8135   28.8779 C   0  0  0  0  0  0  0  0  0  0  0  0
  -27.0636   -0.1189   28.6079 C   0  0  0  0  0  0  0  0  0  0  0  0
  -26.9716    0.7139   27.5060 C   0  0  0  0  0  0  0  0  0  0  0  0
  -25.8205    1.4910   27.1160 C   0  0  0  0  0  0  0  0  0  0  0  0
  -24.6562    1.4242   27.9180 C   0  0  0  0  0  0  0  0  0  0  0  0
  -24.6847    0.5901   29.0659 C   0  0  0  0  0  0  0  0  0  0  0  0
  -25.8099   -0.1265   29.3338 C   0  0  0  0  0  0  0  0  0  0  0  0
  -27.8678   -1.9973   29.2855 F   0  0  0  0  0  0  0  0  0  0  0  0
  -28.8029   -0.1899   29.8735 F   0  0  0  0  0  0  0  0  0  0  0  0
  -23.4731    2.2179   27.6147 C   0  0  0  0  0  0  0  0  0  0  0  0
  -22.2200    1.4779   27.9614 C   0  0  0  0  0  0  0  0  0  0  0  0
  -22.0764    0.7142   29.0798 C   0  0  0  0  0  0  0  0  0  0  0  0
  -23.3790    0.1228   29.6685 C   0  0  0  0  0  0  0  0  0  0  0  0
  -25.8607    2.3764   25.9900 C   0  0  0  0  0  0  0  0  0  0  0  0
  -28.2929    0.7388   26.3628 Cl  0  0  0  0  0  0  0  0  0  0  0  0
  1  2  2  3
  2  3  1  0
  3  4  1  0
  4  5  1  0
  2  7  1  0
  6  7  1  0
  1  8  1  0
  1  9  1  0
  4 14  1  0
  3 15  1  0
  5  6  2  0
  6 13  1  0
 13 12  2  0
 12 11  1  0
 11 10  2  0
 10  5  1  0
M  END

$$$$
