No_256-gen_results/8p0m/2024-11-26-14-13-15/
     RDKit          3D

  9  9  0  0  0  0  0  0  0  0999 V2000
  -28.0544   -1.0498   28.7246 N   0  0  0  0  0  0  0  0  0  0  0  0
  -28.6544   -0.5669   29.5076 C   0  0  0  0  0  0  0  0  0  0  0  0
  -26.6945   -1.3221   29.0236 C   0  0  0  0  0  0  0  0  0  0  0  0
  -25.6511   -1.1026   28.1645 C   0  0  0  0  0  0  0  0  0  0  0  0
  -24.3024   -1.2889   28.6149 C   0  0  0  0  0  0  0  0  0  0  0  0
  -28.4816   -0.8521   30.8658 N   0  0  0  0  0  0  0  0  0  0  0  0
  -24.0971   -1.7511   29.9123 C   0  0  0  0  0  0  0  0  0  0  0  0
  -25.1230   -1.9639   30.7822 C   0  0  0  0  0  0  0  0  0  0  0  0
  -26.3865   -1.7594   30.3505 C   0  0  0  0  0  0  0  0  0  0  0  0
  1  2  1  0
  1  3  1  0
  2  6  1  0
  3  4  2  0
  4  5  1  0
  5  7  2  0
  7  8  1  0
  8  9  2  0
  9  3  1  0
M  END

$$$$
