No_2998-gen_results/8p0m/2024-11-26-14-13-15/
     RDKit          3D

 27 28  0  0  0  0  0  0  0  0999 V2000
  -28.0162   -0.8135   28.8779 C   0  0  0  0  0  0  0  0  0  0  0  0
  -28.4690   -0.7850   29.8287 C   0  0  0  0  0  0  0  0  0  0  0  0
  -26.5042   -0.7777   28.8766 C   0  0  0  0  0  0  0  0  0  0  0  0
  -25.6540   -0.6597   27.7191 C   0  0  0  0  0  0  0  0  0  0  0  0
  -27.9180   -0.9374   31.1824 C   0  0  0  0  0  0  0  0  0  0  0  0
  -26.5423   -0.9399   31.2606 C   0  0  0  0  0  0  0  0  0  0  0  0
  -25.7832   -0.8935   30.1201 C   0  0  0  0  0  0  0  0  0  0  0  0
  -26.1510   -0.9708   26.7104 F   0  0  0  0  0  0  0  0  0  0  0  0
  -24.4481   -1.3951   27.8913 F   0  0  0  0  0  0  0  0  0  0  0  0
  -25.1286    0.6726   27.6220 F   0  0  0  0  0  0  0  0  0  0  0  0
  -30.0508   -0.8080   29.8830 C   0  0  0  0  0  0  0  0  0  0  0  0
  -30.6656   -0.0476   30.7446 O   0  0  0  0  0  0  0  0  0  0  0  0
  -30.6495   -1.4075   29.0174 O   0  0  0  0  0  0  0  0  0  0  0  0
  -31.9412    0.0952   30.8381 C   0  0  0  0  0  0  0  0  0  0  0  0
  -32.5895    1.1407   31.7165 C   0  0  0  0  0  0  0  0  0  0  0  0
  -31.8824    1.7581   32.4324 O   0  0  0  0  0  0  0  0  0  0  0  0
  -33.8651    1.3642   31.5565 N   0  0  0  0  0  0  0  0  0  0  0  0
  -34.5012    2.3856   32.4098 C   0  0  0  0  0  0  0  0  0  0  0  0
  -35.6583    2.5512   32.2436 C   0  0  0  0  0  0  0  0  0  0  0  0
  -36.4020    3.5400   33.0927 C   0  0  0  0  0  0  0  0  0  0  0  0
  -35.6736    4.2647   34.0567 C   0  0  0  0  0  0  0  0  0  0  0  0
  -34.2891    3.9749   34.1456 C   0  0  0  0  0  0  0  0  0  0  0  0
  -33.6962    3.0773   33.3814 C   0  0  0  0  0  0  0  0  0  0  0  0
  -36.5473    5.4890   35.1078 Br  0  0  0  0  0  0  0  0  0  0  0  0
  -34.6548    0.6619   30.6607 C   0  0  0  0  0  0  0  0  0  0  0  0
  -35.5448    1.3539   30.0898 C   0  0  0  0  0  0  0  0  0  0  0  0
  -36.3368    2.0890   31.0571 C   0  0  0  0  0  0  0  0  0  0  0  0
  3  4  1  0
  4  8  1  0
  4  9  1  0
  4 10  1  0
  2 11  1  0
 11 12  1  0
 11 13  2  0
 12 14  1  0
 14 15  1  0
 15 16  2  0
 15 17  1  0
 17 18  1  0
 21 24  1  0
 17 25  1  0
 25 26  2  3
 26 27  1  0
 18 19  2  0
 19 20  1  0
 20 21  2  0
 21 22  1  0
 22 23  2  0
 23 18  1  0
  1  2  2  0
  2  5  1  0
  5  6  2  0
  6  7  1  0
  7  3  2  0
  3  1  1  0
M  END

$$$$
