No_2731-gen_results/8p0m/2024-11-26-14-13-15/
     RDKit          3D

  8  8  0  0  0  0  0  0  0  0999 V2000
  -28.0162   -0.8135   28.8779 C   0  0  0  0  0  0  0  0  0  0  0  0
  -27.0636   -0.1190   28.6079 C   0  0  0  0  0  0  0  0  0  0  0  0
  -27.0010    0.6913   27.4910 C   0  0  0  0  0  0  0  0  0  0  0  0
  -28.1420    0.8282   26.7994 C   0  0  0  0  0  0  0  0  0  0  0  0
  -27.9653   -1.5171   30.1662 C   0  0  0  0  0  0  0  0  0  0  0  0
  -29.2723    0.1712   27.2155 C   0  0  0  0  0  0  0  0  0  0  0  0
  -29.2027   -0.5399   28.2807 C   0  0  0  0  0  0  0  0  0  0  0  0
  -26.8927   -2.2368   30.4414 N   0  0  0  0  0  0  0  0  0  0  0  0
  5  8  1  0
  5  1  1  0
  1  2  2  0
  2  3  1  0
  3  4  2  0
  4  6  1  0
  6  7  2  0
  7  1  1  0
M  END

$$$$
