No_2013-gen_results/8p0m/2024-11-26-14-13-15/
     RDKit          3D

 35 38  0  0  0  0  0  0  0  0999 V2000
  -28.1229   -1.3353   28.4874 O   0  0  0  0  0  0  0  0  0  0  0  0
  -28.5208   -0.4363   29.0779 C   0  0  0  0  0  0  0  0  0  0  0  0
  -27.6655    0.1129   30.0346 C   0  0  0  0  0  0  0  0  0  0  0  0
  -29.5662    0.3302   28.6099 N   0  0  0  0  0  0  0  0  0  0  0  0
  -26.9528   -0.6475   30.7643 C   0  0  0  0  0  0  0  0  0  0  0  0
  -30.0329    1.5087   29.1443 C   0  0  0  0  0  0  0  0  0  0  0  0
  -29.9496    2.5000   28.7077 C   0  0  0  0  0  0  0  0  0  0  0  0
  -29.4395    2.8036   27.2971 C   0  0  0  0  0  0  0  0  0  0  0  0
  -28.9945    1.9368   26.5817 C   0  0  0  0  0  0  0  0  0  0  0  0
  -29.5457    0.2067   27.1407 C   0  0  0  0  0  0  0  0  0  0  0  0
  -25.8413   -1.2768   30.1172 C   0  0  0  0  0  0  0  0  0  0  0  0
  -25.1466   -0.6684   29.1623 C   0  0  0  0  0  0  0  0  0  0  0  0
  -23.7569   -0.8482   29.2232 C   0  0  0  0  0  0  0  0  0  0  0  0
  -23.1448   -1.9751   29.5848 C   0  0  0  0  0  0  0  0  0  0  0  0
  -24.0914   -2.8099   30.3033 C   0  0  0  0  0  0  0  0  0  0  0  0
  -25.2937   -2.4539   30.6997 C   0  0  0  0  0  0  0  0  0  0  0  0
  -26.5414   -0.0653   32.0696 N   0  0  0  0  0  0  0  0  0  0  0  0
  -27.2596   -0.3071   33.2160 C   0  0  0  0  0  0  0  0  0  0  0  0
  -26.6843    0.2436   34.3861 C   0  0  0  0  0  0  0  0  0  0  0  0
  -26.1430    1.3153   32.1760 C   0  0  0  0  0  0  0  0  0  0  0  0
  -26.0865    1.6027   33.7563 C   0  0  0  0  0  0  0  0  0  0  0  0
  -26.8613    2.6834   34.1535 O   0  0  0  0  0  0  0  0  0  0  0  0
  -26.3728    3.8951   33.8859 C   0  0  0  0  0  0  0  0  0  0  0  0
  -25.8956    4.0544   32.6032 C   0  0  0  0  0  0  0  0  0  0  0  0
  -25.5268    2.8296   31.8985 C   0  0  0  0  0  0  0  0  0  0  0  0
  -25.4630    2.9443   30.3278 C   0  0  0  0  0  0  0  0  0  0  0  0
  -26.6016    3.5536   29.7330 C   0  0  0  0  0  0  0  0  0  0  0  0
  -26.3964    3.8331   28.3133 C   0  0  0  0  0  0  0  0  0  0  0  0
  -25.2244    4.1916   27.9612 C   0  0  0  0  0  0  0  0  0  0  0  0
  -25.0835    4.6752   26.7072 C   0  0  0  0  0  0  0  0  0  0  0  0
  -23.7663    5.1342   26.3251 C   0  0  0  0  0  0  0  0  0  0  0  0
  -28.5377    1.8652   25.2403 C   0  0  0  0  0  0  0  0  0  0  0  0
  -27.5185    1.0043   24.9875 C   0  0  0  0  0  0  0  0  0  0  0  0
  -25.4344    5.3104   32.1008 C   0  0  0  0  0  0  0  0  0  0  0  0
  -24.4468    6.3055   32.9283 Cl  0  0  0  0  0  0  0  0  0  0  0  0
  1  2  2  0
  2  3  1  0
  2  4  1  0
  3  5  1  0
  4  6  1  0
  7  8  1  0
  4 10  1  0
  9 10  1  0
  5 11  1  0
  5 17  1  0
 17 18  1  0
 18 19  2  0
 17 20  1  0
 19 21  1  0
 20 21  1  0
 21 22  1  0
 22 23  1  0
 23 24  1  0
 20 25  1  0
 24 25  2  0
 25 26  1  0
 26 27  2  3
 27 28  1  0
 28 29  2  3
 29 30  1  0
 30 31  2  0
  9 32  1  0
 32 33  1  0
 24 34  1  0
 34 35  1  0
  6  7  1  0
  8  9  1  0
 11 12  2  0
 12 13  1  0
 13 14  2  0
 14 15  1  0
 15 16  2  0
 16 11  1  0
M  END

$$$$
