No_2004-gen_results/8p0m/2024-11-26-14-13-15/
     RDKit          3D

 10 10  0  0  0  0  0  0  0  0999 V2000
  -28.1229   -1.3353   28.4874 O   0  0  0  0  0  0  0  0  0  0  0  0
  -28.5208   -0.4363   29.0779 C   0  0  0  0  0  0  0  0  0  0  0  0
  -29.6977    0.0507   28.9764 C   0  0  0  0  0  0  0  0  0  0  0  0
  -27.4735    0.3426   29.7907 N   0  0  0  0  0  0  0  0  0  0  0  0
  -27.8125    1.4527   30.5890 C   0  0  0  0  0  0  0  0  0  0  0  0
  -30.6222   -0.3879   28.2063 C   0  0  0  0  0  0  0  0  0  0  0  0
  -29.1203    1.8292   30.4734 C   0  0  0  0  0  0  0  0  0  0  0  0
  -30.0367    1.2835   29.7459 C   0  0  0  0  0  0  0  0  0  0  0  0
  -30.0643   -0.7624   27.0709 F   0  0  0  0  0  0  0  0  0  0  0  0
  -31.0561   -1.5666   28.6994 F   0  0  0  0  0  0  0  0  0  0  0  0
  1  2  2  0
  2  3  1  0
  2  4  1  0
  4  5  1  0
  3  6  2  3
  5  7  1  0
  3  8  1  0
  7  8  1  0
  6  9  1  0
  6 10  1  0
M  END

$$$$
