No_2560-gen_results/8p0m/2024-11-26-14-13-15/
     RDKit          3D

 14 14  0  0  0  0  0  0  0  0999 V2000
  -28.0162   -0.8135   28.8779 C   0  0  0  0  0  0  0  0  0  0  0  0
  -27.0636   -0.1190   28.6079 C   0  0  0  0  0  0  0  0  0  0  0  0
  -26.9287    1.1713   29.0083 C   0  0  0  0  0  0  0  0  0  0  0  0
  -27.9560    1.7411   29.7840 C   0  0  0  0  0  0  0  0  0  0  0  0
  -29.0569   -0.3271   29.7466 C   0  0  0  0  0  0  0  0  0  0  0  0
  -28.9828    0.9722   30.1516 C   0  0  0  0  0  0  0  0  0  0  0  0
  -25.5466   -0.6321   27.4810 Br  0  0  0  0  0  0  0  0  0  0  0  0
  -29.9635    1.4137   30.9507 F   0  0  0  0  0  0  0  0  0  0  0  0
  -25.5203    2.2503   28.4874 P   0  0  0  0  0  0  0  0  0  0  0  0
  -25.7573    3.5912   29.0304 O   0  0  0  0  0  0  0  0  0  0  0  0
  -25.6179    2.3414   26.9529 O   0  0  0  0  0  0  0  0  0  0  0  0
  -24.2475    1.6597   28.9755 O   0  0  0  0  0  0  0  0  0  0  0  0
  -24.2324    1.0242   29.9604 F   0  0  0  0  0  0  0  0  0  0  0  0
  -25.4797    3.8269   30.1521 F   0  0  0  0  0  0  0  0  0  0  0  0
  2  7  1  0
  6  8  1  0
  3  9  1  0
  9 10  1  0
  9 11  2  0
  9 12  1  0
 12 13  1  0
 10 14  1  0
  1  2  2  0
  2  3  1  0
  3  4  2  0
  4  6  1  0
  6  5  2  0
  5  1  1  0
M  END

$$$$
