No_2216-gen_results/8p0m/2024-11-26-14-13-15/
     RDKit          3D

 20 22  0  0  0  0  0  0  0  0999 V2000
  -28.0162   -0.8135   28.8779 C   0  0  0  0  0  0  0  0  0  0  0  0
  -28.4690   -0.7850   29.8287 C   0  0  0  0  0  0  0  0  0  0  0  0
  -26.5042   -0.7777   28.8766 C   0  0  0  0  0  0  0  0  0  0  0  0
  -25.8103   -0.8531   30.1028 C   0  0  0  0  0  0  0  0  0  0  0  0
  -27.9906   -0.8916   31.2257 C   0  0  0  0  0  0  0  0  0  0  0  0
  -26.6042   -0.8676   31.2652 C   0  0  0  0  0  0  0  0  0  0  0  0
  -24.3894   -0.8049   30.1639 C   0  0  0  0  0  0  0  0  0  0  0  0
  -23.7660   -0.9500   31.0679 C   0  0  0  0  0  0  0  0  0  0  0  0
  -22.2665   -0.8379   31.2250 C   0  0  0  0  0  0  0  0  0  0  0  0
  -21.6701   -0.5264   30.0648 C   0  0  0  0  0  0  0  0  0  0  0  0
  -23.7317   -0.4993   28.8620 C   0  0  0  0  0  0  0  0  0  0  0  0
  -22.3671   -0.3419   28.8755 C   0  0  0  0  0  0  0  0  0  0  0  0
  -30.0901   -0.7844   29.8465 C   0  0  0  0  0  0  0  0  0  0  0  0
  -30.4947   -0.3194   28.8816 O   0  0  0  0  0  0  0  0  0  0  0  0
  -30.8079   -1.2721   30.8700 N   0  0  0  0  0  0  0  0  0  0  0  0
  -32.2494   -1.2469   30.7961 C   0  0  0  0  0  0  0  0  0  0  0  0
  -32.8186   -2.0333   31.5303 C   0  0  0  0  0  0  0  0  0  0  0  0
  -32.1714   -2.7038   32.4752 C   0  0  0  0  0  0  0  0  0  0  0  0
  -30.7890   -2.8262   32.6117 C   0  0  0  0  0  0  0  0  0  0  0  0
  -30.1132   -2.1763   31.7330 C   0  0  0  0  0  0  0  0  0  0  0  0
  4  7  1  0
  2 13  1  0
 13 14  2  0
 13 15  1  0
 15 16  1  0
 16 17  1  0
 18 19  1  0
 15 20  1  0
 19 20  1  0
 17 18  1  0
  7  8  2  0
  8  9  1  0
  9 10  2  0
 10 12  1  0
 12 11  2  0
 11  7  1  0
  1  2  2  0
  2  5  1  0
  5  6  2  0
  6  4  1  0
  4  3  2  0
  3  1  1  0
M  END

$$$$
