No_2017-gen_results/8p0m/2024-11-26-14-13-15/
     RDKit          3D

 35 38  0  0  0  0  0  0  0  0999 V2000
  -28.0162   -0.8135   28.8779 C   0  0  0  0  0  0  0  0  0  0  0  0
  -27.0636   -0.1189   28.6079 C   0  0  0  0  0  0  0  0  0  0  0  0
  -25.7647   -0.3897   29.0360 C   0  0  0  0  0  0  0  0  0  0  0  0
  -25.5296   -1.5302   29.9014 C   0  0  0  0  0  0  0  0  0  0  0  0
  -26.6888   -2.2893   30.1810 C   0  0  0  0  0  0  0  0  0  0  0  0
  -26.4988   -3.4805   30.9196 C   0  0  0  0  0  0  0  0  0  0  0  0
  -27.9248   -1.9917   29.6873 C   0  0  0  0  0  0  0  0  0  0  0  0
  -27.1308    1.1698   27.7861 C   0  0  0  0  0  0  0  0  0  0  0  0
  -26.4129    1.4113   26.9332 O   0  0  0  0  0  0  0  0  0  0  0  0
  -28.1619    1.8981   27.9989 O   0  0  0  0  0  0  0  0  0  0  0  0
  -27.6785   -4.4103   30.4579 C   0  0  0  0  0  0  0  0  0  0  0  0
  -28.6835   -3.3994   30.0533 C   0  0  0  0  0  0  0  0  0  0  0  0
  -29.7687   -3.0792   31.0555 C   0  0  0  0  0  0  0  0  0  0  0  0
  -30.5443   -3.9566   31.3363 C   0  0  0  0  0  0  0  0  0  0  0  0
  -31.6574   -3.7441   32.2761 C   0  0  0  0  0  0  0  0  0  0  0  0
  -31.8004   -2.4219   32.7862 C   0  0  0  0  0  0  0  0  0  0  0  0
  -29.9975   -1.7493   31.6979 C   0  0  0  0  0  0  0  0  0  0  0  0
  -30.9402   -1.4471   32.4741 C   0  0  0  0  0  0  0  0  0  0  0  0
  -29.3681   -3.8143   28.9766 O   0  0  0  0  0  0  0  0  0  0  0  0
  -24.1531   -1.7646   30.3264 C   0  0  0  0  0  0  0  0  0  0  0  0
  -23.5595   -0.6497   31.2444 C   0  0  0  0  0  0  0  0  0  0  0  0
  -24.3054   -0.1571   32.1793 C   0  0  0  0  0  0  0  0  0  0  0  0
  -24.9632    1.1626   32.1244 C   0  0  0  0  0  0  0  0  0  0  0  0
  -24.6475    2.0602   31.0361 C   0  0  0  0  0  0  0  0  0  0  0  0
  -25.2981    3.3226   30.9472 C   0  0  0  0  0  0  0  0  0  0  0  0
  -26.1247    3.5182   31.5154 C   0  0  0  0  0  0  0  0  0  0  0  0
  -26.0741    1.5683   32.8823 C   0  0  0  0  0  0  0  0  0  0  0  0
  -26.6800    2.7866   32.6440 C   0  0  0  0  0  0  0  0  0  0  0  0
  -24.5884   -0.9244   33.3813 C   0  0  0  0  0  0  0  0  0  0  0  0
  -26.9560    4.9353   31.3762 C   0  0  0  0  0  0  0  0  0  0  0  0
  -27.6287    5.3970   32.0524 O   0  0  0  0  0  0  0  0  0  0  0  0
  -26.9325    5.3258   30.0184 O   0  0  0  0  0  0  0  0  0  0  0  0
  -27.3421    6.4324   29.6547 C   0  0  0  0  0  0  0  0  0  0  0  0
  -27.0339    6.7146   28.4113 C   0  0  0  0  0  0  0  0  0  0  0  0
  -26.0665    5.9073   27.8446 C   0  0  0  0  0  0  0  0  0  0  0  0
  5  6  1  0
  2  8  1  0
  8  9  1  0
  8 10  2  0
  6 11  2  0
  7 12  1  0
 11 12  1  0
 12 13  1  0
 12 19  1  0
  4 20  1  0
 20 21  1  0
 21 22  1  0
 22 23  1  0
 22 29  1  0
 26 30  1  0
 30 31  2  0
 30 32  1  0
 32 33  1  0
 33 34  2  3
 34 35  1  0
  1  2  2  0
  2  3  1  0
  3  4  2  0
  4  5  1  0
  5  7  2  0
  7  1  1  0
 23 24  2  0
 24 25  1  0
 25 26  2  0
 26 28  1  0
 28 27  2  0
 27 23  1  0
 13 14  2  0
 14 15  1  0
 15 16  2  0
 16 18  1  0
 18 17  2  0
 17 13  1  0
M  END

$$$$
