No_2030-gen_results/8p0m/2024-11-26-14-13-15/
     RDKit          3D

 25 28  0  0  0  0  0  0  0  0999 V2000
  -28.0162   -0.8135   28.8779 C   0  0  0  0  0  0  0  0  0  0  0  0
  -27.0636   -0.1189   28.6079 C   0  0  0  0  0  0  0  0  0  0  0  0
  -26.9716    0.7139   27.5060 C   0  0  0  0  0  0  0  0  0  0  0  0
  -25.8205    1.4909   27.1160 C   0  0  0  0  0  0  0  0  0  0  0  0
  -24.6562    1.4242   27.9180 C   0  0  0  0  0  0  0  0  0  0  0  0
  -24.7114    0.5419   29.0507 C   0  0  0  0  0  0  0  0  0  0  0  0
  -25.8042   -0.2058   29.3881 C   0  0  0  0  0  0  0  0  0  0  0  0
  -29.2078   -0.2397   28.9031 N   0  0  0  0  0  0  0  0  0  0  0  0
  -27.8461   -2.0447   29.7585 C   0  0  0  0  0  0  0  0  0  0  0  0
  -23.6116    2.1039   27.6529 F   0  0  0  0  0  0  0  0  0  0  0  0
  -30.3343   -0.8727   29.4080 C   0  0  0  0  0  0  0  0  0  0  0  0
  -26.6168   -2.7024   29.9055 C   0  0  0  0  0  0  0  0  0  0  0  0
  -25.4971   -1.7000   29.8011 C   0  0  0  0  0  0  0  0  0  0  0  0
  -31.4416   -0.6741   28.9956 O   0  0  0  0  0  0  0  0  0  0  0  0
  -30.2596   -1.3556   30.6678 O   0  0  0  0  0  0  0  0  0  0  0  0
  -24.1405   -2.0232   30.1671 C   0  0  0  0  0  0  0  0  0  0  0  0
  -23.1381   -1.5009   30.2484 N   0  0  0  0  0  0  0  0  0  0  0  0
  -22.8781   -0.2285   29.9292 C   0  0  0  0  0  0  0  0  0  0  0  0
  -23.4909    0.7125   29.2393 C   0  0  0  0  0  0  0  0  0  0  0  0
  -22.8185    1.9217   29.1428 N   0  0  0  0  0  0  0  0  0  0  0  0
  -21.8045    1.7709   28.4725 C   0  0  0  0  0  0  0  0  0  0  0  0
  -21.1911    2.6117   27.7562 O   0  0  0  0  0  0  0  0  0  0  0  0
  -20.6839    0.7996   29.0475 C   0  0  0  0  0  0  0  0  0  0  0  0
  -21.3543   -0.1323   29.8047 O   0  0  0  0  0  0  0  0  0  0  0  0
  -23.7727    0.5183   30.3795 F   0  0  0  0  0  0  0  0  0  0  0  0
  1  8  1  0
  5 10  1  0
  8 11  1  0
 11 14  2  0
 11 15  1  0
 13 16  1  0
 16 17  2  0
 17 18  1  0
  6 19  1  0
 18 19  1  0
 19 20  1  0
 20 21  1  0
 21 22  2  0
 21 23  1  0
 18 24  1  0
 23 24  1  0
 19 25  1  0
  2  3  1  0
  3  4  2  0
  4  5  1  0
  5  6  2  0
  6  7  1  0
  1  2  2  0
  2  7  1  0
  7 13  2  0
 13 12  1  0
 12  9  2  0
  9  1  1  0
M  END

$$$$
