No_2790-gen_results/8p0m/2024-11-26-14-13-15/
     RDKit          3D

 15 17  0  0  0  0  0  0  0  0999 V2000
  -28.0162   -0.8135   28.8779 C   0  0  0  0  0  0  0  0  0  0  0  0
  -27.0636   -0.1190   28.6079 C   0  0  0  0  0  0  0  0  0  0  0  0
  -26.9716    0.7139   27.5060 C   0  0  0  0  0  0  0  0  0  0  0  0
  -28.1053    0.7744   26.6421 C   0  0  0  0  0  0  0  0  0  0  0  0
  -29.2008    0.1044   27.0527 C   0  0  0  0  0  0  0  0  0  0  0  0
  -29.2096   -0.6029   28.1853 C   0  0  0  0  0  0  0  0  0  0  0  0
  -30.2055    0.3215   26.0588 N   0  0  0  0  0  0  0  0  0  0  0  0
  -31.2935   -0.3683   26.2455 C   0  0  0  0  0  0  0  0  0  0  0  0
  -32.1905   -0.4383   25.1039 C   0  0  0  0  0  0  0  0  0  0  0  0
  -30.0638    1.0097   24.9110 C   0  0  0  0  0  0  0  0  0  0  0  0
  -30.9759    1.0922   23.8698 C   0  0  0  0  0  0  0  0  0  0  0  0
  -32.1140    0.3213   24.0535 C   0  0  0  0  0  0  0  0  0  0  0  0
  -28.8586    1.7250   24.7712 N   0  0  0  0  0  0  0  0  0  0  0  0
  -27.9189    1.6418   25.5455 C   0  0  0  0  0  0  0  0  0  0  0  0
  -26.8117    2.2966   25.4156 O   0  0  0  0  0  0  0  0  0  0  0  0
  5  7  1  0
  7  8  1  0
  7 10  1  0
  9 12  1  0
 11 12  1  0
 10 13  1  0
  4 14  1  0
 13 14  1  0
 14 15  2  0
  8  9  1  0
 11 10  1  0
  1  2  2  0
  2  3  1  0
  3  4  2  0
  4  5  1  0
  5  6  2  0
  6  1  1  0
M  END

$$$$
