No_2338-gen_results/8p0m/2024-11-26-14-13-15/
     RDKit          3D

 20 22  0  0  0  0  0  0  0  0999 V2000
  -28.0162   -0.8135   28.8779 C   0  0  0  0  0  0  0  0  0  0  0  0
  -28.4690   -0.7850   29.8287 C   0  0  0  0  0  0  0  0  0  0  0  0
  -27.0871    0.2903   28.6377 C   0  0  0  0  0  0  0  0  0  0  0  0
  -26.2516    0.4114   27.4223 C   0  0  0  0  0  0  0  0  0  0  0  0
  -28.3913    0.1041   30.9805 C   0  0  0  0  0  0  0  0  0  0  0  0
  -27.5332    1.1666   30.7866 C   0  0  0  0  0  0  0  0  0  0  0  0
  -26.8281    1.2557   29.6454 C   0  0  0  0  0  0  0  0  0  0  0  0
  -25.7329    1.6893   27.1546 C   0  0  0  0  0  0  0  0  0  0  0  0
  -25.3980    2.5582   28.1599 C   0  0  0  0  0  0  0  0  0  0  0  0
  -26.1221    2.4683   29.3701 C   0  0  0  0  0  0  0  0  0  0  0  0
  -25.8642    3.5352   30.3767 C   0  0  0  0  0  0  0  0  0  0  0  0
  -26.8383    3.7419   31.1095 O   0  0  0  0  0  0  0  0  0  0  0  0
  -24.7120    3.4820   30.9793 O   0  0  0  0  0  0  0  0  0  0  0  0
  -26.6149    4.6714   32.1600 C   0  0  0  0  0  0  0  0  0  0  0  0
  -26.6965    6.0385   31.7226 C   0  0  0  0  0  0  0  0  0  0  0  0
  -27.3951    6.6237   32.1610 C   0  0  0  0  0  0  0  0  0  0  0  0
  -25.6079    6.3597   30.7729 C   0  0  0  0  0  0  0  0  0  0  0  0
  -25.7324    7.4812   30.1719 C   0  0  0  0  0  0  0  0  0  0  0  0
  -27.5114    8.1013   31.5951 C   0  0  0  0  0  0  0  0  0  0  0  0
  -26.5911    8.4818   30.6271 C   0  0  0  0  0  0  0  0  0  0  0  0
 10 11  1  0
 11 12  1  0
 11 13  2  0
 12 14  1  0
 14 15  1  0
 15 16  2  0
 16 19  1  0
 19 20  2  0
 20 18  1  0
 18 17  2  0
 17 15  1  0
  1  2  2  0
  2  5  1  0
  5  6  2  0
  6  7  1  0
  3  1  1  0
  3  4  2  0
  4  8  1  0
  8  9  2  0
  9 10  1  0
 10  7  2  0
  7  3  1  0
M  END

$$$$
