No_2585-gen_results/8p0m/2024-11-26-14-13-15/
     RDKit          3D

 18 20  0  0  0  0  0  0  0  0999 V2000
  -28.0162   -0.8135   28.8779 C   0  0  0  0  0  0  0  0  0  0  0  0
  -28.4690   -0.7850   29.8287 C   0  0  0  0  0  0  0  0  0  0  0  0
  -26.5042   -0.7777   28.8766 C   0  0  0  0  0  0  0  0  0  0  0  0
  -25.8103   -0.8531   30.1028 C   0  0  0  0  0  0  0  0  0  0  0  0
  -30.0136   -0.8410   29.8508 C   0  0  0  0  0  0  0  0  0  0  0  0
  -26.5670   -0.8850   31.2517 C   0  0  0  0  0  0  0  0  0  0  0  0
  -27.9411   -0.9069   31.1850 C   0  0  0  0  0  0  0  0  0  0  0  0
  -30.6563   -1.6921   30.1810 O   0  0  0  0  0  0  0  0  0  0  0  0
  -30.6002    0.3117   29.2879 N   0  0  0  0  0  0  0  0  0  0  0  0
  -32.0122    0.3629   29.1073 C   0  0  0  0  0  0  0  0  0  0  0  0
  -29.8375    1.4755   28.8672 C   0  0  0  0  0  0  0  0  0  0  0  0
  -29.9096    1.9886   27.8832 C   0  0  0  0  0  0  0  0  0  0  0  0
  -32.2941    1.1040   27.8724 C   0  0  0  0  0  0  0  0  0  0  0  0
  -31.3459    2.0988   27.3663 C   0  0  0  0  0  0  0  0  0  0  0  0
  -25.6537   -0.6683   27.6541 C   0  0  0  0  0  0  0  0  0  0  0  0
  -24.3406   -0.2335   27.7726 C   0  0  0  0  0  0  0  0  0  0  0  0
  -23.6380   -0.5167   28.9862 C   0  0  0  0  0  0  0  0  0  0  0  0
  -24.3791   -0.6673   30.1860 C   0  0  0  0  0  0  0  0  0  0  0  0
  2  5  1  0
  5  8  2  0
  5  9  1  0
  9 10  1  0
  9 11  1  0
 12 14  1  0
 13 14  1  0
 10 13  1  0
 12 11  1  0
  4 18  2  0
 18 17  1  0
 17 16  2  0
 16 15  1  0
 15  3  2  0
  1  2  2  0
  2  7  1  0
  7  6  2  0
  6  4  1  0
  4  3  1  0
  3  1  1  0
M  END

$$$$
