No_2312-gen_results/8p0m/2024-11-26-14-13-15/
     RDKit          3D

 26 28  0  0  0  0  0  0  0  0999 V2000
  -28.0162   -0.8135   28.8779 C   0  0  0  0  0  0  0  0  0  0  0  0
  -27.0636   -0.1189   28.6079 C   0  0  0  0  0  0  0  0  0  0  0  0
  -26.9287    1.1713   29.0083 C   0  0  0  0  0  0  0  0  0  0  0  0
  -25.7702    2.0341   28.6884 C   0  0  0  0  0  0  0  0  0  0  0  0
  -24.7141    1.4431   27.9188 C   0  0  0  0  0  0  0  0  0  0  0  0
  -24.8590    0.0783   27.5836 C   0  0  0  0  0  0  0  0  0  0  0  0
  -25.9647   -0.6606   27.9164 C   0  0  0  0  0  0  0  0  0  0  0  0
  -28.0422   -1.5426   30.2417 C   0  0  0  0  0  0  0  0  0  0  0  0
  -29.0635   -2.4584   30.5917 C   0  0  0  0  0  0  0  0  0  0  0  0
  -28.7027   -3.7565   30.7123 C   0  0  0  0  0  0  0  0  0  0  0  0
  -27.5894   -4.1451   30.3655 O   0  0  0  0  0  0  0  0  0  0  0  0
  -29.7000   -4.7678   30.7360 N   0  0  0  0  0  0  0  0  0  0  0  0
  -23.3377    2.3061   27.5004 Cl  0  0  0  0  0  0  0  0  0  0  0  0
  -31.0646   -4.4652   30.9636 C   0  0  0  0  0  0  0  0  0  0  0  0
  -30.3847   -2.1951   30.3382 C   0  0  0  0  0  0  0  0  0  0  0  0
  -30.7841   -0.8554   30.3336 N   0  0  0  0  0  0  0  0  0  0  0  0
  -31.3681   -3.1215   30.7171 C   0  0  0  0  0  0  0  0  0  0  0  0
  -31.4185   -0.4075   29.1483 C   0  0  0  0  0  0  0  0  0  0  0  0
  -31.8832    0.5976   29.0246 C   0  0  0  0  0  0  0  0  0  0  0  0
  -30.6554    0.1066   31.2972 C   0  0  0  0  0  0  0  0  0  0  0  0
  -30.0231   -0.1908   32.5347 N   0  0  0  0  0  0  0  0  0  0  0  0
  -32.4775    1.0690   27.7895 C   0  0  0  0  0  0  0  0  0  0  0  0
  -29.7276    0.7145   33.4160 C   0  0  0  0  0  0  0  0  0  0  0  0
  -31.0498    1.3952   31.1265 C   0  0  0  0  0  0  0  0  0  0  0  0
  -31.6452    1.7521   29.9755 C   0  0  0  0  0  0  0  0  0  0  0  0
  -30.2113    2.0137   33.2068 C   0  0  0  0  0  0  0  0  0  0  0  0
  1  2  1  0
  1  8  1  0
  8  9  1  0
  9 10  1  0
 10 11  2  0
 10 12  1  0
  5 13  1  0
 12 14  1  0
  9 15  1  0
 15 16  1  0
 15 17  1  0
 16 18  1  0
 16 20  1  0
 20 21  1  0
 19 22  1  0
 21 23  2  3
 20 24  1  0
 19 25  1  0
 23 26  1  0
 18 19  1  0
 25 24  1  0
 17 14  1  0
  2  3  2  0
  3  4  1  0
  4  5  2  0
  5  6  1  0
  6  7  2  0
  7  2  1  0
M  END

$$$$
