No_2695-gen_results/8p0m/2024-11-26-14-13-15/
     RDKit          3D

 16 17  0  0  0  0  0  0  0  0999 V2000
  -28.0162   -0.8135   28.8779 C   0  0  0  0  0  0  0  0  0  0  0  0
  -28.4690   -0.7850   29.8287 C   0  0  0  0  0  0  0  0  0  0  0  0
  -26.5042   -0.7777   28.8766 C   0  0  0  0  0  0  0  0  0  0  0  0
  -25.8103   -0.8531   30.1028 C   0  0  0  0  0  0  0  0  0  0  0  0
  -27.9906   -0.8916   31.2257 C   0  0  0  0  0  0  0  0  0  0  0  0
  -26.6042   -0.8676   31.2652 C   0  0  0  0  0  0  0  0  0  0  0  0
  -24.5004   -0.7818   30.1446 O   0  0  0  0  0  0  0  0  0  0  0  0
  -23.8204   -0.0416   30.9033 C   0  0  0  0  0  0  0  0  0  0  0  0
  -30.3189   -0.8782   29.8208 Cl  0  0  0  0  0  0  0  0  0  0  0  0
  -23.9851    0.9616   31.3821 C   0  0  0  0  0  0  0  0  0  0  0  0
  -24.5767    2.1417   30.8337 C   0  0  0  0  0  0  0  0  0  0  0  0
  -24.9509    3.3209   31.5234 C   0  0  0  0  0  0  0  0  0  0  0  0
  -25.5082    4.4508   30.9196 C   0  0  0  0  0  0  0  0  0  0  0  0
  -25.8370    4.3854   29.5716 C   0  0  0  0  0  0  0  0  0  0  0  0
  -25.4963    3.2414   28.8604 C   0  0  0  0  0  0  0  0  0  0  0  0
  -24.9025    2.1500   29.4772 C   0  0  0  0  0  0  0  0  0  0  0  0
  4  7  1  0
  7  8  1  0
  2  9  1  0
  8 10  2  3
 10 11  1  0
 11 12  2  0
 12 13  1  0
 13 14  2  0
 14 15  1  0
 15 16  2  0
 16 11  1  0
  1  2  2  0
  2  5  1  0
  5  6  2  0
  6  4  1  0
  4  3  2  0
  3  1  1  0
M  END

$$$$
