No_2769-gen_results/8p0m/2024-11-26-14-13-15/
     RDKit          3D

 13 14  0  0  0  0  0  0  0  0999 V2000
  -28.0162   -0.8135   28.8779 C   0  0  0  0  0  0  0  0  0  0  0  0
  -28.4690   -0.7850   29.8287 C   0  0  0  0  0  0  0  0  0  0  0  0
  -26.5042   -0.7777   28.8766 C   0  0  0  0  0  0  0  0  0  0  0  0
  -25.9150   -0.6580   29.9230 C   0  0  0  0  0  0  0  0  0  0  0  0
  -27.9691   -0.7243   31.2047 C   0  0  0  0  0  0  0  0  0  0  0  0
  -26.5847   -0.6393   31.2062 C   0  0  0  0  0  0  0  0  0  0  0  0
  -29.9415   -0.8626   29.8704 O   0  0  0  0  0  0  0  0  0  0  0  0
  -30.6762    0.1229   30.3377 C   0  0  0  0  0  0  0  0  0  0  0  0
  -31.8323    0.0303   30.1708 C   0  0  0  0  0  0  0  0  0  0  0  0
  -32.7368    1.1382   30.5956 C   0  0  0  0  0  0  0  0  0  0  0  0
  -32.1061    2.2459   31.2211 C   0  0  0  0  0  0  0  0  0  0  0  0
  -30.7508    2.2486   31.3768 C   0  0  0  0  0  0  0  0  0  0  0  0
  -29.9638    1.2381   30.9560 C   0  0  0  0  0  0  0  0  0  0  0  0
  2  7  1  0
  7  8  1  0
  8  9  2  0
  9 10  1  0
 10 11  2  0
 11 12  1  0
 12 13  2  0
 13  8  1  0
  1  2  2  0
  2  5  1  0
  5  6  2  0
  6  4  1  0
  4  3  2  0
  3  1  1  0
M  END

$$$$
