No_286-gen_results/8p0m/2024-11-26-14-13-15/
     RDKit          3D

 12 12  0  0  0  0  0  0  0  0999 V2000
  -28.0162   -0.8135   28.8779 C   0  0  0  0  0  0  0  0  0  0  0  0
  -28.4690   -0.7850   29.8287 C   0  0  0  0  0  0  0  0  0  0  0  0
  -27.0871    0.2903   28.6377 C   0  0  0  0  0  0  0  0  0  0  0  0
  -26.9102    0.8486   27.4199 C   0  0  0  0  0  0  0  0  0  0  0  0
  -27.8863   -0.5049   31.0944 C   0  0  0  0  0  0  0  0  0  0  0  0
  -26.9294    0.5930   31.0741 C   0  0  0  0  0  0  0  0  0  0  0  0
  -26.5225    0.9550   29.8008 C   0  0  0  0  0  0  0  0  0  0  0  0
  -25.7212    0.5056   26.8627 C   0  0  0  0  0  0  0  0  0  0  0  0
  -24.6320    1.1945   27.0059 C   0  0  0  0  0  0  0  0  0  0  0  0
  -23.8647    1.4823   28.0879 C   0  0  0  0  0  0  0  0  0  0  0  0
  -22.6287    2.1383   28.0157 C   0  0  0  0  0  0  0  0  0  0  0  0
  -22.0581    2.3014   26.7068 C   0  0  0  0  0  0  0  0  0  0  0  0
  3  4  1  0
  4  8  1  0
  8  9  2  3
  9 10  1  0
 10 11  2  3
 11 12  1  0
  1  2  2  0
  2  5  1  0
  5  6  2  0
  6  7  1  0
  7  3  2  0
  3  1  1  0
M  END

$$$$
