No_2387-gen_results/8p0m/2024-11-26-14-13-15/
     RDKit          3D

 24 27  0  0  0  0  0  0  0  0999 V2000
  -28.0162   -0.8135   28.8779 C   0  0  0  0  0  0  0  0  0  0  0  0
  -28.4690   -0.7850   29.8287 C   0  0  0  0  0  0  0  0  0  0  0  0
  -28.1960    0.3478   28.0550 C   0  0  0  0  0  0  0  0  0  0  0  0
  -29.0191    1.3501   28.3782 C   0  0  0  0  0  0  0  0  0  0  0  0
  -29.4107    0.1803   30.3782 C   0  0  0  0  0  0  0  0  0  0  0  0
  -29.6059    1.2495   29.6193 C   0  0  0  0  0  0  0  0  0  0  0  0
  -27.3467    0.3759   26.5145 Cl  0  0  0  0  0  0  0  0  0  0  0  0
  -30.0268   -0.0284   31.7609 C   0  0  0  0  0  0  0  0  0  0  0  0
  -29.9889    0.9520   32.5726 C   0  0  0  0  0  0  0  0  0  0  0  0
  -30.7976    0.9084   33.8069 C   0  0  0  0  0  0  0  0  0  0  0  0
  -30.7803    1.9838   34.7263 C   0  0  0  0  0  0  0  0  0  0  0  0
  -29.9880    3.1081   34.3846 C   0  0  0  0  0  0  0  0  0  0  0  0
  -29.2121    3.1689   33.2475 C   0  0  0  0  0  0  0  0  0  0  0  0
  -29.1699    2.0943   32.3594 C   0  0  0  0  0  0  0  0  0  0  0  0
  -30.6345   -1.2869   31.9416 C   0  0  0  0  0  0  0  0  0  0  0  0
  -30.5315   -2.4127   31.1276 C   0  0  0  0  0  0  0  0  0  0  0  0
  -31.2124   -3.5266   31.5758 C   0  0  0  0  0  0  0  0  0  0  0  0
  -31.8848   -3.5230   32.7525 C   0  0  0  0  0  0  0  0  0  0  0  0
  -31.9659   -2.4475   33.5476 C   0  0  0  0  0  0  0  0  0  0  0  0
  -31.3677   -1.2994   33.2156 C   0  0  0  0  0  0  0  0  0  0  0  0
  -31.3778   -0.2013   34.0745 C   0  0  0  0  0  0  0  0  0  0  0  0
  -32.2622   -0.1744   34.9983 O   0  0  0  0  0  0  0  0  0  0  0  0
  -28.3719    4.3868   32.9478 C   0  0  0  0  0  0  0  0  0  0  0  0
  -27.6765    4.5136   32.0710 N   0  0  0  0  0  0  0  0  0  0  0  0
  3  7  1  0
  5  8  1  0
  8 15  1  0
 10 21  1  0
 20 21  1  0
 21 22  2  0
 13 23  1  0
 23 24  3  0
  9  8  1  0
  9 10  1  0
 10 11  2  0
 11 12  1  0
 12 13  2  0
 13 14  1  0
 14  9  2  0
 15 16  2  0
 16 17  1  0
 17 18  2  0
 18 19  1  0
 19 20  2  0
 20 15  1  0
  1  2  2  0
  2  5  1  0
  5  6  2  0
  6  4  1  0
  4  3  2  0
  3  1  1  0
M  END

$$$$
