No_2550-gen_results/8p0m/2024-11-26-14-13-15/
     RDKit          3D

 35 38  0  0  0  0  0  0  0  0999 V2000
  -28.0162   -0.8135   28.8779 C   0  0  0  0  0  0  0  0  0  0  0  0
  -27.0636   -0.1190   28.6079 C   0  0  0  0  0  0  0  0  0  0  0  0
  -27.0010    0.6913   27.4910 C   0  0  0  0  0  0  0  0  0  0  0  0
  -28.1373    0.7363   26.6350 C   0  0  0  0  0  0  0  0  0  0  0  0
  -29.2360    0.0765   27.0690 C   0  0  0  0  0  0  0  0  0  0  0  0
  -29.2177   -0.6429   28.1747 C   0  0  0  0  0  0  0  0  0  0  0  0
  -30.6116    0.1653   26.0711 Cl  0  0  0  0  0  0  0  0  0  0  0  0
  -25.7122   -0.2157   29.4104 C   0  0  0  0  0  0  0  0  0  0  0  0
  -25.0698    1.0084   29.7579 C   0  0  0  0  0  0  0  0  0  0  0  0
  -24.4710    1.1666   30.8038 C   0  0  0  0  0  0  0  0  0  0  0  0
  -24.0070    0.0014   31.5713 C   0  0  0  0  0  0  0  0  0  0  0  0
  -24.5465   -1.2446   31.1808 C   0  0  0  0  0  0  0  0  0  0  0  0
  -25.4541   -1.3736   30.1421 C   0  0  0  0  0  0  0  0  0  0  0  0
  -25.9257   -2.6595   29.8342 C   0  0  0  0  0  0  0  0  0  0  0  0
  -26.9148   -3.2254   30.2941 O   0  0  0  0  0  0  0  0  0  0  0  0
  -25.2753   -3.2899   28.7069 N   0  0  0  0  0  0  0  0  0  0  0  0
  -23.9896   -2.8066   28.3015 C   0  0  0  0  0  0  0  0  0  0  0  0
  -28.2548    1.5274   25.5659 O   0  0  0  0  0  0  0  0  0  0  0  0
  -28.1371    2.8453   25.4882 C   0  0  0  0  0  0  0  0  0  0  0  0
  -29.2796    3.5912   25.1323 C   0  0  0  0  0  0  0  0  0  0  0  0
  -29.3797    4.9296   25.6137 C   0  0  0  0  0  0  0  0  0  0  0  0
  -28.3207    5.5514   26.2738 C   0  0  0  0  0  0  0  0  0  0  0  0
  -27.1974    4.7893   26.6181 C   0  0  0  0  0  0  0  0  0  0  0  0
  -27.1550    3.4684   26.3323 C   0  0  0  0  0  0  0  0  0  0  0  0
  -26.1144    5.3960   27.3986 C   0  0  0  0  0  0  0  0  0  0  0  0
  -26.1834    6.3216   28.2444 C   0  0  0  0  0  0  0  0  0  0  0  0
  -24.7368    4.8072   27.1532 C   0  0  0  0  0  0  0  0  0  0  0  0
  -25.5097    6.9602   28.9503 C   0  0  0  0  0  0  0  0  0  0  0  0
  -25.0636    7.6824   29.8527 C   0  0  0  0  0  0  0  0  0  0  0  0
  -25.5118    7.6127   31.1947 C   0  0  0  0  0  0  0  0  0  0  0  0
  -26.4025    6.6813   31.5780 C   0  0  0  0  0  0  0  0  0  0  0  0
  -26.7732    6.5464   32.9774 C   0  0  0  0  0  0  0  0  0  0  0  0
  -26.1372    7.4108   33.8875 C   0  0  0  0  0  0  0  0  0  0  0  0
  -25.1996    8.3322   33.5582 C   0  0  0  0  0  0  0  0  0  0  0  0
  -24.8311    8.4130   32.2325 C   0  0  0  0  0  0  0  0  0  0  0  0
  5  7  1  0
  2  8  1  0
 13 14  1  0
 14 15  2  0
 14 16  1  0
 16 17  1  0
  4 18  1  0
 18 19  1  0
 23 25  1  0
 25 26  1  0
 25 27  1  0
 26 28  2  3
 28 29  1  0
 29 30  1  0
  1  2  2  0
  2  3  1  0
  3  4  2  0
  4  5  1  0
  5  6  2  0
  6  1  1  0
 30 31  2  0
 31 32  1  0
 32 33  2  0
 33 34  1  0
 34 35  2  0
 35 30  1  0
  8  9  2  0
  9 10  1  0
 10 11  2  0
 11 12  1  0
 12 13  2  0
 13  8  1  0
 19 20  2  0
 20 21  1  0
 21 22  2  0
 22 23  1  0
 23 24  2  0
 24 19  1  0
M  END

$$$$
