No_2748-gen_results/8p0m/2024-11-26-14-13-15/
     RDKit          3D

 35 37  0  0  0  0  0  0  0  0999 V2000
  -28.1229   -1.3353   28.4874 O   0  0  0  0  0  0  0  0  0  0  0  0
  -27.4806   -0.4044   28.7094 C   0  0  0  0  0  0  0  0  0  0  0  0
  -26.3804   -0.0867   27.9394 C   0  0  0  0  0  0  0  0  0  0  0  0
  -27.8993    0.6459   29.6320 N   0  0  0  0  0  0  0  0  0  0  0  0
  -25.1243   -0.5319   28.3714 C   0  0  0  0  0  0  0  0  0  0  0  0
  -23.9129    0.2827   28.3242 C   0  0  0  0  0  0  0  0  0  0  0  0
  -23.9022    1.4022   27.4490 C   0  0  0  0  0  0  0  0  0  0  0  0
  -25.1773    1.7974   26.9001 C   0  0  0  0  0  0  0  0  0  0  0  0
  -26.2992    1.1814   27.1716 C   0  0  0  0  0  0  0  0  0  0  0  0
  -29.0818    0.3495   30.4116 C   0  0  0  0  0  0  0  0  0  0  0  0
  -22.7644    2.0119   27.3005 F   0  0  0  0  0  0  0  0  0  0  0  0
  -22.6325   -0.2402   28.8443 C   0  0  0  0  0  0  0  0  0  0  0  0
  -22.6302   -1.2797   29.6605 N   0  0  0  0  0  0  0  0  0  0  0  0
  -21.5306    0.3595   28.5854 O   0  0  0  0  0  0  0  0  0  0  0  0
  -27.5270    1.6922   26.6249 C   0  0  0  0  0  0  0  0  0  0  0  0
  -27.9008    2.9327   27.0286 C   0  0  0  0  0  0  0  0  0  0  0  0
  -27.2891    3.6330   28.0146 C   0  0  0  0  0  0  0  0  0  0  0  0
  -27.6417    4.9732   28.3994 C   0  0  0  0  0  0  0  0  0  0  0  0
  -28.6132    5.5504   27.6052 C   0  0  0  0  0  0  0  0  0  0  0  0
  -29.2598    4.9344   26.5403 C   0  0  0  0  0  0  0  0  0  0  0  0
  -28.8588    3.6568   26.2438 C   0  0  0  0  0  0  0  0  0  0  0  0
  -28.3209    0.8707   25.8403 C   0  0  0  0  0  0  0  0  0  0  0  0
  -29.8783    1.4601   30.5347 C   0  0  0  0  0  0  0  0  0  0  0  0
  -30.9204    1.3773   31.2325 C   0  0  0  0  0  0  0  0  0  0  0  0
  -31.8574    2.4927   31.3880 C   0  0  0  0  0  0  0  0  0  0  0  0
  -33.0225    2.4607   32.1205 C   0  0  0  0  0  0  0  0  0  0  0  0
  -31.2516    3.8259   31.1433 C   0  0  0  0  0  0  0  0  0  0  0  0
  -30.0980    3.9362   30.3461 C   0  0  0  0  0  0  0  0  0  0  0  0
  -29.3169    2.7550   30.1591 C   0  0  0  0  0  0  0  0  0  0  0  0
  -33.3191    3.0176   33.0652 O   0  0  0  0  0  0  0  0  0  0  0  0
  -33.8488    1.8263   31.3652 F   0  0  0  0  0  0  0  0  0  0  0  0
  -29.2882    0.2532   25.9428 O   0  0  0  0  0  0  0  0  0  0  0  0
  -27.7718    0.6753   24.5005 O   0  0  0  0  0  0  0  0  0  0  0  0
  -28.5127   -0.1944   31.7101 C   0  0  0  0  0  0  0  0  0  0  0  0
  -27.3650    0.2170   32.1899 C   0  0  0  0  0  0  0  0  0  0  0  0
  1  2  2  0
  2  3  1  0
  2  4  1  0
  4 10  1  0
  7 11  1  0
  6 12  1  0
 12 13  1  0
 12 14  2  0
  9 15  1  0
 15 22  1  0
 10 23  1  0
 25 26  1  0
 26 30  2  0
 26 31  1  0
 22 32  2  0
 22 33  1  0
 10 34  1  0
 34 35  1  0
 15 16  1  0
 23 24  2  0
 24 25  1  0
 25 27  2  0
 27 28  1  0
 28 29  2  0
 29 23  1  0
  3  5  2  0
  5  6  1  0
  6  7  2  0
  7  8  1  0
  8  9  2  0
  9  3  1  0
 16 17  2  0
 17 18  1  0
 18 19  2  0
 19 20  1  0
 20 21  2  0
 21 16  1  0
M  END

$$$$
