No_2161-gen_results/8p0m/2024-11-26-14-13-15/
     RDKit          3D

 21 22  0  0  0  0  0  0  0  0999 V2000
  -28.0162   -0.8135   28.8779 C   0  0  0  0  0  0  0  0  0  0  0  0
  -27.0636   -0.1189   28.6079 C   0  0  0  0  0  0  0  0  0  0  0  0
  -26.9287    1.1713   29.0083 C   0  0  0  0  0  0  0  0  0  0  0  0
  -27.9560    1.7411   29.7840 C   0  0  0  0  0  0  0  0  0  0  0  0
  -29.0569   -0.3271   29.7466 C   0  0  0  0  0  0  0  0  0  0  0  0
  -30.1704   -1.1582   30.1327 C   0  0  0  0  0  0  0  0  0  0  0  0
  -28.9772    0.9577   30.1786 C   0  0  0  0  0  0  0  0  0  0  0  0
  -30.0276   -2.3477   30.5096 N   0  0  0  0  0  0  0  0  0  0  0  0
  -31.5256   -0.7065   30.0270 C   0  0  0  0  0  0  0  0  0  0  0  0
  -32.5381   -1.5840   30.3215 C   0  0  0  0  0  0  0  0  0  0  0  0
  -30.9638   -3.2682   30.8196 C   0  0  0  0  0  0  0  0  0  0  0  0
  -32.2362   -2.8335   30.7326 N   0  0  0  0  0  0  0  0  0  0  0  0
  -30.7005   -4.4301   31.2201 O   0  0  0  0  0  0  0  0  0  0  0  0
  -26.0402   -0.5942   27.8211 F   0  0  0  0  0  0  0  0  0  0  0  0
  -33.8112   -1.2578   30.3976 N   0  0  0  0  0  0  0  0  0  0  0  0
  -34.1452    0.0259   30.7883 C   0  0  0  0  0  0  0  0  0  0  0  0
  -34.1649    0.8582   29.7173 C   0  0  0  0  0  0  0  0  0  0  0  0
  -34.3089    2.2818   30.0154 C   0  0  0  0  0  0  0  0  0  0  0  0
  -34.2055    3.2635   28.9785 C   0  0  0  0  0  0  0  0  0  0  0  0
  -33.9571    2.7794   27.6744 C   0  0  0  0  0  0  0  0  0  0  0  0
  -33.7606    1.4530   27.4348 C   0  0  0  0  0  0  0  0  0  0  0  0
  5  6  1  0
  6  9  1  0
  8 11  1  0
 10 12  1  0
 11 12  1  0
 11 13  2  0
  2 14  1  0
 10 15  1  0
 15 16  1  0
 16 17  2  3
 17 18  1  0
 18 19  2  3
 19 20  1  0
 20 21  2  0
  8  6  1  0
  9 10  1  0
  1  2  2  0
  2  3  1  0
  3  4  2  0
  4  7  1  0
  7  5  2  0
  5  1  1  0
M  END

$$$$
