No_2599-gen_results/8p0m/2024-11-26-14-13-15/
     RDKit          3D

 35 37  0  0  0  0  0  0  0  0999 V2000
  -28.0162   -0.8135   28.8779 C   0  0  0  0  0  0  0  0  0  0  0  0
  -28.4690   -0.7850   29.8287 C   0  0  0  0  0  0  0  0  0  0  0  0
  -27.0871    0.2903   28.6377 C   0  0  0  0  0  0  0  0  0  0  0  0
  -26.8317    1.2487   29.5869 C   0  0  0  0  0  0  0  0  0  0  0  0
  -28.3914    0.0801   31.0065 C   0  0  0  0  0  0  0  0  0  0  0  0
  -27.4940    1.1521   30.7841 C   0  0  0  0  0  0  0  0  0  0  0  0
  -26.3172    0.3994   27.3653 C   0  0  0  0  0  0  0  0  0  0  0  0
  -26.8815    0.9711   26.3721 C   0  0  0  0  0  0  0  0  0  0  0  0
  -25.0088   -0.0567   27.3826 C   0  0  0  0  0  0  0  0  0  0  0  0
  -28.1703    1.4323   26.2851 C   0  0  0  0  0  0  0  0  0  0  0  0
  -28.8482    1.7560   27.1858 C   0  0  0  0  0  0  0  0  0  0  0  0
  -30.2040    2.4111   26.9345 C   0  0  0  0  0  0  0  0  0  0  0  0
  -30.6082    2.4871   25.6406 C   0  0  0  0  0  0  0  0  0  0  0  0
  -29.7984    2.1842   24.5688 C   0  0  0  0  0  0  0  0  0  0  0  0
  -28.5665    1.7352   24.8269 C   0  0  0  0  0  0  0  0  0  0  0  0
  -26.1979    0.5033   25.1110 C   0  0  0  0  0  0  0  0  0  0  0  0
  -24.4340   -0.4350   28.7280 C   0  0  0  0  0  0  0  0  0  0  0  0
  -23.1115   -0.3029   28.9433 C   0  0  0  0  0  0  0  0  0  0  0  0
  -22.5588   -1.0281   30.0124 C   0  0  0  0  0  0  0  0  0  0  0  0
  -23.3893   -1.5608   31.0127 C   0  0  0  0  0  0  0  0  0  0  0  0
  -24.7718   -1.5926   30.7807 C   0  0  0  0  0  0  0  0  0  0  0  0
  -25.2423   -1.0819   29.6341 C   0  0  0  0  0  0  0  0  0  0  0  0
  -29.5692   -1.9254   30.2308 C   0  0  0  0  0  0  0  0  0  0  0  0
  -29.3905   -2.9431   30.0643 O   0  0  0  0  0  0  0  0  0  0  0  0
  -30.6041   -1.5606   30.9828 O   0  0  0  0  0  0  0  0  0  0  0  0
  -27.3343    2.1940   31.8579 C   0  0  0  0  0  0  0  0  0  0  0  0
  -26.6862    3.2660   31.7530 C   0  0  0  0  0  0  0  0  0  0  0  0
  -25.9838    3.6416   30.5718 C   0  0  0  0  0  0  0  0  0  0  0  0
  -25.8633    2.9113   29.4327 C   0  0  0  0  0  0  0  0  0  0  0  0
  -25.5026    1.4729   29.6103 F   0  0  0  0  0  0  0  0  0  0  0  0
  -25.4889    3.4471   28.2365 C   0  0  0  0  0  0  0  0  0  0  0  0
  -26.7362    3.6317   29.2870 Cl  0  0  0  0  0  0  0  0  0  0  0  0
  -25.1931    3.8801   27.2179 C   0  0  0  0  0  0  0  0  0  0  0  0
  -23.9993    2.9694   27.9384 C   0  0  0  0  0  0  0  0  0  0  0  0
  -25.0578    5.3360   27.1004 C   0  0  0  0  0  0  0  0  0  0  0  0
  3  7  1  0
  7  8  1  0
  7  9  1  0
  8 10  1  0
  8 16  1  0
  9 17  1  0
  2 23  1  0
 23 24  2  0
 23 25  1  0
  6 26  1  0
 26 27  2  3
 27 28  1  0
 28 29  2  3
  4 30  1  0
 29 31  1  0
 29 32  1  0
 31 33  1  0
 31 34  1  0
 33 35  1  0
 17 18  2  0
 18 19  1  0
 19 20  2  0
 20 21  1  0
 21 22  2  0
 22 17  1  0
  1  2  2  0
  2  5  1  0
  5  6  2  0
  6  4  1  0
  4  3  2  0
  3  1  1  0
 10 11  2  0
 11 12  1  0
 12 13  2  0
 13 14  1  0
 14 15  2  0
 15 10  1  0
M  END

$$$$
