No_2690-gen_results/8p0m/2024-11-26-14-13-15/
     RDKit          3D

 14 14  0  0  0  0  0  0  0  0999 V2000
  -28.0162   -0.8135   28.8779 C   0  0  0  0  0  0  0  0  0  0  0  0
  -28.4690   -0.7850   29.8287 C   0  0  0  0  0  0  0  0  0  0  0  0
  -28.1960    0.3478   28.0550 C   0  0  0  0  0  0  0  0  0  0  0  0
  -29.0191    1.3501   28.3782 C   0  0  0  0  0  0  0  0  0  0  0  0
  -29.4107    0.1803   30.3782 C   0  0  0  0  0  0  0  0  0  0  0  0
  -29.6059    1.2495   29.6193 C   0  0  0  0  0  0  0  0  0  0  0  0
  -27.4478    0.3799   26.7122 C   0  0  0  0  0  0  0  0  0  0  0  0
  -28.0583    0.1371   25.7461 F   0  0  0  0  0  0  0  0  0  0  0  0
  -26.3526   -0.4665   26.8003 F   0  0  0  0  0  0  0  0  0  0  0  0
  -26.9557    1.6777   26.6078 F   0  0  0  0  0  0  0  0  0  0  0  0
  -30.4555    2.2508   30.0060 O   0  0  0  0  0  0  0  0  0  0  0  0
  -30.0428    3.0156   30.9515 C   0  0  0  0  0  0  0  0  0  0  0  0
  -29.4704    2.8499   31.9357 C   0  0  0  0  0  0  0  0  0  0  0  0
  -29.0262    3.8208   32.9126 C   0  0  0  0  0  0  0  0  0  0  0  0
  3  7  1  0
  7  8  1  0
  7  9  1  0
  7 10  1  0
  6 11  1  0
 11 12  1  0
 12 13  2  3
 13 14  1  0
  1  2  2  0
  2  5  1  0
  5  6  2  0
  6  4  1  0
  4  3  2  0
  3  1  1  0
M  END

$$$$
