No_243-gen_results/8p0m/2024-11-26-14-13-15/
     RDKit          3D

 18 19  0  0  0  0  0  0  0  0999 V2000
  -28.0162   -0.8135   28.8779 C   0  0  0  0  0  0  0  0  0  0  0  0
  -27.0636   -0.1190   28.6079 C   0  0  0  0  0  0  0  0  0  0  0  0
  -26.9287    1.1713   29.0083 C   0  0  0  0  0  0  0  0  0  0  0  0
  -27.9560    1.7411   29.7840 C   0  0  0  0  0  0  0  0  0  0  0  0
  -29.0569   -0.3271   29.7466 C   0  0  0  0  0  0  0  0  0  0  0  0
  -28.9828    0.9722   30.1516 C   0  0  0  0  0  0  0  0  0  0  0  0
  -26.0660   -0.7857   27.8860 N   0  0  0  0  0  0  0  0  0  0  0  0
  -24.6295   -0.5615   28.2005 C   0  0  0  0  0  0  0  0  0  0  0  0
  -24.0002   -1.4788   29.1004 C   0  0  0  0  0  0  0  0  0  0  0  0
  -23.9894    0.5086   27.5807 C   0  0  0  0  0  0  0  0  0  0  0  0
  -22.6416    0.7525   28.0274 C   0  0  0  0  0  0  0  0  0  0  0  0
  -21.9583   -0.1034   28.8874 C   0  0  0  0  0  0  0  0  0  0  0  0
  -22.6831   -1.2317   29.4198 C   0  0  0  0  0  0  0  0  0  0  0  0
  -21.9263    1.7828   27.5600 F   0  0  0  0  0  0  0  0  0  0  0  0
  -27.8271    3.1903   30.2061 C   0  0  0  0  0  0  0  0  0  0  0  0
  -28.4292    3.6286   31.1209 F   0  0  0  0  0  0  0  0  0  0  0  0
  -28.1077    3.9881   29.0767 F   0  0  0  0  0  0  0  0  0  0  0  0
  -26.4799    3.4478   30.4181 F   0  0  0  0  0  0  0  0  0  0  0  0
  2  7  1  0
  7  8  1  0
 11 14  1  0
  4 15  1  0
 15 16  1  0
 15 17  1  0
 15 18  1  0
  1  2  2  0
  2  3  1  0
  3  4  2  0
  4  6  1  0
  6  5  2  0
  5  1  1  0
  8  9  2  0
  9 13  1  0
 13 12  2  0
 12 11  1  0
 11 10  2  0
 10  8  1  0
M  END

$$$$
