No_249-gen_results/8p0m/2024-11-26-14-13-15/
     RDKit          3D

 18 19  0  0  0  0  0  0  0  0999 V2000
  -28.0162   -0.8135   28.8779 C   0  0  0  0  0  0  0  0  0  0  0  0
  -27.0636   -0.1190   28.6079 C   0  0  0  0  0  0  0  0  0  0  0  0
  -26.9287    1.1713   29.0083 C   0  0  0  0  0  0  0  0  0  0  0  0
  -25.7702    2.0341   28.6884 C   0  0  0  0  0  0  0  0  0  0  0  0
  -24.7141    1.4431   27.9188 C   0  0  0  0  0  0  0  0  0  0  0  0
  -24.8590    0.0783   27.5836 C   0  0  0  0  0  0  0  0  0  0  0  0
  -25.9647   -0.6606   27.9164 C   0  0  0  0  0  0  0  0  0  0  0  0
  -28.6576   -0.6023   30.2546 C   0  0  0  0  0  0  0  0  0  0  0  0
  -28.9108    0.6988   30.5389 C   0  0  0  0  0  0  0  0  0  0  0  0
  -27.7732    1.5979   30.1492 C   0  0  0  0  0  0  0  0  0  0  0  0
  -23.5610    2.1844   27.4573 C   0  0  0  0  0  0  0  0  0  0  0  0
  -22.5373    1.5431   27.4377 F   0  0  0  0  0  0  0  0  0  0  0  0
  -23.3640    3.2461   28.3624 F   0  0  0  0  0  0  0  0  0  0  0  0
  -23.8151    2.8200   26.3138 F   0  0  0  0  0  0  0  0  0  0  0  0
  -27.7124    2.9851   30.6535 C   0  0  0  0  0  0  0  0  0  0  0  0
  -28.5627    3.4016   31.5234 C   0  0  0  0  0  0  0  0  0  0  0  0
  -28.4388    4.7417   32.0294 C   0  0  0  0  0  0  0  0  0  0  0  0
  -29.2207    5.3228   32.9258 C   0  0  0  0  0  0  0  0  0  0  0  0
  5 11  1  0
 11 12  1  0
 11 13  1  0
 11 14  1  0
 10 15  1  0
 15 16  2  3
 16 17  1  0
 17 18  2  0
  3  4  1  0
  4  5  2  0
  5  6  1  0
  6  7  2  0
  7  2  1  0
  1  2  2  0
  2  3  1  0
  3 10  2  0
 10  9  1  0
  9  8  2  0
  8  1  1  0
M  END

$$$$
