No_2566-gen_results/8p0m/2024-11-26-14-13-15/
     RDKit          3D

 27 29  0  0  0  0  0  0  0  0999 V2000
  -28.0162   -0.8135   28.8779 C   0  0  0  0  0  0  0  0  0  0  0  0
  -28.4690   -0.7850   29.8287 C   0  0  0  0  0  0  0  0  0  0  0  0
  -28.1960    0.3478   28.0550 C   0  0  0  0  0  0  0  0  0  0  0  0
  -29.0191    1.3501   28.3782 C   0  0  0  0  0  0  0  0  0  0  0  0
  -29.4107    0.1803   30.3782 C   0  0  0  0  0  0  0  0  0  0  0  0
  -29.6059    1.2495   29.6193 C   0  0  0  0  0  0  0  0  0  0  0  0
  -27.3467    0.3759   26.5145 Cl  0  0  0  0  0  0  0  0  0  0  0  0
  -30.0268   -0.0284   31.7609 C   0  0  0  0  0  0  0  0  0  0  0  0
  -29.9889    0.9520   32.5726 C   0  0  0  0  0  0  0  0  0  0  0  0
  -29.1416    2.0784   32.3580 C   0  0  0  0  0  0  0  0  0  0  0  0
  -29.7077    3.0838   31.8711 C   0  0  0  0  0  0  0  0  0  0  0  0
  -28.8643    4.3166   32.0069 C   0  0  0  0  0  0  0  0  0  0  0  0
  -28.1291    2.3979   33.3404 C   0  0  0  0  0  0  0  0  0  0  0  0
  -27.3118    3.4648   33.4247 C   0  0  0  0  0  0  0  0  0  0  0  0
  -27.7740    4.5508   32.6936 C   0  0  0  0  0  0  0  0  0  0  0  0
  -29.4013    5.5498   31.1142 C   0  0  0  0  0  0  0  0  0  0  0  0
  -28.8743    5.7891   30.0864 N   0  0  0  0  0  0  0  0  0  0  0  0
  -27.5939    5.7433   29.8884 C   0  0  0  0  0  0  0  0  0  0  0  0
  -27.0632    5.8565   28.4816 C   0  0  0  0  0  0  0  0  0  0  0  0
  -26.6376    4.7951   27.9781 C   0  0  0  0  0  0  0  0  0  0  0  0
  -25.9105    4.1342   28.2257 C   0  0  0  0  0  0  0  0  0  0  0  0
  -25.2782    2.9632   27.6341 C   0  0  0  0  0  0  0  0  0  0  0  0
  -24.3834    2.1013   28.2682 C   0  0  0  0  0  0  0  0  0  0  0  0
  -24.4342    2.1058   29.6775 C   0  0  0  0  0  0  0  0  0  0  0  0
  -25.2183    2.9708   30.4302 C   0  0  0  0  0  0  0  0  0  0  0  0
  -25.9369    3.8921   29.8230 C   0  0  0  0  0  0  0  0  0  0  0  0
  -26.7601    4.8389   30.4582 N   0  0  0  0  0  0  0  0  0  0  0  0
  3  7  1  0
  5  8  1  0
  8  9  2  3
  9 10  1  0
 12 16  1  0
 16 17  1  0
 17 18  1  0
 21 22  1  0
 22 23  2  3
 23 24  1  0
 24 25  2  0
 18 19  2  0
 19 20  1  0
 20 21  2  0
 21 26  1  0
 26 27  2  0
 27 18  1  0
  1  2  2  0
  2  5  1  0
  5  6  2  0
  6  4  1  0
  4  3  2  0
  3  1  1  0
 10 11  2  0
 11 12  1  0
 12 15  2  0
 15 14  1  0
 14 13  2  0
 13 10  1  0
M  END

$$$$
