No_2332-gen_results/8p0m/2024-11-26-14-13-15/
     RDKit          3D

 35 39  0  0  0  0  0  0  0  0999 V2000
  -28.0162   -0.8135   28.8779 C   0  0  0  0  0  0  0  0  0  0  0  0
  -28.4690   -0.7850   29.8287 C   0  0  0  0  0  0  0  0  0  0  0  0
  -26.5455   -0.8762   28.8500 C   0  0  0  0  0  0  0  0  0  0  0  0
  -25.8041   -1.0324   30.0571 C   0  0  0  0  0  0  0  0  0  0  0  0
  -24.3697   -1.0998   30.0718 C   0  0  0  0  0  0  0  0  0  0  0  0
  -27.9902   -1.0051   31.2092 C   0  0  0  0  0  0  0  0  0  0  0  0
  -26.5616   -1.1368   31.2600 C   0  0  0  0  0  0  0  0  0  0  0  0
  -23.7274    0.1713   30.0259 C   0  0  0  0  0  0  0  0  0  0  0  0
  -23.2449    0.7308   28.8689 C   0  0  0  0  0  0  0  0  0  0  0  0
  -23.6630    1.9630   28.3780 C   0  0  0  0  0  0  0  0  0  0  0  0
  -23.2911    2.2322   27.0157 C   0  0  0  0  0  0  0  0  0  0  0  0
  -29.9294   -0.6726   29.8746 O   0  0  0  0  0  0  0  0  0  0  0  0
  -30.4308    0.5971   29.9549 C   0  0  0  0  0  0  0  0  0  0  0  0
  -25.7917   -0.8127   27.7250 O   0  0  0  0  0  0  0  0  0  0  0  0
  -24.2801    2.8661   26.2261 C   0  0  0  0  0  0  0  0  0  0  0  0
  -24.9493    3.8825   26.9299 C   0  0  0  0  0  0  0  0  0  0  0  0
  -25.1776    3.8134   28.2410 C   0  0  0  0  0  0  0  0  0  0  0  0
  -24.6118    2.7726   28.9828 C   0  0  0  0  0  0  0  0  0  0  0  0
  -22.2319    0.0688   28.4172 O   0  0  0  0  0  0  0  0  0  0  0  0
  -26.1500    4.7311   28.8742 C   0  0  0  0  0  0  0  0  0  0  0  0
  -26.5928    4.5363   29.9113 O   0  0  0  0  0  0  0  0  0  0  0  0
  -26.5456    5.7191   28.1440 O   0  0  0  0  0  0  0  0  0  0  0  0
  -30.2556    1.3648   30.8510 C   0  0  0  0  0  0  0  0  0  0  0  0
  -30.7553    2.7523   30.8428 C   0  0  0  0  0  0  0  0  0  0  0  0
  -31.5620    3.1016   29.7406 C   0  0  0  0  0  0  0  0  0  0  0  0
  -31.2264    0.9413   28.7599 C   0  0  0  0  0  0  0  0  0  0  0  0
  -31.7612    2.2227   28.7319 C   0  0  0  0  0  0  0  0  0  0  0  0
  -32.5508    2.5831   27.6628 N   0  0  0  0  0  0  0  0  0  0  0  0
  -33.0774    3.6610   27.5464 C   0  0  0  0  0  0  0  0  0  0  0  0
  -32.8905    4.7017   28.5331 C   0  0  0  0  0  0  0  0  0  0  0  0
  -32.1140    4.4386   29.6473 C   0  0  0  0  0  0  0  0  0  0  0  0
  -32.7708    1.6073   26.5850 C   0  0  0  0  0  0  0  0  0  0  0  0
  -32.0476    0.6790   26.2162 C   0  0  0  0  0  0  0  0  0  0  0  0
  -31.3290    0.1000   27.5881 C   0  0  0  0  0  0  0  0  0  0  0  0
  -31.8570    5.4158   30.6968 C   0  0  0  0  0  0  0  0  0  0  0  0
  1  3  1  0
  3  4  1  0
  4  5  1  0
  2  6  1  0
  4  7  1  0
  5  8  1  0
  8  9  1  0
  9 10  1  0
  2 12  1  0
 12 13  1  0
  3 14  2  0
  9 19  2  0
 17 20  1  0
 20 21  1  0
 20 22  2  0
 27 28  1  0
 28 29  1  0
 25 31  1  0
 30 31  1  0
 28 32  1  0
 26 34  1  0
 33 34  1  0
 31 35  1  0
 30 29  1  0
 33 32  1  0
  1  2  1  0
  6  7  1  0
 10 11  2  0
 11 15  1  0
 15 16  2  0
 16 17  1  0
 17 18  2  0
 18 10  1  0
 13 23  2  0
 23 24  1  0
 24 25  2  0
 25 27  1  0
 27 26  2  0
 26 13  1  0
M  END

$$$$
