No_29-gen_results/8p0m/2024-11-26-14-13-15/
     RDKit          3D

 16 18  0  0  0  0  0  0  0  0999 V2000
  -28.0162   -0.8135   28.8779 C   0  0  0  0  0  0  0  0  0  0  0  0
  -28.4690   -0.7850   29.8287 C   0  0  0  0  0  0  0  0  0  0  0  0
  -27.1356    0.2359   28.5352 C   0  0  0  0  0  0  0  0  0  0  0  0
  -26.8745    1.2825   29.3982 C   0  0  0  0  0  0  0  0  0  0  0  0
  -28.3613    0.1987   30.9244 C   0  0  0  0  0  0  0  0  0  0  0  0
  -27.5277    1.2234   30.6356 C   0  0  0  0  0  0  0  0  0  0  0  0
  -26.3503    0.5073   27.2580 C   0  0  0  0  0  0  0  0  0  0  0  0
  -25.2162    0.8642   27.1708 C   0  0  0  0  0  0  0  0  0  0  0  0
  -24.8005    1.8499   28.1982 C   0  0  0  0  0  0  0  0  0  0  0  0
  -25.5719    1.9548   29.3779 C   0  0  0  0  0  0  0  0  0  0  0  0
  -23.6876    2.5665   28.0111 F   0  0  0  0  0  0  0  0  0  0  0  0
  -25.1774    2.8478   30.3257 O   0  0  0  0  0  0  0  0  0  0  0  0
  -29.4829   -1.7942   30.1875 O   0  0  0  0  0  0  0  0  0  0  0  0
  -29.7787   -2.1402   31.4510 C   0  0  0  0  0  0  0  0  0  0  0  0
  -29.0445    0.0129   32.1927 C   0  0  0  0  0  0  0  0  0  0  0  0
  -29.9352   -1.0810   32.3945 C   0  0  0  0  0  0  0  0  0  0  0  0
  3  7  1  0
  8  9  1  0
  4 10  1  0
  9 10  1  0
  9 11  1  0
 10 12  2  0
  2 13  1  0
 13 14  1  0
  5 15  1  0
 14 16  2  0
 15 16  2  0
  7  8  1  0
  1  2  2  0
  2  5  1  0
  5  6  2  0
  6  4  1  0
  4  3  2  0
  3  1  1  0
M  END

$$$$
