No_2001-gen_results/8p0m/2024-11-26-14-13-15/
     RDKit          3D

 32 34  0  0  0  0  0  0  0  0999 V2000
  -28.0162   -0.8135   28.8779 C   0  0  0  0  0  0  0  0  0  0  0  0
  -28.4690   -0.7850   29.8287 C   0  0  0  0  0  0  0  0  0  0  0  0
  -26.5042   -0.7777   28.8766 C   0  0  0  0  0  0  0  0  0  0  0  0
  -25.8103   -0.8531   30.1028 C   0  0  0  0  0  0  0  0  0  0  0  0
  -27.9906   -0.8916   31.2257 C   0  0  0  0  0  0  0  0  0  0  0  0
  -26.6042   -0.8676   31.2652 C   0  0  0  0  0  0  0  0  0  0  0  0
  -30.0739   -0.8360   29.8615 C   0  0  0  0  0  0  0  0  0  0  0  0
  -30.5608   -0.4417   28.9417 O   0  0  0  0  0  0  0  0  0  0  0  0
  -30.7428   -1.0431   31.0560 N   0  0  0  0  0  0  0  0  0  0  0  0
  -32.1782   -1.0348   31.0369 C   0  0  0  0  0  0  0  0  0  0  0  0
  -32.7161   -1.5278   32.0197 C   0  0  0  0  0  0  0  0  0  0  0  0
  -33.9560   -1.6098   32.1613 O   0  0  0  0  0  0  0  0  0  0  0  0
  -31.9996   -2.4392   32.8697 N   0  0  0  0  0  0  0  0  0  0  0  0
  -32.4945   -3.0708   33.9951 C   0  0  0  0  0  0  0  0  0  0  0  0
  -32.6927   -0.3597   30.1593 O   0  0  0  0  0  0  0  0  0  0  0  0
  -32.5268   -2.7995   35.0197 C   0  0  0  0  0  0  0  0  0  0  0  0
  -33.0637   -3.6245   36.1208 C   0  0  0  0  0  0  0  0  0  0  0  0
  -32.8136   -4.5002   33.6160 C   0  0  0  0  0  0  0  0  0  0  0  0
  -33.3247   -5.3403   34.5412 C   0  0  0  0  0  0  0  0  0  0  0  0
  -33.1591   -3.1149   37.5308 C   0  0  0  0  0  0  0  0  0  0  0  0
  -33.3773   -4.8671   35.8128 C   0  0  0  0  0  0  0  0  0  0  0  0
  -32.5543   -2.0946   37.8799 N   0  0  0  0  0  0  0  0  0  0  0  0
  -33.9198   -3.7125   38.2831 O   0  0  0  0  0  0  0  0  0  0  0  0
  -32.6374   -1.5068   39.2036 C   0  0  0  0  0  0  0  0  0  0  0  0
  -32.0871   -0.4109   39.3212 C   0  0  0  0  0  0  0  0  0  0  0  0
  -32.1116    0.3494   40.5902 C   0  0  0  0  0  0  0  0  0  0  0  0
  -32.8132   -0.3143   41.6503 C   0  0  0  0  0  0  0  0  0  0  0  0
  -33.3838   -1.5443   41.4002 C   0  0  0  0  0  0  0  0  0  0  0  0
  -33.3001   -2.1449   40.1468 C   0  0  0  0  0  0  0  0  0  0  0  0
  -34.1265   -2.2570   42.4706 C   0  0  0  0  0  0  0  0  0  0  0  0
  -34.0924   -1.8211   43.7175 C   0  0  0  0  0  0  0  0  0  0  0  0
  -33.4700   -0.5109   43.8997 C   0  0  0  0  0  0  0  0  0  0  0  0
  2  7  1  0
  7  8  2  0
  7  9  1  0
  9 10  1  0
 10 11  1  0
 11 12  2  0
 11 13  1  0
 13 14  1  0
 10 15  2  0
 17 20  1  0
 20 22  1  0
 20 23  2  0
 22 24  1  0
 28 30  1  0
 30 31  2  3
 31 32  1  0
 24 25  2  0
 25 26  1  0
 26 27  2  0
 27 28  1  0
 28 29  2  0
 29 24  1  0
 14 16  2  0
 16 17  1  0
 17 21  2  0
 21 19  1  0
 19 18  2  0
 18 14  1  0
  1  2  2  0
  2  5  1  0
  5  6  2  0
  6  4  1  0
  4  3  2  0
  3  1  1  0
M  END

$$$$
