No_2286-gen_results/8p0m/2024-11-26-14-13-15/
     RDKit          3D

 13 13  0  0  0  0  0  0  0  0999 V2000
  -28.0162   -0.8135   28.8779 C   0  0  0  0  0  0  0  0  0  0  0  0
  -28.4690   -0.7850   29.8287 C   0  0  0  0  0  0  0  0  0  0  0  0
  -28.1960    0.3478   28.0550 C   0  0  0  0  0  0  0  0  0  0  0  0
  -29.0191    1.3501   28.3782 C   0  0  0  0  0  0  0  0  0  0  0  0
  -29.1993    2.4568   27.5396 C   0  0  0  0  0  0  0  0  0  0  0  0
  -29.3831    0.1511   30.4352 C   0  0  0  0  0  0  0  0  0  0  0  0
  -29.6005    1.2796   29.6234 C   0  0  0  0  0  0  0  0  0  0  0  0
  -28.9183    3.6276   27.9282 C   0  0  0  0  0  0  0  0  0  0  0  0
  -28.4312    4.5045   27.8213 C   0  0  0  0  0  0  0  0  0  0  0  0
  -27.5758    5.5498   28.1538 C   0  0  0  0  0  0  0  0  0  0  0  0
  -26.4271    5.8514   27.4795 C   0  0  0  0  0  0  0  0  0  0  0  0
  -25.7693    4.8878   26.7139 C   0  0  0  0  0  0  0  0  0  0  0  0
  -26.4715    3.7337   26.3657 C   0  0  0  0  0  0  0  0  0  0  0  0
  4  5  1  0
  5  8  2  3
  8  9  1  0
  9 10  2  3
 10 11  1  0
 11 12  2  3
 12 13  1  0
  1  2  2  0
  2  6  1  0
  6  7  2  0
  7  4  1  0
  4  3  2  0
  3  1  1  0
M  END

$$$$
