No_2941-gen_results/8p0m/2024-11-26-14-13-15/
     RDKit          3D

 17 19  0  0  0  0  0  0  0  0999 V2000
  -28.1229   -1.3353   28.4874 O   0  0  0  0  0  0  0  0  0  0  0  0
  -27.0637   -0.8242   28.8687 C   0  0  0  0  0  0  0  0  0  0  0  0
  -26.4017   -0.0623   28.6224 C   0  0  0  0  0  0  0  0  0  0  0  0
  -26.2652   -1.8674   29.7609 N   0  0  0  0  0  0  0  0  0  0  0  0
  -25.0436    0.3924   29.0662 C   0  0  0  0  0  0  0  0  0  0  0  0
  -24.2290    1.5269   28.7527 C   0  0  0  0  0  0  0  0  0  0  0  0
  -25.0293   -1.6876   30.2298 C   0  0  0  0  0  0  0  0  0  0  0  0
  -24.3904   -0.5549   29.8640 C   0  0  0  0  0  0  0  0  0  0  0  0
  -22.8815    1.4199   28.5594 C   0  0  0  0  0  0  0  0  0  0  0  0
  -22.2254    0.4271   29.3710 C   0  0  0  0  0  0  0  0  0  0  0  0
  -22.9218   -0.5721   30.0314 C   0  0  0  0  0  0  0  0  0  0  0  0
  -26.9601    1.0446   27.6137 C   0  0  0  0  0  0  0  0  0  0  0  0
  -28.0410    1.6447   28.0044 C   0  0  0  0  0  0  0  0  0  0  0  0
  -28.6310    2.5268   27.1543 C   0  0  0  0  0  0  0  0  0  0  0  0
  -26.4397    1.1498   26.3701 C   0  0  0  0  0  0  0  0  0  0  0  0
  -27.0068    1.9678   25.4609 C   0  0  0  0  0  0  0  0  0  0  0  0
  -28.1489    2.7336   25.8590 C   0  0  0  0  0  0  0  0  0  0  0  0
  1  2  2  0
  2  3  1  0
  2  4  1  0
  7  8  1  0
  3 12  1  0
  3  5  1  0
  7  4  1  0
 12 13  2  0
 13 14  1  0
 14 17  2  0
 17 16  1  0
 16 15  2  0
 15 12  1  0
  5  6  2  0
  6  9  1  0
  9 10  2  0
 10 11  1  0
 11  8  2  0
  8  5  1  0
M  END

$$$$
