No_2242-gen_results/8p0m/2024-11-26-14-13-15/
     RDKit          3D

 20 22  0  0  0  0  0  0  0  0999 V2000
  -28.0162   -0.8135   28.8779 C   0  0  0  0  0  0  0  0  0  0  0  0
  -27.0636   -0.1190   28.6079 C   0  0  0  0  0  0  0  0  0  0  0  0
  -25.7647   -0.3897   29.0360 C   0  0  0  0  0  0  0  0  0  0  0  0
  -25.5296   -1.5302   29.9014 C   0  0  0  0  0  0  0  0  0  0  0  0
  -26.6888   -2.2893   30.1810 C   0  0  0  0  0  0  0  0  0  0  0  0
  -27.8727   -1.9508   29.7373 C   0  0  0  0  0  0  0  0  0  0  0  0
  -28.9304   -2.7298   30.1154 O   0  0  0  0  0  0  0  0  0  0  0  0
  -24.5394    0.4211   28.7421 C   0  0  0  0  0  0  0  0  0  0  0  0
  -23.3459    0.1143   29.1690 C   0  0  0  0  0  0  0  0  0  0  0  0
  -22.2617    0.6586   28.9028 C   0  0  0  0  0  0  0  0  0  0  0  0
  -22.1387    1.6388   27.8625 C   0  0  0  0  0  0  0  0  0  0  0  0
  -24.6139    1.3695   27.6617 C   0  0  0  0  0  0  0  0  0  0  0  0
  -23.3395    2.0399   27.3285 C   0  0  0  0  0  0  0  0  0  0  0  0
  -28.7796   -3.9932   30.6428 C   0  0  0  0  0  0  0  0  0  0  0  0
  -28.7899   -4.9908   29.8335 C   0  0  0  0  0  0  0  0  0  0  0  0
  -29.0274   -4.1449   32.0239 C   0  0  0  0  0  0  0  0  0  0  0  0
  -29.8127   -5.2724   32.4498 C   0  0  0  0  0  0  0  0  0  0  0  0
  -29.7420   -6.4530   31.5993 C   0  0  0  0  0  0  0  0  0  0  0  0
  -29.5516   -6.2171   30.2400 C   0  0  0  0  0  0  0  0  0  0  0  0
  -23.4077    2.9891   26.3784 F   0  0  0  0  0  0  0  0  0  0  0  0
  6  7  1  0
  3  8  1  0
  7 14  1  0
 13 20  1  0
  1  2  2  0
  2  3  1  0
  3  4  2  0
  4  5  1  0
  5  6  2  0
  6  1  1  0
 14 15  2  0
 15 19  1  0
 19 18  2  0
 18 17  1  0
 17 16  2  0
 16 14  1  0
  8  9  2  0
  9 10  1  0
 10 11  2  0
 11 13  1  0
 13 12  2  0
 12  8  1  0
M  END

$$$$
