No_2457-gen_results/8p0m/2024-11-26-14-13-15/
     RDKit          3D

 21 22  0  0  0  0  0  0  0  0999 V2000
  -28.0162   -0.8135   28.8779 C   0  0  0  0  0  0  0  0  0  0  0  0
  -28.4690   -0.7850   29.8287 C   0  0  0  0  0  0  0  0  0  0  0  0
  -26.5455   -0.8762   28.8500 C   0  0  0  0  0  0  0  0  0  0  0  0
  -25.8041   -1.0324   30.0571 C   0  0  0  0  0  0  0  0  0  0  0  0
  -27.9437   -0.9869   31.2075 C   0  0  0  0  0  0  0  0  0  0  0  0
  -26.5825   -1.0386   31.2231 C   0  0  0  0  0  0  0  0  0  0  0  0
  -30.0606   -0.7371   29.9024 C   0  0  0  0  0  0  0  0  0  0  0  0
  -30.7252   -1.5544   30.2697 O   0  0  0  0  0  0  0  0  0  0  0  0
  -30.5563    0.4242   29.3124 N   0  0  0  0  0  0  0  0  0  0  0  0
  -31.9645    0.5638   29.1626 C   0  0  0  0  0  0  0  0  0  0  0  0
  -32.2853    1.2696   28.1337 C   0  0  0  0  0  0  0  0  0  0  0  0
  -31.3616    2.1104   27.3885 C   0  0  0  0  0  0  0  0  0  0  0  0
  -29.9730    1.8990   27.6231 C   0  0  0  0  0  0  0  0  0  0  0  0
  -29.6126    1.0500   28.4870 C   0  0  0  0  0  0  0  0  0  0  0  0
  -28.4351    1.6002   28.9936 C   0  0  0  0  0  0  0  0  0  0  0  0
  -28.0190    2.6330   29.0012 C   0  0  0  0  0  0  0  0  0  0  0  0
  -26.6798    3.0229   29.6610 C   0  0  0  0  0  0  0  0  0  0  0  0
  -26.2527    1.8590   30.0528 F   0  0  0  0  0  0  0  0  0  0  0  0
  -26.7752    3.8018   30.7377 F   0  0  0  0  0  0  0  0  0  0  0  0
  -25.7801    3.4515   28.8089 F   0  0  0  0  0  0  0  0  0  0  0  0
  -27.6549    0.8403   29.6408 O   0  0  0  0  0  0  0  0  0  0  0  0
  2  7  1  0
  7  8  2  0
  7  9  1  0
  9 10  1  0
 11 12  1  0
  9 14  1  0
 13 14  1  0
 14 15  1  0
 15 16  2  3
 16 17  1  0
 17 18  1  0
 17 19  1  0
 17 20  1  0
 15 21  1  0
 10 11  1  0
 12 13  1  0
  1  2  2  0
  2  5  1  0
  5  6  2  0
  6  4  1  0
  4  3  2  0
  3  1  1  0
M  END

$$$$
