No_2454-gen_results/8p0m/2024-11-26-14-13-15/
     RDKit          3D

 18 20  0  0  0  0  0  0  0  0999 V2000
  -28.0162   -0.8135   28.8779 C   0  0  0  0  0  0  0  0  0  0  0  0
  -27.0636   -0.1189   28.6079 C   0  0  0  0  0  0  0  0  0  0  0  0
  -25.7923   -0.4302   29.0761 C   0  0  0  0  0  0  0  0  0  0  0  0
  -25.5756   -1.5654   29.9363 C   0  0  0  0  0  0  0  0  0  0  0  0
  -26.7354   -2.3004   30.2173 C   0  0  0  0  0  0  0  0  0  0  0  0
  -27.9184   -1.9537   29.7629 C   0  0  0  0  0  0  0  0  0  0  0  0
  -27.3243    1.0850   27.8190 C   0  0  0  0  0  0  0  0  0  0  0  0
  -26.3391    1.8438   27.4826 N   0  0  0  0  0  0  0  0  0  0  0  0
  -28.4069    1.3409   27.3479 O   0  0  0  0  0  0  0  0  0  0  0  0
  -24.9713    1.7622   27.9828 C   0  0  0  0  0  0  0  0  0  0  0  0
  -24.6637    0.5184   28.6939 C   0  0  0  0  0  0  0  0  0  0  0  0
  -23.2887    0.2833   29.1437 C   0  0  0  0  0  0  0  0  0  0  0  0
  -22.9050    0.3032   30.4350 C   0  0  0  0  0  0  0  0  0  0  0  0
  -22.3365    0.0901   28.1217 C   0  0  0  0  0  0  0  0  0  0  0  0
  -20.9891   -0.0804   28.5692 C   0  0  0  0  0  0  0  0  0  0  0  0
  -24.0834    0.6581   31.7457 Cl  0  0  0  0  0  0  0  0  0  0  0  0
  -20.7134   -0.2169   29.8656 N   0  0  0  0  0  0  0  0  0  0  0  0
  -21.5701   -0.0163   30.7933 C   0  0  0  0  0  0  0  0  0  0  0  0
  2  7  1  0
  7  8  1  0
  7  9  2  0
  8 10  1  0
  3 11  1  0
 11 12  1  0
 13 16  1  0
 11 10  1  0
  1  2  2  0
  2  3  1  0
  3  4  2  0
  4  5  1  0
  5  6  2  0
  6  1  1  0
 12 13  2  0
 13 18  1  0
 18 17  2  0
 17 15  1  0
 15 14  2  0
 14 12  1  0
M  END

$$$$
