No_2647-gen_results/8p0m/2024-11-26-14-13-15/
     RDKit          3D

 31 32  0  0  0  0  0  0  0  0999 V2000
  -28.1229   -1.3353   28.4874 O   0  0  0  0  0  0  0  0  0  0  0  0
  -27.4806   -0.4044   28.7094 C   0  0  0  0  0  0  0  0  0  0  0  0
  -26.3804   -0.0867   27.9394 C   0  0  0  0  0  0  0  0  0  0  0  0
  -27.6664    0.4468   29.8988 N   0  0  0  0  0  0  0  0  0  0  0  0
  -26.4086    0.8567   26.8802 C   0  0  0  0  0  0  0  0  0  0  0  0
  -25.2466    1.1198   26.1102 C   0  0  0  0  0  0  0  0  0  0  0  0
  -24.1743    1.3492   26.5223 C   0  0  0  0  0  0  0  0  0  0  0  0
  -23.8555    0.6940   27.8815 C   0  0  0  0  0  0  0  0  0  0  0  0
  -24.9398   -0.0175   28.5920 C   0  0  0  0  0  0  0  0  0  0  0  0
  -28.7457    0.0888   30.7687 C   0  0  0  0  0  0  0  0  0  0  0  0
  -22.5338    0.7690   28.4694 C   0  0  0  0  0  0  0  0  0  0  0  0
  -21.5969    1.3815   27.7796 N   0  0  0  0  0  0  0  0  0  0  0  0
  -22.3139    0.1311   29.4721 F   0  0  0  0  0  0  0  0  0  0  0  0
  -27.9274    0.7163   26.0244 Cl  0  0  0  0  0  0  0  0  0  0  0  0
  -28.7847   -0.9938   31.2464 C   0  0  0  0  0  0  0  0  0  0  0  0
  -29.8329   -1.4399   32.1833 C   0  0  0  0  0  0  0  0  0  0  0  0
  -29.9872   -2.7535   32.5692 C   0  0  0  0  0  0  0  0  0  0  0  0
  -29.2682   -3.7824   31.8878 C   0  0  0  0  0  0  0  0  0  0  0  0
  -28.3238   -3.4493   30.8850 C   0  0  0  0  0  0  0  0  0  0  0  0
  -28.1201   -2.2029   30.6132 C   0  0  0  0  0  0  0  0  0  0  0  0
  -26.7124   -2.1433   30.9467 O   0  0  0  0  0  0  0  0  0  0  0  0
  -27.6760   -4.4885   30.3595 O   0  0  0  0  0  0  0  0  0  0  0  0
  -29.4362    1.3276   31.1619 C   0  0  0  0  0  0  0  0  0  0  0  0
  -29.4015    1.8618   32.1043 O   0  0  0  0  0  0  0  0  0  0  0  0
  -30.3832    1.6595   30.1346 N   0  0  0  0  0  0  0  0  0  0  0  0
  -31.2673    2.7834   30.3228 C   0  0  0  0  0  0  0  0  0  0  0  0
  -30.5294    0.9982   28.8812 C   0  0  0  0  0  0  0  0  0  0  0  0
  -31.0264    1.6699   27.7737 C   0  0  0  0  0  0  0  0  0  0  0  0
  -30.4734    2.2122   27.1037 F   0  0  0  0  0  0  0  0  0  0  0  0
  -31.7990    0.6450   27.1150 F   0  0  0  0  0  0  0  0  0  0  0  0
  -32.1210    2.4584   28.1623 F   0  0  0  0  0  0  0  0  0  0  0  0
  1  2  2  0
  2  3  1  0
  2  4  1  0
  4 10  1  0
  8 11  1  0
 11 12  2  0
 11 13  1  0
  5 14  1  0
 20 21  1  0
 19 22  1  0
 10 23  1  0
 23 24  2  0
 23 25  1  0
 25 26  1  0
 25 27  1  0
 27 28  1  0
 28 29  1  0
 28 30  1  0
 28 31  1  0
 10 15  1  0
 15 16  2  0
 16 17  1  0
 17 18  2  0
 18 19  1  0
 19 20  2  0
 20 15  1  0
  3  5  2  0
  5  6  1  0
  6  7  2  0
  7  8  1  0
  8  9  2  0
  9  3  1  0
M  END

$$$$
