No_2558-gen_results/8p0m/2024-11-26-14-13-15/
     RDKit          3D

 30 32  0  0  0  0  0  0  0  0999 V2000
  -28.0162   -0.8135   28.8779 C   0  0  0  0  0  0  0  0  0  0  0  0
  -28.4690   -0.7850   29.8287 C   0  0  0  0  0  0  0  0  0  0  0  0
  -27.0871    0.2903   28.6377 C   0  0  0  0  0  0  0  0  0  0  0  0
  -26.2516    0.4114   27.4223 C   0  0  0  0  0  0  0  0  0  0  0  0
  -28.3913    0.1041   30.9805 C   0  0  0  0  0  0  0  0  0  0  0  0
  -27.5332    1.1666   30.7866 C   0  0  0  0  0  0  0  0  0  0  0  0
  -26.8281    1.2557   29.6454 C   0  0  0  0  0  0  0  0  0  0  0  0
  -25.6445    1.6653   27.2216 C   0  0  0  0  0  0  0  0  0  0  0  0
  -25.3909    2.5603   28.2290 C   0  0  0  0  0  0  0  0  0  0  0  0
  -26.0984    2.4436   29.4094 C   0  0  0  0  0  0  0  0  0  0  0  0
  -25.9065    3.3577   30.3363 F   0  0  0  0  0  0  0  0  0  0  0  0
  -29.5878   -2.2261   30.2645 Cl  0  0  0  0  0  0  0  0  0  0  0  0
  -24.5910    3.6557   27.9517 O   0  0  0  0  0  0  0  0  0  0  0  0
  -24.8324    1.7084   25.9208 C   0  0  0  0  0  0  0  0  0  0  0  0
  -23.6217    1.3855   25.9224 C   0  0  0  0  0  0  0  0  0  0  0  0
  -22.6487    2.0652   26.7018 C   0  0  0  0  0  0  0  0  0  0  0  0
  -21.5721    1.3546   27.4357 C   0  0  0  0  0  0  0  0  0  0  0  0
  -21.9026    0.2945   28.2550 C   0  0  0  0  0  0  0  0  0  0  0  0
  -20.9219   -0.3580   28.9716 C   0  0  0  0  0  0  0  0  0  0  0  0
  -23.2735   -0.0938   28.3670 C   0  0  0  0  0  0  0  0  0  0  0  0
  -23.5177   -1.2361   29.2544 C   0  0  0  0  0  0  0  0  0  0  0  0
  -21.2399   -1.4391   29.7362 N   0  0  0  0  0  0  0  0  0  0  0  0
  -22.4826   -1.8045   29.8856 C   0  0  0  0  0  0  0  0  0  0  0  0
  -26.4089   -0.4518   26.5413 O   0  0  0  0  0  0  0  0  0  0  0  0
  -24.8077   -1.6423   29.3328 O   0  0  0  0  0  0  0  0  0  0  0  0
  -25.0129   -2.8908   29.9671 C   0  0  0  0  0  0  0  0  0  0  0  0
  -25.9961   -3.7188   29.1240 C   0  0  0  0  0  0  0  0  0  0  0  0
  -26.0093   -5.0975   29.6197 C   0  0  0  0  0  0  0  0  0  0  0  0
  -25.0928   -5.8471   29.2438 O   0  0  0  0  0  0  0  0  0  0  0  0
  -26.9994   -5.3714   30.3383 O   0  0  0  0  0  0  0  0  0  0  0  0
  3  4  1  0
  4  8  1  0
  7 10  1  0
  9 10  1  0
 10 11  1  0
  2 12  1  0
  9 13  1  0
  8 14  1  0
 14 15  1  0
 15 16  1  0
 16 17  1  0
  4 24  2  0
 21 25  1  0
 25 26  1  0
 26 27  1  0
 27 28  1  0
 28 29  2  0
 28 30  1  0
 17 18  1  0
  9  8  1  0
 18 19  2  0
 19 22  1  0
 22 23  2  0
 23 21  1  0
 21 20  2  0
 20 18  1  0
  1  2  2  0
  2  5  1  0
  5  6  2  0
  6  7  1  0
  7  3  2  0
  3  1  1  0
M  END

$$$$
