No_2637-gen_results/8p0m/2024-11-26-14-13-15/
     RDKit          3D

 35 37  0  0  0  0  0  0  0  0999 V2000
  -28.0162   -0.8135   28.8779 C   0  0  0  0  0  0  0  0  0  0  0  0
  -27.0636   -0.1190   28.6079 C   0  0  0  0  0  0  0  0  0  0  0  0
  -27.0010    0.6913   27.4910 C   0  0  0  0  0  0  0  0  0  0  0  0
  -25.8548    1.4825   27.0830 C   0  0  0  0  0  0  0  0  0  0  0  0
  -24.6901    1.4526   27.8807 C   0  0  0  0  0  0  0  0  0  0  0  0
  -24.7379    0.6010   29.0416 C   0  0  0  0  0  0  0  0  0  0  0  0
  -25.8234   -0.1688   29.3887 C   0  0  0  0  0  0  0  0  0  0  0  0
  -28.7568   -0.5479   30.0191 N   0  0  0  0  0  0  0  0  0  0  0  0
  -28.9317    0.3890   30.5031 C   0  0  0  0  0  0  0  0  0  0  0  0
  -29.0495    1.5382   29.9451 C   0  0  0  0  0  0  0  0  0  0  0  0
  -30.0483    1.7693   28.9978 C   0  0  0  0  0  0  0  0  0  0  0  0
  -30.1588    3.0215   28.3220 C   0  0  0  0  0  0  0  0  0  0  0  0
  -29.2190    4.0479   28.6474 C   0  0  0  0  0  0  0  0  0  0  0  0
  -28.1353    2.6400   30.2161 C   0  0  0  0  0  0  0  0  0  0  0  0
  -27.0912    2.4964   31.2942 C   0  0  0  0  0  0  0  0  0  0  0  0
  -28.2397    3.9365   29.5948 C   0  0  0  0  0  0  0  0  0  0  0  0
  -26.0089    3.3838   31.2687 C   0  0  0  0  0  0  0  0  0  0  0  0
  -25.0357    3.2230   32.2672 C   0  0  0  0  0  0  0  0  0  0  0  0
  -25.8942    4.3342   30.1936 C   0  0  0  0  0  0  0  0  0  0  0  0
  -26.9959    4.6432   29.3908 C   0  0  0  0  0  0  0  0  0  0  0  0
  -29.5997   -1.8061   30.4704 C   0  0  0  0  0  0  0  0  0  0  0  0
  -28.6858   -2.8173   31.0673 C   0  0  0  0  0  0  0  0  0  0  0  0
  -28.9483   -4.1287   30.6515 C   0  0  0  0  0  0  0  0  0  0  0  0
  -29.7460   -4.6695   30.9411 O   0  0  0  0  0  0  0  0  0  0  0  0
  -28.0402   -4.5613   29.6297 O   0  0  0  0  0  0  0  0  0  0  0  0
  -29.3548    0.4582   31.8589 O   0  0  0  0  0  0  0  0  0  0  0  0
  -24.7602    4.0293   32.9636 F   0  0  0  0  0  0  0  0  0  0  0  0
  -25.0313    2.0225   32.8306 F   0  0  0  0  0  0  0  0  0  0  0  0
  -23.5648    2.2795   27.6377 C   0  0  0  0  0  0  0  0  0  0  0  0
  -22.5762    1.8844   27.0978 N   0  0  0  0  0  0  0  0  0  0  0  0
  -23.6711    3.6169   27.8583 O   0  0  0  0  0  0  0  0  0  0  0  0
  -28.1322    0.7733   26.5200 C   0  0  0  0  0  0  0  0  0  0  0  0
  -27.9783    0.1880   25.3611 N   0  0  0  0  0  0  0  0  0  0  0  0
  -29.0514   -0.1397   24.5915 C   0  0  0  0  0  0  0  0  0  0  0  0
  -30.1333   -0.5759   25.2105 C   0  0  0  0  0  0  0  0  0  0  0  0
  1  2  1  0
  1  8  1  0
  8  9  1  0
  9 10  1  0
 17 18  1  0
  8 21  1  0
 21 22  1  0
 22 23  1  0
 23 24  2  0
 23 25  1  0
  9 26  2  0
 18 27  1  0
 18 28  1  0
  5 29  1  0
 29 30  1  0
 29 31  2  0
  3 32  1  0
 32 33  1  0
 33 34  1  0
 34 35  1  0
  2  3  2  0
  3  4  1  0
  4  5  2  0
  5  6  1  0
  6  7  2  0
  7  2  1  0
 10 11  2  0
 11 12  1  0
 12 13  2  0
 13 16  1  0
 14 10  1  0
 14 15  2  0
 15 17  1  0
 17 19  2  0
 19 20  1  0
 20 16  2  0
 16 14  1  0
M  END

$$$$
