No_2119-gen_results/8p0m/2024-11-26-14-13-15/
     RDKit          3D

 15 17  0  0  0  0  0  0  0  0999 V2000
  -28.0162   -0.8135   28.8779 C   0  0  0  0  0  0  0  0  0  0  0  0
  -27.0636   -0.1189   28.6079 C   0  0  0  0  0  0  0  0  0  0  0  0
  -26.9716    0.7139   27.5060 C   0  0  0  0  0  0  0  0  0  0  0  0
  -25.8205    1.4909   27.1160 C   0  0  0  0  0  0  0  0  0  0  0  0
  -24.6562    1.4242   27.9180 C   0  0  0  0  0  0  0  0  0  0  0  0
  -24.7114    0.5419   29.0507 C   0  0  0  0  0  0  0  0  0  0  0  0
  -25.8042   -0.2058   29.3881 C   0  0  0  0  0  0  0  0  0  0  0  0
  -28.6958   -0.4989   30.1325 C   0  0  0  0  0  0  0  0  0  0  0  0
  -28.5578    0.6415   30.6300 C   0  0  0  0  0  0  0  0  0  0  0  0
  -29.0340    1.2536   31.4975 C   0  0  0  0  0  0  0  0  0  0  0  0
  -28.7488    2.6375   32.0095 C   0  0  0  0  0  0  0  0  0  0  0  0
  -27.7302    3.3086   31.2739 C   0  0  0  0  0  0  0  0  0  0  0  0
  -27.0548    2.6488   30.2889 C   0  0  0  0  0  0  0  0  0  0  0  0
  -27.3631    1.4226   29.9957 C   0  0  0  0  0  0  0  0  0  0  0  0
  -26.4590    0.9608   29.3231 N   0  0  0  0  0  0  0  0  0  0  0  0
  1  8  1  0
  7 15  1  0
 14 15  1  0
  1  2  1  0
  8  9  1  0
  2  3  2  0
  3  4  1  0
  4  5  2  0
  5  6  1  0
  6  7  2  0
  7  2  1  0
  9 10  2  0
 10 11  1  0
 11 12  2  0
 12 13  1  0
 13 14  2  0
 14  9  1  0
M  END

$$$$
