No_2135-gen_results/8p0m/2024-11-26-14-13-15/
     RDKit          3D

 29 31  0  0  0  0  0  0  0  0999 V2000
  -28.0162   -0.8135   28.8779 C   0  0  0  0  0  0  0  0  0  0  0  0
  -28.4690   -0.7850   29.8287 C   0  0  0  0  0  0  0  0  0  0  0  0
  -27.1356    0.2359   28.5352 C   0  0  0  0  0  0  0  0  0  0  0  0
  -26.8745    1.2825   29.3982 C   0  0  0  0  0  0  0  0  0  0  0  0
  -28.3613    0.1987   30.9244 C   0  0  0  0  0  0  0  0  0  0  0  0
  -27.5277    1.2234   30.6356 C   0  0  0  0  0  0  0  0  0  0  0  0
  -26.4181    0.0763   27.2578 C   0  0  0  0  0  0  0  0  0  0  0  0
  -25.3425   -0.5434   27.3091 F   0  0  0  0  0  0  0  0  0  0  0  0
  -25.9338    1.3714   26.8048 F   0  0  0  0  0  0  0  0  0  0  0  0
  -27.2045   -0.2217   26.2109 F   0  0  0  0  0  0  0  0  0  0  0  0
  -29.4113   -2.0122   30.3303 C   0  0  0  0  0  0  0  0  0  0  0  0
  -30.4884   -1.9929   30.0304 O   0  0  0  0  0  0  0  0  0  0  0  0
  -28.9530   -2.7829   31.3314 O   0  0  0  0  0  0  0  0  0  0  0  0
  -27.2603    2.3495   31.5752 C   0  0  0  0  0  0  0  0  0  0  0  0
  -27.3858    2.3973   32.6607 O   0  0  0  0  0  0  0  0  0  0  0  0
  -26.3854    3.2485   31.0070 O   0  0  0  0  0  0  0  0  0  0  0  0
  -25.8921    4.1820   31.8253 C   0  0  0  0  0  0  0  0  0  0  0  0
  -26.1139    5.5702   31.5135 C   0  0  0  0  0  0  0  0  0  0  0  0
  -26.1862    5.8027   30.4021 O   0  0  0  0  0  0  0  0  0  0  0  0
  -26.3600    6.4549   32.5129 N   0  0  0  0  0  0  0  0  0  0  0  0
  -26.6729    7.8473   32.1945 C   0  0  0  0  0  0  0  0  0  0  0  0
  -27.2077    8.3897   32.9176 C   0  0  0  0  0  0  0  0  0  0  0  0
  -27.4055    8.0450   34.3345 C   0  0  0  0  0  0  0  0  0  0  0  0
  -27.0327    6.7032   34.6637 C   0  0  0  0  0  0  0  0  0  0  0  0
  -26.4998    5.9068   33.7569 C   0  0  0  0  0  0  0  0  0  0  0  0
  -27.2216    6.2211   36.0889 C   0  0  0  0  0  0  0  0  0  0  0  0
  -27.1035    4.9749   36.3308 C   0  0  0  0  0  0  0  0  0  0  0  0
  -26.4802    4.1273   35.2985 C   0  0  0  0  0  0  0  0  0  0  0  0
  -26.1785    4.6301   34.0844 C   0  0  0  0  0  0  0  0  0  0  0  0
  3  7  1  0
  7  8  1  0
  7  9  1  0
  7 10  1  0
  2 11  1  0
 11 12  2  0
 11 13  1  0
  6 14  1  0
 14 15  2  0
 14 16  1  0
 16 17  1  0
 17 18  1  0
 18 19  2  0
 18 20  1  0
 20 21  1  0
 22 23  1  0
 20 25  1  0
 21 22  1  0
 23 24  1  0
 24 25  2  0
 25 29  1  0
 29 28  2  0
 28 27  1  0
 27 26  2  0
 26 24  1  0
  1  2  2  0
  2  5  1  0
  5  6  2  0
  6  4  1  0
  4  3  2  0
  3  1  1  0
M  END

$$$$
