No_2039-gen_results/8p0m/2024-11-26-14-13-15/
     RDKit          3D

 30 34  0  0  0  0  0  0  0  0999 V2000
  -28.0162   -0.8135   28.8779 C   0  0  0  0  0  0  0  0  0  0  0  0
  -28.4690   -0.7850   29.8287 C   0  0  0  0  0  0  0  0  0  0  0  0
  -27.1356    0.2359   28.5352 C   0  0  0  0  0  0  0  0  0  0  0  0
  -26.8745    1.2825   29.3982 C   0  0  0  0  0  0  0  0  0  0  0  0
  -27.5070    1.2380   30.6295 C   0  0  0  0  0  0  0  0  0  0  0  0
  -28.3293    0.1745   30.9350 C   0  0  0  0  0  0  0  0  0  0  0  0
  -26.4077    0.3070   27.2259 C   0  0  0  0  0  0  0  0  0  0  0  0
  -25.0105    0.3902   27.3228 C   0  0  0  0  0  0  0  0  0  0  0  0
  -27.0459    0.3288   26.0049 C   0  0  0  0  0  0  0  0  0  0  0  0
  -28.4008    0.3616   25.8738 C   0  0  0  0  0  0  0  0  0  0  0  0
  -29.2070    0.7224   26.9188 C   0  0  0  0  0  0  0  0  0  0  0  0
  -30.6633    0.8078   26.5344 C   0  0  0  0  0  0  0  0  0  0  0  0
  -31.5912    1.0950   27.5603 C   0  0  0  0  0  0  0  0  0  0  0  0
  -31.0640    1.3873   28.8147 C   0  0  0  0  0  0  0  0  0  0  0  0
  -29.7724    1.5226   29.1227 C   0  0  0  0  0  0  0  0  0  0  0  0
  -28.9822    1.4743   27.9525 C   0  0  0  0  0  0  0  0  0  0  0  0
  -29.3077    3.0112   27.4087 C   0  0  0  0  0  0  0  0  0  0  0  0
  -26.1343   -0.0005   24.9448 C   0  0  0  0  0  0  0  0  0  0  0  0
  -28.1743    3.8900   27.3290 C   0  0  0  0  0  0  0  0  0  0  0  0
  -28.3552    5.1594   26.8984 C   0  0  0  0  0  0  0  0  0  0  0  0
  -28.8146   -0.2195   24.7607 O   0  0  0  0  0  0  0  0  0  0  0  0
  -29.6491    5.6031   26.4610 C   0  0  0  0  0  0  0  0  0  0  0  0
  -30.6898    4.7376   26.4571 C   0  0  0  0  0  0  0  0  0  0  0  0
  -30.5153    3.4886   26.9538 C   0  0  0  0  0  0  0  0  0  0  0  0
  -24.2035    1.3262   26.7843 C   0  0  0  0  0  0  0  0  0  0  0  0
  -23.9558    2.4561   27.0186 C   0  0  0  0  0  0  0  0  0  0  0  0
  -23.2591    3.2265   26.0373 N   0  0  0  0  0  0  0  0  0  0  0  0
  -24.4487    1.0545   25.2393 C   0  0  0  0  0  0  0  0  0  0  0  0
  -24.8641    0.3047   24.8042 N   0  0  0  0  0  0  0  0  0  0  0  0
  -23.6239    2.2595   24.7771 C   0  0  0  0  0  0  0  0  0  0  0  0
  3  7  1  0
  7  8  1  0
  7  9  1  0
  9 10  1  0
 10 11  1  0
 16 17  1  0
  9 18  1  0
 10 21  2  0
  8 25  1  0
 25 26  1  0
 26 27  2  0
 25 28  1  0
 18 29  1  0
 28 29  1  0
 27 30  1  0
 28 30  1  0
 11 12  2  0
 12 13  1  0
 13 14  2  0
 14 15  1  0
 15 16  2  0
 16 11  1  0
  1  2  2  0
  2  6  1  0
  6  5  2  0
  5  4  1  0
  4  3  2  0
  3  1  1  0
 17 19  2  0
 19 20  1  0
 20 22  2  0
 22 23  1  0
 23 24  2  0
 24 17  1  0
M  END

$$$$
