No_2536-gen_results/8p0m/2024-11-26-14-13-15/
     RDKit          3D

 20 22  0  0  0  0  0  0  0  0999 V2000
  -28.0162   -0.8135   28.8779 C   0  0  0  0  0  0  0  0  0  0  0  0
  -28.4690   -0.7850   29.8287 C   0  0  0  0  0  0  0  0  0  0  0  0
  -26.5042   -0.7777   28.8766 C   0  0  0  0  0  0  0  0  0  0  0  0
  -25.6540   -0.6597   27.7191 C   0  0  0  0  0  0  0  0  0  0  0  0
  -27.9180   -0.9374   31.1824 C   0  0  0  0  0  0  0  0  0  0  0  0
  -26.5423   -0.9399   31.2606 C   0  0  0  0  0  0  0  0  0  0  0  0
  -25.7832   -0.8935   30.1201 C   0  0  0  0  0  0  0  0  0  0  0  0
  -25.9259    0.2819   26.7445 C   0  0  0  0  0  0  0  0  0  0  0  0
  -25.0234    0.4476   25.6774 C   0  0  0  0  0  0  0  0  0  0  0  0
  -27.0932    1.0563   26.7733 C   0  0  0  0  0  0  0  0  0  0  0  0
  -27.3811    1.8575   25.6360 C   0  0  0  0  0  0  0  0  0  0  0  0
  -26.5115    1.9089   24.5887 C   0  0  0  0  0  0  0  0  0  0  0  0
  -25.3711    1.2186   24.5769 C   0  0  0  0  0  0  0  0  0  0  0  0
  -29.9522   -0.7810   29.8428 N   0  0  0  0  0  0  0  0  0  0  0  0
  -30.5957   -0.0663   28.9845 C   0  0  0  0  0  0  0  0  0  0  0  0
  -32.0064   -0.3017   28.8236 C   0  0  0  0  0  0  0  0  0  0  0  0
  -30.7401   -1.6387   30.6661 C   0  0  0  0  0  0  0  0  0  0  0  0
  -32.0539   -1.8147   30.5033 C   0  0  0  0  0  0  0  0  0  0  0  0
  -32.7017   -1.0753   29.6180 C   0  0  0  0  0  0  0  0  0  0  0  0
  -34.0003   -1.2209   29.4603 F   0  0  0  0  0  0  0  0  0  0  0  0
  3  4  1  0
  2 14  1  0
 14 15  1  0
 14 17  1  0
 16 19  1  0
 18 19  1  0
 19 20  1  0
  4  8  1  0
 15 16  1  0
 18 17  1  0
  1  2  2  0
  2  5  1  0
  5  6  2  0
  6  7  1  0
  7  3  2  0
  3  1  1  0
  8  9  2  0
  9 13  1  0
 13 12  2  0
 12 11  1  0
 11 10  2  0
 10  8  1  0
M  END

$$$$
