No_2899-gen_results/8p0m/2024-11-26-14-13-15/
     RDKit          3D

 35 38  0  0  0  0  0  0  0  0999 V2000
  -28.0162   -0.8135   28.8779 C   0  0  0  0  0  0  0  0  0  0  0  0
  -27.0636   -0.1190   28.6079 C   0  0  0  0  0  0  0  0  0  0  0  0
  -25.7647   -0.3897   29.0360 C   0  0  0  0  0  0  0  0  0  0  0  0
  -24.5516    0.4058   28.7646 C   0  0  0  0  0  0  0  0  0  0  0  0
  -23.2300    0.1178   29.2575 C   0  0  0  0  0  0  0  0  0  0  0  0
  -23.0942   -1.1309   29.8730 C   0  0  0  0  0  0  0  0  0  0  0  0
  -27.7981   -1.9341   29.8560 C   0  0  0  0  0  0  0  0  0  0  0  0
  -26.5420   -2.3269   30.2580 C   0  0  0  0  0  0  0  0  0  0  0  0
  -25.4514   -1.5516   29.9079 C   0  0  0  0  0  0  0  0  0  0  0  0
  -24.1562   -1.9097   30.2809 C   0  0  0  0  0  0  0  0  0  0  0  0
  -24.6450    1.6582   27.9464 C   0  0  0  0  0  0  0  0  0  0  0  0
  -25.0764    1.5784   26.6992 C   0  0  0  0  0  0  0  0  0  0  0  0
  -23.2842    2.4009   28.0085 C   0  0  0  0  0  0  0  0  0  0  0  0
  -25.5975    2.6286   28.7777 C   0  0  0  0  0  0  0  0  0  0  0  0
  -26.3594    3.5222   28.0426 C   0  0  0  0  0  0  0  0  0  0  0  0
  -25.6348    2.6787   30.2135 C   0  0  0  0  0  0  0  0  0  0  0  0
  -24.8533    3.0001   31.0678 C   0  0  0  0  0  0  0  0  0  0  0  0
  -25.0876    3.0639   32.4970 C   0  0  0  0  0  0  0  0  0  0  0  0
  -26.2399    2.4361   32.9807 C   0  0  0  0  0  0  0  0  0  0  0  0
  -27.1403    1.9345   32.0525 C   0  0  0  0  0  0  0  0  0  0  0  0
  -26.9296    2.0354   30.7010 C   0  0  0  0  0  0  0  0  0  0  0  0
  -28.3694    1.3016   32.6088 C   0  0  0  0  0  0  0  0  0  0  0  0
  -28.2562    0.0347   33.1342 C   0  0  0  0  0  0  0  0  0  0  0  0
  -29.6139    1.8933   32.4357 C   0  0  0  0  0  0  0  0  0  0  0  0
  -29.3785   -0.7343   33.4032 C   0  0  0  0  0  0  0  0  0  0  0  0
  -30.7686    1.1360   32.7953 C   0  0  0  0  0  0  0  0  0  0  0  0
  -30.6197   -0.1404   33.3260 C   0  0  0  0  0  0  0  0  0  0  0  0
  -29.0279   -2.7413   30.2431 C   0  0  0  0  0  0  0  0  0  0  0  0
  -30.1404   -2.3208   30.0948 O   0  0  0  0  0  0  0  0  0  0  0  0
  -28.7790   -4.0802   30.5071 N   0  0  0  0  0  0  0  0  0  0  0  0
  -29.8755   -4.9548   30.8643 C   0  0  0  0  0  0  0  0  0  0  0  0
  -30.7629   -5.2060   29.8873 C   0  0  0  0  0  0  0  0  0  0  0  0
  -30.6014   -5.0447   28.7001 C   0  0  0  0  0  0  0  0  0  0  0  0
  -31.3986   -5.5017   27.5825 C   0  0  0  0  0  0  0  0  0  0  0  0
  -32.5515   -6.1635   27.8625 C   0  0  0  0  0  0  0  0  0  0  0  0
  4 11  1  0
 11 12  1  0
 11 13  1  0
 11 14  1  0
 14 15  2  0
 14 16  1  0
 20 22  1  0
  7 28  1  0
 28 29  2  0
 28 30  1  0
 30 31  1  0
 31 32  1  0
 32 33  2  3
 33 34  1  0
 34 35  2  0
 16 17  2  0
 17 18  1  0
 18 19  2  0
 19 20  1  0
 20 21  2  0
 21 16  1  0
  1  2  2  0
  2  3  1  0
  9  8  1  0
  8  7  2  0
  7  1  1  0
 22 23  2  0
 23 25  1  0
 25 27  2  0
 27 26  1  0
 26 24  2  0
 24 22  1  0
  3  4  2  0
  4  5  1  0
  5  6  2  0
  6 10  1  0
 10  9  2  0
  9  3  1  0
M  END

$$$$
