No_2086-gen_results/8p0m/2024-11-26-14-13-15/
     RDKit          3D

 30 33  0  0  0  0  0  0  0  0999 V2000
  -28.1229   -1.3353   28.4874 O   0  0  0  0  0  0  0  0  0  0  0  0
  -27.4806   -0.4044   28.7094 C   0  0  0  0  0  0  0  0  0  0  0  0
  -27.1904    0.2460   29.5268 C   0  0  0  0  0  0  0  0  0  0  0  0
  -26.6871   -0.0001   27.4423 N   0  0  0  0  0  0  0  0  0  0  0  0
  -26.3501    1.4331   29.7417 C   0  0  0  0  0  0  0  0  0  0  0  0
  -25.8648    1.0936   27.4148 C   0  0  0  0  0  0  0  0  0  0  0  0
  -25.6589    1.8314   28.5720 C   0  0  0  0  0  0  0  0  0  0  0  0
  -27.8532   -0.1055   30.9653 C   0  0  0  0  0  0  0  0  0  0  0  0
  -29.0578    0.7168   31.1953 C   0  0  0  0  0  0  0  0  0  0  0  0
  -29.7429    0.3242   32.1618 C   0  0  0  0  0  0  0  0  0  0  0  0
  -29.3862   -0.7932   33.0448 C   0  0  0  0  0  0  0  0  0  0  0  0
  -28.2625   -1.4883   32.7354 C   0  0  0  0  0  0  0  0  0  0  0  0
  -27.4879   -1.1871   31.6596 C   0  0  0  0  0  0  0  0  0  0  0  0
  -25.2147    1.4173   26.2973 N   0  0  0  0  0  0  0  0  0  0  0  0
  -24.2690    2.4294   26.2731 C   0  0  0  0  0  0  0  0  0  0  0  0
  -24.1234    3.2374   27.4026 C   0  0  0  0  0  0  0  0  0  0  0  0
  -24.7703    2.9586   28.5463 C   0  0  0  0  0  0  0  0  0  0  0  0
  -26.1932    2.2112   31.0358 C   0  0  0  0  0  0  0  0  0  0  0  0
  -25.5868    2.0442   31.8699 C   0  0  0  0  0  0  0  0  0  0  0  0
  -25.5106    2.9399   33.0980 C   0  0  0  0  0  0  0  0  0  0  0  0
  -27.0289    3.4562   31.0237 C   0  0  0  0  0  0  0  0  0  0  0  0
  -27.0170    4.3622   31.9989 C   0  0  0  0  0  0  0  0  0  0  0  0
  -26.2039    4.0627   33.1120 C   0  0  0  0  0  0  0  0  0  0  0  0
  -26.1279    4.9821   34.2907 C   0  0  0  0  0  0  0  0  0  0  0  0
  -25.2965    5.7395   34.3181 N   0  0  0  0  0  0  0  0  0  0  0  0
  -24.4199    5.9269   33.2957 C   0  0  0  0  0  0  0  0  0  0  0  0
  -24.4703    6.1401   32.2327 C   0  0  0  0  0  0  0  0  0  0  0  0
  -22.9236    6.2080   33.8889 C   0  0  0  0  0  0  0  0  0  0  0  0
  -22.0176    5.6494   33.2431 F   0  0  0  0  0  0  0  0  0  0  0  0
  -22.6918    7.6090   33.8872 F   0  0  0  0  0  0  0  0  0  0  0  0
  1  2  2  0
  2  3  1  0
  2  4  1  0
  4  6  1  0
  5  7  1  0
  3  8  1  0
  5 18  1  0
 23 24  1  0
 24 25  1  0
 25 26  1  0
 26 27  1  0
 26 28  1  0
 28 29  1  0
 28 30  1  0
  3  5  1  0
  8  9  2  0
  9 10  1  0
 10 11  2  0
 11 12  1  0
 12 13  2  0
 13  8  1  0
  6 14  2  0
 14 15  1  0
 15 16  2  0
 16 17  1  0
 17  7  2  0
  7  6  1  0
 18 19  2  0
 19 20  1  0
 20 23  2  0
 23 22  1  0
 22 21  2  0
 21 18  1  0
M  END

$$$$
