No_2275-gen_results/8p0m/2024-11-26-14-13-15/
     RDKit          3D

 24 26  0  0  0  0  0  0  0  0999 V2000
  -28.1229   -1.3353   28.4874 O   0  0  0  0  0  0  0  0  0  0  0  0
  -27.4806   -0.4044   28.7094 C   0  0  0  0  0  0  0  0  0  0  0  0
  -26.3804   -0.0867   27.9394 C   0  0  0  0  0  0  0  0  0  0  0  0
  -27.6664    0.4468   29.8988 N   0  0  0  0  0  0  0  0  0  0  0  0
  -25.1773   -0.4388   28.3946 C   0  0  0  0  0  0  0  0  0  0  0  0
  -24.8702   -0.1051   29.8315 C   0  0  0  0  0  0  0  0  0  0  0  0
  -26.1926    0.2176   30.5619 C   0  0  0  0  0  0  0  0  0  0  0  0
  -26.5189    0.4360   26.6004 C   0  0  0  0  0  0  0  0  0  0  0  0
  -25.4983    0.9308   25.8658 C   0  0  0  0  0  0  0  0  0  0  0  0
  -27.7996    0.4438   25.9833 C   0  0  0  0  0  0  0  0  0  0  0  0
  -27.9394    0.9133   24.6885 C   0  0  0  0  0  0  0  0  0  0  0  0
  -25.6105    1.3970   24.5395 C   0  0  0  0  0  0  0  0  0  0  0  0
  -29.2364    1.0420   24.1159 C   0  0  0  0  0  0  0  0  0  0  0  0
  -26.8117    1.4144   24.0697 C   0  0  0  0  0  0  0  0  0  0  0  0
  -30.0527    0.1082   24.3593 N   0  0  0  0  0  0  0  0  0  0  0  0
  -30.0356   -0.8769   24.7744 C   0  0  0  0  0  0  0  0  0  0  0  0
  -31.2837   -1.7328   25.0120 C   0  0  0  0  0  0  0  0  0  0  0  0
  -31.4630    0.6689   24.5433 C   0  0  0  0  0  0  0  0  0  0  0  0
  -32.0986   -1.1366   25.1381 C   0  0  0  0  0  0  0  0  0  0  0  0
  -32.4991    0.0996   24.7147 C   0  0  0  0  0  0  0  0  0  0  0  0
  -29.3852    1.8888   23.2037 O   0  0  0  0  0  0  0  0  0  0  0  0
  -23.6864   -0.1044   30.4764 C   0  0  0  0  0  0  0  0  0  0  0  0
  -23.4707    0.3046   31.5435 C   0  0  0  0  0  0  0  0  0  0  0  0
  -22.5705   -0.4974   29.6004 C   0  0  0  0  0  0  0  0  0  0  0  0
  1  2  2  0
  2  3  1  0
  2  4  1  0
  5  6  1  0
  4  7  1  0
  3  8  1  0
 11 13  1  0
 13 15  1  0
 15 16  1  0
 15 18  1  0
 17 19  1  0
 18 20  1  0
 13 21  2  0
  6 22  1  0
 22 23  1  0
 22 24  1  0
 16 17  1  0
 19 20  1  0
  3  5  1  0
  6  7  1  0
  8  9  2  0
  9 12  1  0
 12 14  2  0
 14 11  1  0
 11 10  2  0
 10  8  1  0
M  END

$$$$
