No_2277-gen_results/8p0m/2024-11-26-14-13-15/
     RDKit          3D

 14 14  0  0  0  0  0  0  0  0999 V2000
  -28.0162   -0.8135   28.8779 C   0  0  0  0  0  0  0  0  0  0  0  0
  -27.0636   -0.1189   28.6079 C   0  0  0  0  0  0  0  0  0  0  0  0
  -26.8756    1.1325   28.9134 C   0  0  0  0  0  0  0  0  0  0  0  0
  -25.6883    1.9515   28.5672 C   0  0  0  0  0  0  0  0  0  0  0  0
  -24.6394    1.2834   27.8753 C   0  0  0  0  0  0  0  0  0  0  0  0
  -24.8068   -0.0513   27.6040 C   0  0  0  0  0  0  0  0  0  0  0  0
  -25.9019   -0.7670   27.9511 C   0  0  0  0  0  0  0  0  0  0  0  0
  -28.7095   -0.5833   30.0504 N   0  0  0  0  0  0  0  0  0  0  0  0
  -23.5905    2.1780   27.4681 C   0  0  0  0  0  0  0  0  0  0  0  0
  -28.2516    0.0212   30.8769 C   0  0  0  0  0  0  0  0  0  0  0  0
  -27.2891    0.6896   30.7976 C   0  0  0  0  0  0  0  0  0  0  0  0
  -27.1831    1.3871   30.4680 N   0  0  0  0  0  0  0  0  0  0  0  0
  -27.2929    2.7995   30.6155 C   0  0  0  0  0  0  0  0  0  0  0  0
  -27.9062    1.9312   27.9385 C   0  0  0  0  0  0  0  0  0  0  0  0
  1  8  1  0
  5  9  1  0
  8 10  2  3
 10 11  1  0
 11 12  2  3
 12 13  1  0
  3 14  1  0
  1  2  1  0
  2  3  2  0
  3  4  1  0
  4  5  2  0
  5  6  1  0
  6  7  2  0
  7  2  1  0
M  END

$$$$
