No_2596-gen_results/8p0m/2024-11-26-14-13-15/
     RDKit          3D

 15 16  0  0  0  0  0  0  0  0999 V2000
  -28.0162   -0.8135   28.8779 C   0  0  0  0  0  0  0  0  0  0  0  0
  -27.0636   -0.1190   28.6079 C   0  0  0  0  0  0  0  0  0  0  0  0
  -26.9716    0.7139   27.5060 C   0  0  0  0  0  0  0  0  0  0  0  0
  -28.1053    0.7744   26.6421 C   0  0  0  0  0  0  0  0  0  0  0  0
  -29.2041    0.1179   27.0477 C   0  0  0  0  0  0  0  0  0  0  0  0
  -29.2127   -0.6088   28.1281 C   0  0  0  0  0  0  0  0  0  0  0  0
  -30.3709    0.2326   26.1381 C   0  0  0  0  0  0  0  0  0  0  0  0
  -31.2520   -0.4036   26.3042 O   0  0  0  0  0  0  0  0  0  0  0  0
  -30.3125    1.0175   25.0722 O   0  0  0  0  0  0  0  0  0  0  0  0
  -25.6591    1.4028   27.1328 C   0  0  0  0  0  0  0  0  0  0  0  0
  -24.5319    1.0316   27.7470 C   0  0  0  0  0  0  0  0  0  0  0  0
  -23.2994    1.7997   27.4520 C   0  0  0  0  0  0  0  0  0  0  0  0
  -23.3547    2.5951   26.3857 N   0  0  0  0  0  0  0  0  0  0  0  0
  -25.3421    2.3885   26.1346 C   0  0  0  0  0  0  0  0  0  0  0  0
  -24.4078    3.0170   25.8201 C   0  0  0  0  0  0  0  0  0  0  0  0
  5  7  1  0
  7  8  1  0
  7  9  2  0
  3 10  1  0
  1  2  2  0
  2  3  1  0
  3  4  2  0
  4  5  1  0
  5  6  2  0
  6  1  1  0
 10 11  2  0
 11 12  1  0
 12 13  2  0
 13 15  1  0
 15 14  2  0
 14 10  1  0
M  END

$$$$
