No_2399-gen_results/8p0m/2024-11-26-14-13-15/
     RDKit          3D

 20 23  0  0  0  0  0  0  0  0999 V2000
  -28.0162   -0.8135   28.8779 C   0  0  0  0  0  0  0  0  0  0  0  0
  -27.0636   -0.1190   28.6079 C   0  0  0  0  0  0  0  0  0  0  0  0
  -25.7923   -0.4302   29.0761 C   0  0  0  0  0  0  0  0  0  0  0  0
  -25.5756   -1.5654   29.9363 C   0  0  0  0  0  0  0  0  0  0  0  0
  -26.7354   -2.3004   30.2173 C   0  0  0  0  0  0  0  0  0  0  0  0
  -27.9184   -1.9537   29.7629 C   0  0  0  0  0  0  0  0  0  0  0  0
  -29.4034   -2.9791   30.2597 Br  0  0  0  0  0  0  0  0  0  0  0  0
  -27.1046    1.1105   27.7589 C   0  0  0  0  0  0  0  0  0  0  0  0
  -27.8922    1.6477   27.4115 N   0  0  0  0  0  0  0  0  0  0  0  0
  -25.7061    1.5179   27.1058 C   0  0  0  0  0  0  0  0  0  0  0  0
  -24.5289    1.0906   27.3479 C   0  0  0  0  0  0  0  0  0  0  0  0
  -24.4752   -0.0303   28.4000 C   0  0  0  0  0  0  0  0  0  0  0  0
  -23.1147   -0.4143   28.8305 C   0  0  0  0  0  0  0  0  0  0  0  0
  -22.4694    0.4556   29.8082 C   0  0  0  0  0  0  0  0  0  0  0  0
  -29.0322    1.7179   28.1747 C   0  0  0  0  0  0  0  0  0  0  0  0
  -29.9183    2.4005   28.1893 C   0  0  0  0  0  0  0  0  0  0  0  0
  -31.0841    2.4451   29.0389 C   0  0  0  0  0  0  0  0  0  0  0  0
  -31.2152    1.3962   29.9207 C   0  0  0  0  0  0  0  0  0  0  0  0
  -30.2392    0.4763   30.0210 C   0  0  0  0  0  0  0  0  0  0  0  0
  -29.1434    0.6145   29.1685 N   0  0  0  0  0  0  0  0  0  0  0  0
  6  7  1  0
 12 13  1  0
 13 14  1  0
  9 15  1  0
 16 17  1  0
 18 19  1  0
  1 20  1  0
 15 20  1  0
 19 20  1  0
  8  9  1  0
 15 16  1  0
 17 18  1  0
  1  2  2  0
  3  4  2  0
  4  5  1  0
  5  6  2  0
  6  1  1  0
  2  3  1  0
  3 12  1  0
 12 11  2  0
 11 10  1  0
 10  8  2  0
  8  2  1  0
M  END

$$$$
