No_2337-gen_results/8p0m/2024-11-26-14-13-15/
     RDKit          3D

 15 16  0  0  0  0  0  0  0  0999 V2000
  -28.0162   -0.8135   28.8779 C   0  0  0  0  0  0  0  0  0  0  0  0
  -28.4690   -0.7850   29.8287 C   0  0  0  0  0  0  0  0  0  0  0  0
  -26.5042   -0.7777   28.8766 C   0  0  0  0  0  0  0  0  0  0  0  0
  -25.6540   -0.6597   27.7191 C   0  0  0  0  0  0  0  0  0  0  0  0
  -29.9920   -0.8134   29.9579 C   0  0  0  0  0  0  0  0  0  0  0  0
  -24.2081   -0.6354   27.9684 C   0  0  0  0  0  0  0  0  0  0  0  0
  -23.8313   -0.4724   29.1447 C   0  0  0  0  0  0  0  0  0  0  0  0
  -24.5335   -0.4722   30.3054 C   0  0  0  0  0  0  0  0  0  0  0  0
  -25.8881   -0.6364   30.1891 C   0  0  0  0  0  0  0  0  0  0  0  0
  -27.9147   -0.7967   31.2360 C   0  0  0  0  0  0  0  0  0  0  0  0
  -26.6872   -0.6654   31.3555 C   0  0  0  0  0  0  0  0  0  0  0  0
  -30.7702   -0.0680   28.7609 Cl  0  0  0  0  0  0  0  0  0  0  0  0
  -30.7195   -1.4329   30.8139 F   0  0  0  0  0  0  0  0  0  0  0  0
  -22.3866   -0.3409   29.3095 F   0  0  0  0  0  0  0  0  0  0  0  0
  -26.0720   -0.7110   26.5055 O   0  0  0  0  0  0  0  0  0  0  0  0
  3  4  1  0
  4  6  1  0
  7  8  1  0
  5 12  1  0
  5 13  1  0
  7 14  1  0
  4 15  2  0
  5  2  1  0
  9  8  1  0
  7  6  1  0
  1  2  2  0
  2 10  1  0
 10 11  2  0
 11  9  1  0
  9  3  2  0
  3  1  1  0
M  END

$$$$
