No_2092-gen_results/8p0m/2024-11-26-14-13-15/
     RDKit          3D

 28 30  0  0  0  0  0  0  0  0999 V2000
  -28.0162   -0.8135   28.8779 C   0  0  0  0  0  0  0  0  0  0  0  0
  -28.4690   -0.7850   29.8287 C   0  0  0  0  0  0  0  0  0  0  0  0
  -28.1960    0.3478   28.0550 C   0  0  0  0  0  0  0  0  0  0  0  0
  -29.0191    1.3501   28.3782 C   0  0  0  0  0  0  0  0  0  0  0  0
  -29.4107    0.1803   30.3782 C   0  0  0  0  0  0  0  0  0  0  0  0
  -29.6059    1.2495   29.6193 C   0  0  0  0  0  0  0  0  0  0  0  0
  -27.4597    0.3802   26.7091 C   0  0  0  0  0  0  0  0  0  0  0  0
  -26.4659    1.4084   26.5648 C   0  0  0  0  0  0  0  0  0  0  0  0
  -25.2424    1.0667   26.0698 C   0  0  0  0  0  0  0  0  0  0  0  0
  -24.1853    2.0319   25.9760 C   0  0  0  0  0  0  0  0  0  0  0  0
  -22.8301    1.7319   25.8384 C   0  0  0  0  0  0  0  0  0  0  0  0
  -24.6478    3.4005   26.3994 C   0  0  0  0  0  0  0  0  0  0  0  0
  -25.8894    3.7154   26.8183 C   0  0  0  0  0  0  0  0  0  0  0  0
  -26.8212    2.7035   26.9436 C   0  0  0  0  0  0  0  0  0  0  0  0
  -21.8084    2.3592   26.6304 C   0  0  0  0  0  0  0  0  0  0  0  0
  -20.7707    1.4477   27.0761 C   0  0  0  0  0  0  0  0  0  0  0  0
  -21.0628    0.2199   27.6184 C   0  0  0  0  0  0  0  0  0  0  0  0
  -22.2370    0.1253   28.5550 C   0  0  0  0  0  0  0  0  0  0  0  0
  -22.6288   -1.0830   29.0917 C   0  0  0  0  0  0  0  0  0  0  0  0
  -23.8373   -1.1738   29.8521 C   0  0  0  0  0  0  0  0  0  0  0  0
  -24.4282   -0.2894   30.0576 C   0  0  0  0  0  0  0  0  0  0  0  0
  -24.1695    1.1106   29.6837 C   0  0  0  0  0  0  0  0  0  0  0  0
  -23.0066    1.2903   28.8855 C   0  0  0  0  0  0  0  0  0  0  0  0
  -24.9956    2.2755   30.0401 C   0  0  0  0  0  0  0  0  0  0  0  0
  -26.1467    2.0131   30.4599 O   0  0  0  0  0  0  0  0  0  0  0  0
  -24.4794    3.4081   30.3285 O   0  0  0  0  0  0  0  0  0  0  0  0
  -28.2837   -2.0202   30.8691 C   0  0  0  0  0  0  0  0  0  0  0  0
  -28.7267   -2.0653   31.9353 N   0  0  0  0  0  0  0  0  0  0  0  0
  3  7  1  0
  7  8  1  0
 11 15  1  0
 15 16  1  0
 16 17  1  0
 17 18  1  0
 22 24  1  0
 24 25  2  0
 24 26  1  0
  2 27  1  0
 27 28  2  0
 11 10  1  0
 18 19  2  0
 19 20  1  0
 20 21  2  0
 21 22  1  0
 22 23  2  0
 23 18  1  0
  8  9  2  0
  9 10  1  0
 10 12  2  0
 12 13  1  0
 13 14  2  0
 14  8  1  0
  1  2  2  0
  2  5  1  0
  5  6  2  0
  6  4  1  0
  4  3  2  0
  3  1  1  0
M  END

$$$$
