No_2138-gen_results/8p0m/2024-11-26-14-13-15/
     RDKit          3D

 18 20  0  0  0  0  0  0  0  0999 V2000
  -28.0162   -0.8135   28.8779 C   0  0  0  0  0  0  0  0  0  0  0  0
  -28.4690   -0.7850   29.8287 C   0  0  0  0  0  0  0  0  0  0  0  0
  -28.1960    0.3478   28.0550 C   0  0  0  0  0  0  0  0  0  0  0  0
  -27.4421    0.5100   26.7947 C   0  0  0  0  0  0  0  0  0  0  0  0
  -27.8427    1.3330   25.8056 C   0  0  0  0  0  0  0  0  0  0  0  0
  -29.4956    0.1092   30.3452 C   0  0  0  0  0  0  0  0  0  0  0  0
  -29.7284    1.1870   29.5687 C   0  0  0  0  0  0  0  0  0  0  0  0
  -29.0420    1.3665   28.3718 C   0  0  0  0  0  0  0  0  0  0  0  0
  -26.1281   -0.0671   26.6257 C   0  0  0  0  0  0  0  0  0  0  0  0
  -25.2466   -0.2457   27.7552 C   0  0  0  0  0  0  0  0  0  0  0  0
  -24.2715    0.4354   28.2098 C   0  0  0  0  0  0  0  0  0  0  0  0
  -23.9496    1.7535   27.6091 C   0  0  0  0  0  0  0  0  0  0  0  0
  -22.7131    2.2193   27.9119 N   0  0  0  0  0  0  0  0  0  0  0  0
  -23.0321   -0.0380   28.8794 C   0  0  0  0  0  0  0  0  0  0  0  0
  -23.0801   -1.1162   29.7882 C   0  0  0  0  0  0  0  0  0  0  0  0
  -21.9669    0.9661   28.8995 C   0  0  0  0  0  0  0  0  0  0  0  0
  -24.0326   -2.0820   29.5212 C   0  0  0  0  0  0  0  0  0  0  0  0
  -25.1943   -1.7022   28.4673 C   0  0  0  0  0  0  0  0  0  0  0  0
  3  4  1  0
  4  5  1  0
  4  9  1  0
  9 10  1  0
 11 12  1  0
 12 13  2  0
 13 16  1  0
 14 16  1  0
 10 11  2  0
 11 14  1  0
 14 15  2  0
 15 17  1  0
 17 18  2  0
 18 10  1  0
  1  2  2  0
  2  6  1  0
  6  7  2  0
  7  8  1  0
  8  3  2  0
  3  1  1  0
M  END

$$$$
