No_2080-gen_results/8p0m/2024-11-26-14-13-15/
     RDKit          3D

 24 26  0  0  0  0  0  0  0  0999 V2000
  -28.1229   -1.3353   28.4874 O   0  0  0  0  0  0  0  0  0  0  0  0
  -27.0637   -0.8242   28.8687 C   0  0  0  0  0  0  0  0  0  0  0  0
  -26.9592    0.0926   29.7582 C   0  0  0  0  0  0  0  0  0  0  0  0
  -25.8472   -1.5491   28.6589 N   0  0  0  0  0  0  0  0  0  0  0  0
  -25.7558    0.6393   30.1761 N   0  0  0  0  0  0  0  0  0  0  0  0
  -24.5860   -1.0916   29.0662 C   0  0  0  0  0  0  0  0  0  0  0  0
  -24.5689    0.0233   29.8409 C   0  0  0  0  0  0  0  0  0  0  0  0
  -28.1653    0.8767   30.1547 C   0  0  0  0  0  0  0  0  0  0  0  0
  -28.6991    1.7519   29.2398 C   0  0  0  0  0  0  0  0  0  0  0  0
  -29.9320    1.9938   29.3069 C   0  0  0  0  0  0  0  0  0  0  0  0
  -30.5688    2.8087   28.2595 C   0  0  0  0  0  0  0  0  0  0  0  0
  -29.9939    3.0548   27.3243 C   0  0  0  0  0  0  0  0  0  0  0  0
  -27.9851    2.3776   28.1157 C   0  0  0  0  0  0  0  0  0  0  0  0
  -28.5705    3.0166   27.1543 C   0  0  0  0  0  0  0  0  0  0  0  0
  -23.2890    0.5427   30.3575 C   0  0  0  0  0  0  0  0  0  0  0  0
  -22.1946   -0.0463   30.0913 O   0  0  0  0  0  0  0  0  0  0  0  0
  -23.2771    1.6717   31.0426 O   0  0  0  0  0  0  0  0  0  0  0  0
  -28.5698    0.7339   31.4852 C   0  0  0  0  0  0  0  0  0  0  0  0
  -28.0373    0.1214   32.5282 C   0  0  0  0  0  0  0  0  0  0  0  0
  -26.8753   -0.0042   32.7034 C   0  0  0  0  0  0  0  0  0  0  0  0
  -26.1050    0.2792   33.8949 C   0  0  0  0  0  0  0  0  0  0  0  0
  -26.8426   -0.0282   35.0562 C   0  0  0  0  0  0  0  0  0  0  0  0
  -28.2769    0.0301   34.9783 C   0  0  0  0  0  0  0  0  0  0  0  0
  -28.9126    0.1350   33.7511 C   0  0  0  0  0  0  0  0  0  0  0  0
  1  2  2  0
  2  3  1  0
  2  4  1  0
  4  6  1  0
  5  7  1  0
  6  7  1  0
  3  8  1  0
  8  9  1  0
  7 15  1  0
 15 16  2  0
 15 17  1  0
  8 18  1  0
 18 19  1  0
  3  5  1  0
 19 20  2  0
 20 21  1  0
 21 22  2  0
 22 23  1  0
 23 24  2  0
 24 19  1  0
  9 10  2  0
 10 11  1  0
 11 12  2  0
 12 14  1  0
 14 13  2  0
 13  9  1  0
M  END

$$$$
