No_2230-gen_results/8p0m/2024-11-26-14-13-15/
     RDKit          3D

 24 27  0  0  0  0  0  0  0  0999 V2000
  -28.1493   -0.8198   28.9079 Cl  0  0  0  0  0  0  0  0  0  0  0  0
  -27.8339    0.4961   29.0598 C   0  0  0  0  0  0  0  0  0  0  0  0
  -27.6022    1.0128   30.2974 C   0  0  0  0  0  0  0  0  0  0  0  0
  -27.1699    2.3964   30.5338 C   0  0  0  0  0  0  0  0  0  0  0  0
  -26.9133    3.1828   29.3680 C   0  0  0  0  0  0  0  0  0  0  0  0
  -27.0551    2.6221   28.1384 C   0  0  0  0  0  0  0  0  0  0  0  0
  -27.4622    1.3345   27.9669 C   0  0  0  0  0  0  0  0  0  0  0  0
  -27.5746    0.8563   26.5913 C   0  0  0  0  0  0  0  0  0  0  0  0
  -28.5677    1.0198   25.7705 C   0  0  0  0  0  0  0  0  0  0  0  0
  -28.6341    0.4453   24.4759 C   0  0  0  0  0  0  0  0  0  0  0  0
  -27.5367   -0.3495   24.0371 C   0  0  0  0  0  0  0  0  0  0  0  0
  -26.4374   -0.4833   24.8644 C   0  0  0  0  0  0  0  0  0  0  0  0
  -26.4182    0.0510   26.1595 C   0  0  0  0  0  0  0  0  0  0  0  0
  -25.3392   -0.2134   26.9663 N   0  0  0  0  0  0  0  0  0  0  0  0
  -24.1503    0.5236   27.0752 C   0  0  0  0  0  0  0  0  0  0  0  0
  -23.9045    1.7699   26.5112 C   0  0  0  0  0  0  0  0  0  0  0  0
  -23.4177    0.3383   28.3391 C   0  0  0  0  0  0  0  0  0  0  0  0
  -22.2652    1.0176   28.5308 C   0  0  0  0  0  0  0  0  0  0  0  0
  -22.7310    2.4659   26.6497 C   0  0  0  0  0  0  0  0  0  0  0  0
  -21.8968    2.0819   27.7179 C   0  0  0  0  0  0  0  0  0  0  0  0
  -26.7519    3.5868   27.0216 C   0  0  0  0  0  0  0  0  0  0  0  0
  -26.4310    4.5761   29.5991 C   0  0  0  0  0  0  0  0  0  0  0  0
  -26.1458    5.3585   28.5326 N   0  0  0  0  0  0  0  0  0  0  0  0
  -26.2661    4.9060   27.2709 C   0  0  0  0  0  0  0  0  0  0  0  0
  1  2  1  0
  7  8  1  0
 13 14  1  0
 14 15  1  0
  2  3  2  0
  3  4  1  0
  4  5  2  0
  6  7  2  0
  7  2  1  0
  8  9  2  0
  9 10  1  0
 10 11  2  0
 11 12  1  0
 12 13  2  0
 13  8  1  0
  5  6  1  0
  6 21  1  0
 21 24  2  0
 24 23  1  0
 23 22  2  0
 22  5  1  0
 15 16  2  0
 16 19  1  0
 19 20  2  0
 20 18  1  0
 18 17  2  0
 17 15  1  0
M  END

$$$$
