No_278-gen_results/8p0m/2024-11-26-14-13-15/
     RDKit          3D

 25 27  0  0  0  0  0  0  0  0999 V2000
  -28.0162   -0.8135   28.8779 C   0  0  0  0  0  0  0  0  0  0  0  0
  -27.0636   -0.1190   28.6079 C   0  0  0  0  0  0  0  0  0  0  0  0
  -25.7647   -0.3897   29.0360 C   0  0  0  0  0  0  0  0  0  0  0  0
  -25.5296   -1.5302   29.9014 C   0  0  0  0  0  0  0  0  0  0  0  0
  -26.6888   -2.2893   30.1810 C   0  0  0  0  0  0  0  0  0  0  0  0
  -27.8727   -1.9508   29.7373 C   0  0  0  0  0  0  0  0  0  0  0  0
  -29.1941   -2.9228   30.2191 Cl  0  0  0  0  0  0  0  0  0  0  0  0
  -24.5326    0.4192   28.7249 C   0  0  0  0  0  0  0  0  0  0  0  0
  -24.5321    1.2875   27.7195 C   0  0  0  0  0  0  0  0  0  0  0  0
  -23.3253    1.9924   27.3879 C   0  0  0  0  0  0  0  0  0  0  0  0
  -22.1278    1.7658   27.9996 C   0  0  0  0  0  0  0  0  0  0  0  0
  -23.2731    0.1497   29.3685 C   0  0  0  0  0  0  0  0  0  0  0  0
  -22.0911    0.8334   29.0098 C   0  0  0  0  0  0  0  0  0  0  0  0
  -23.4007    2.9150   26.3610 O   0  0  0  0  0  0  0  0  0  0  0  0
  -24.6845    3.2553   25.9818 C   0  0  0  0  0  0  0  0  0  0  0  0
  -27.4079    0.9976   27.7977 N   0  0  0  0  0  0  0  0  0  0  0  0
  -28.0687    1.0559   26.7005 C   0  0  0  0  0  0  0  0  0  0  0  0
  -28.2074    2.2707   26.0538 C   0  0  0  0  0  0  0  0  0  0  0  0
  -27.1715    2.3636   28.4099 C   0  0  0  0  0  0  0  0  0  0  0  0
  -27.3729    3.5058   27.8055 C   0  0  0  0  0  0  0  0  0  0  0  0
  -27.9382    3.5044   26.5916 C   0  0  0  0  0  0  0  0  0  0  0  0
  -26.9628    4.7752   28.4706 C   0  0  0  0  0  0  0  0  0  0  0  0
  -27.8226    5.4559   29.2155 C   0  0  0  0  0  0  0  0  0  0  0  0
  -25.5925    5.2468   28.2756 C   0  0  0  0  0  0  0  0  0  0  0  0
  -24.8253    4.6089   27.6380 F   0  0  0  0  0  0  0  0  0  0  0  0
  6  7  1  0
  3  8  1  0
 10 14  1  0
 14 15  1  0
  2 16  1  0
 16 17  1  0
 16 19  1  0
 18 21  1  0
 20 21  1  0
 20 22  1  0
 22 23  1  0
 22 24  1  0
 24 25  1  0
 17 18  1  0
 20 19  1  0
  1  2  2  0
  2  3  1  0
  3  4  2  0
  4  5  1  0
  5  6  2  0
  6  1  1  0
  8  9  2  0
  9 10  1  0
 10 11  2  0
 11 13  1  0
 13 12  2  0
 12  8  1  0
M  END

$$$$
