No_2451-gen_results/8p0m/2024-11-26-14-13-15/
     RDKit          3D

 19 20  0  0  0  0  0  0  0  0999 V2000
  -28.0162   -0.8135   28.8779 C   0  0  0  0  0  0  0  0  0  0  0  0
  -28.4690   -0.7850   29.8287 C   0  0  0  0  0  0  0  0  0  0  0  0
  -27.1356    0.2359   28.5352 C   0  0  0  0  0  0  0  0  0  0  0  0
  -26.8745    1.2825   29.3982 C   0  0  0  0  0  0  0  0  0  0  0  0
  -27.5070    1.2380   30.6295 C   0  0  0  0  0  0  0  0  0  0  0  0
  -28.3293    0.1745   30.9350 C   0  0  0  0  0  0  0  0  0  0  0  0
  -26.4077    0.3070   27.2259 C   0  0  0  0  0  0  0  0  0  0  0  0
  -26.8748    0.8389   26.2127 C   0  0  0  0  0  0  0  0  0  0  0  0
  -25.0813   -0.2883   27.1835 C   0  0  0  0  0  0  0  0  0  0  0  0
  -28.1776    1.4121   26.1391 C   0  0  0  0  0  0  0  0  0  0  0  0
  -29.1025    1.0983   25.7418 C   0  0  0  0  0  0  0  0  0  0  0  0
  -30.3681    1.8522   25.7322 C   0  0  0  0  0  0  0  0  0  0  0  0
  -30.3321    3.0947   26.3681 C   0  0  0  0  0  0  0  0  0  0  0  0
  -29.1707    3.6796   26.7962 C   0  0  0  0  0  0  0  0  0  0  0  0
  -28.0111    2.8955   26.7568 C   0  0  0  0  0  0  0  0  0  0  0  0
  -26.2226    0.7412   24.9343 C   0  0  0  0  0  0  0  0  0  0  0  0
  -24.5073   -0.6786   28.5313 C   0  0  0  0  0  0  0  0  0  0  0  0
  -23.7880    0.2255   29.2920 C   0  0  0  0  0  0  0  0  0  0  0  0
  -23.1617   -0.2401   30.4414 C   0  0  0  0  0  0  0  0  0  0  0  0
  3  7  1  0
  7  8  1  0
  7  9  1  0
  8 10  1  0
  8 16  1  0
  9 17  1  0
 17 18  2  3
 18 19  1  0
  1  2  2  0
  2  6  1  0
  6  5  2  0
  5  4  1  0
  4  3  2  0
  3  1  1  0
 10 11  2  0
 11 12  1  0
 12 13  2  0
 13 14  1  0
 14 15  2  0
 15 10  1  0
M  END

$$$$
