No_2422-gen_results/8p0m/2024-11-26-14-13-15/
     RDKit          3D

 35 39  0  0  0  0  0  0  0  0999 V2000
  -28.0727   -1.2542   28.5316 F   0  0  0  0  0  0  0  0  0  0  0  0
  -27.0607   -0.6291   28.8721 C   0  0  0  0  0  0  0  0  0  0  0  0
  -26.1528   -1.1557   29.4537 C   0  0  0  0  0  0  0  0  0  0  0  0
  -24.8777   -0.5788   29.8639 C   0  0  0  0  0  0  0  0  0  0  0  0
  -24.7426    0.8273   29.4808 C   0  0  0  0  0  0  0  0  0  0  0  0
  -25.7883    1.3927   28.7628 C   0  0  0  0  0  0  0  0  0  0  0  0
  -26.9145    0.7309   28.4427 C   0  0  0  0  0  0  0  0  0  0  0  0
  -23.3446    1.6560   29.9170 Cl  0  0  0  0  0  0  0  0  0  0  0  0
  -27.9239    1.4141   27.6485 C   0  0  0  0  0  0  0  0  0  0  0  0
  -27.6154    1.9739   26.5609 C   0  0  0  0  0  0  0  0  0  0  0  0
  -26.3741    2.1884   26.1776 C   0  0  0  0  0  0  0  0  0  0  0  0
  -25.1662    2.5606   26.7193 C   0  0  0  0  0  0  0  0  0  0  0  0
  -24.8333    2.4541   27.9591 C   0  0  0  0  0  0  0  0  0  0  0  0
  -26.2849   -2.4456   30.0312 O   0  0  0  0  0  0  0  0  0  0  0  0
  -27.3382   -2.7587   30.6514 C   0  0  0  0  0  0  0  0  0  0  0  0
  -27.9417   -4.0622   30.3213 C   0  0  0  0  0  0  0  0  0  0  0  0
  -29.2401   -4.4022   30.8602 C   0  0  0  0  0  0  0  0  0  0  0  0
  -29.9143   -3.4094   31.5279 C   0  0  0  0  0  0  0  0  0  0  0  0
  -29.3964   -2.1512   31.8181 C   0  0  0  0  0  0  0  0  0  0  0  0
  -28.1306   -1.8043   31.2933 C   0  0  0  0  0  0  0  0  0  0  0  0
  -31.2185   -3.8309   32.1463 C   0  0  0  0  0  0  0  0  0  0  0  0
  -32.2328   -3.8783   31.4729 C   0  0  0  0  0  0  0  0  0  0  0  0
  -32.2736   -3.4440   30.2337 C   0  0  0  0  0  0  0  0  0  0  0  0
  -31.3079   -2.7079   29.6880 C   0  0  0  0  0  0  0  0  0  0  0  0
  -31.6033   -2.0789   28.2499 C   0  0  0  0  0  0  0  0  0  0  0  0
  -32.5911   -2.6243   27.5528 C   0  0  0  0  0  0  0  0  0  0  0  0
  -33.5299   -3.5051   28.0997 C   0  0  0  0  0  0  0  0  0  0  0  0
  -33.3936   -3.8580   29.3855 C   0  0  0  0  0  0  0  0  0  0  0  0
  -31.0580   -4.2196   33.5950 C   0  0  0  0  0  0  0  0  0  0  0  0
  -31.8658   -4.9959   34.0747 C   0  0  0  0  0  0  0  0  0  0  0  0
  -33.1847   -5.0585   33.4385 C   0  0  0  0  0  0  0  0  0  0  0  0
  -33.3335   -4.5819   32.1514 C   0  0  0  0  0  0  0  0  0  0  0  0
  -29.6431   -4.0837   34.2202 C   0  0  0  0  0  0  0  0  0  0  0  0
  -29.1693   -5.0999   34.8187 N   0  0  0  0  0  0  0  0  0  0  0  0
  -28.6757   -4.9603   36.1046 C   0  0  0  0  0  0  0  0  0  0  0  0
  1  2  1  0
  5  8  1  0
  7  9  1  0
  9 10  1  0
 10 11  1  0
 11 12  2  0
  6 13  1  0
 12 13  1  0
  3 14  1  0
 14 15  1  0
 18 21  1  0
 29 33  1  0
 33 34  2  3
 34 35  1  0
 23 22  1  0
 15 16  2  0
 16 17  1  0
 17 18  2  0
 18 19  1  0
 19 20  2  0
 20 15  1  0
  2  3  2  0
  3  4  1  0
  4  5  2  0
  5  6  1  0
  6  7  2  0
  7  2  1  0
 23 24  2  0
 24 25  1  0
 25 26  2  0
 26 27  1  0
 27 28  2  0
 28 23  1  0
 21 22  2  0
 22 32  1  0
 32 31  2  0
 31 30  1  0
 30 29  2  0
 29 21  1  0
M  END

$$$$
