No_230-gen_results/8p0m/2024-11-26-14-13-15/
     RDKit          3D

 20 20  0  0  0  0  0  0  0  0999 V2000
  -28.0162   -0.8135   28.8779 C   0  0  0  0  0  0  0  0  0  0  0  0
  -27.0636   -0.1189   28.6079 C   0  0  0  0  0  0  0  0  0  0  0  0
  -26.9716    0.7139   27.5060 C   0  0  0  0  0  0  0  0  0  0  0  0
  -28.1053    0.7744   26.6421 C   0  0  0  0  0  0  0  0  0  0  0  0
  -28.0677    1.4872   25.5121 C   0  0  0  0  0  0  0  0  0  0  0  0
  -29.2691   -0.5335   28.2245 C   0  0  0  0  0  0  0  0  0  0  0  0
  -29.2230    0.1355   27.0328 C   0  0  0  0  0  0  0  0  0  0  0  0
  -28.0600   -1.7764   30.3495 Cl  0  0  0  0  0  0  0  0  0  0  0  0
  -28.6081    2.3672   25.1670 F   0  0  0  0  0  0  0  0  0  0  0  0
  -26.6865    1.9710   25.2456 F   0  0  0  0  0  0  0  0  0  0  0  0
  -28.0496    0.5296   24.3594 F   0  0  0  0  0  0  0  0  0  0  0  0
  -25.6860   -0.2203   29.4107 C   0  0  0  0  0  0  0  0  0  0  0  0
  -25.5182    0.5197   30.4299 N   0  0  0  0  0  0  0  0  0  0  0  0
  -24.3379    0.6108   31.0326 C   0  0  0  0  0  0  0  0  0  0  0  0
  -26.4333    1.5642   30.8375 C   0  0  0  0  0  0  0  0  0  0  0  0
  -26.1026    2.7855   30.6007 C   0  0  0  0  0  0  0  0  0  0  0  0
  -27.0924    3.7402   31.0522 C   0  0  0  0  0  0  0  0  0  0  0  0
  -26.9195    5.0951   30.7162 C   0  0  0  0  0  0  0  0  0  0  0  0
  -25.8342    5.4681   29.9052 C   0  0  0  0  0  0  0  0  0  0  0  0
  -25.1100    4.5046   29.2213 C   0  0  0  0  0  0  0  0  0  0  0  0
  4  5  1  0
  1  8  1  0
  5  9  1  0
  5 10  1  0
  5 11  1  0
  2 12  1  0
 12 13  1  0
 13 14  1  0
 13 15  1  0
 15 16  2  3
 16 17  1  0
 17 18  2  3
 18 19  1  0
 19 20  2  0
  1  2  2  0
  2  3  1  0
  3  4  2  0
  4  7  1  0
  7  6  2  0
  6  1  1  0
M  END

$$$$
