No_2580-gen_results/8p0m/2024-11-26-14-13-15/
     RDKit          3D

 14 15  0  0  0  0  0  0  0  0999 V2000
  -28.1229   -1.3353   28.4874 O   0  0  0  0  0  0  0  0  0  0  0  0
  -27.4806   -0.4044   28.7094 C   0  0  0  0  0  0  0  0  0  0  0  0
  -27.1904    0.2460   29.5268 C   0  0  0  0  0  0  0  0  0  0  0  0
  -26.8157    0.1371   27.4262 N   0  0  0  0  0  0  0  0  0  0  0  0
  -26.3550    1.4196   29.7643 C   0  0  0  0  0  0  0  0  0  0  0  0
  -26.0125    1.2307   27.4050 C   0  0  0  0  0  0  0  0  0  0  0  0
  -25.7456    1.9087   28.5801 C   0  0  0  0  0  0  0  0  0  0  0  0
  -25.4741    1.6476   26.2645 N   0  0  0  0  0  0  0  0  0  0  0  0
  -24.5835    2.7236   26.2659 C   0  0  0  0  0  0  0  0  0  0  0  0
  -24.3451    3.4222   27.4203 C   0  0  0  0  0  0  0  0  0  0  0  0
  -24.8934    3.0551   28.5535 C   0  0  0  0  0  0  0  0  0  0  0  0
  -27.7978   -0.2578   30.9525 C   0  0  0  0  0  0  0  0  0  0  0  0
  -27.1394   -0.2554   31.9813 C   0  0  0  0  0  0  0  0  0  0  0  0
  -26.2461    0.7510   32.2667 C   0  0  0  0  0  0  0  0  0  0  0  0
  1  2  2  0
  2  3  1  0
  2  4  1  0
  4  6  1  0
  5  7  1  0
  3 12  1  0
 12 13  1  0
 13 14  2  0
  3  5  1  0
  6  7  2  0
  7 11  1  0
 11 10  2  0
 10  9  1  0
  9  8  2  0
  8  6  1  0
M  END

$$$$
