No_2639-gen_results/8p0m/2024-11-26-14-13-15/
     RDKit          3D

 35 39  0  0  0  0  0  0  0  0999 V2000
  -28.0162   -0.8135   28.8779 C   0  0  0  0  0  0  0  0  0  0  0  0
  -27.0636   -0.1189   28.6079 C   0  0  0  0  0  0  0  0  0  0  0  0
  -25.7923   -0.4302   29.0761 C   0  0  0  0  0  0  0  0  0  0  0  0
  -24.5456    0.3494   28.8225 C   0  0  0  0  0  0  0  0  0  0  0  0
  -23.2409    0.0217   29.3323 C   0  0  0  0  0  0  0  0  0  0  0  0
  -27.8820   -1.8995   29.8633 C   0  0  0  0  0  0  0  0  0  0  0  0
  -26.6526   -2.3142   30.3138 C   0  0  0  0  0  0  0  0  0  0  0  0
  -25.5153   -1.5607   29.9787 C   0  0  0  0  0  0  0  0  0  0  0  0
  -23.2072   -1.2289   30.0311 C   0  0  0  0  0  0  0  0  0  0  0  0
  -24.2434   -1.9361   30.3879 C   0  0  0  0  0  0  0  0  0  0  0  0
  -24.5768    1.5651   27.9574 C   0  0  0  0  0  0  0  0  0  0  0  0
  -23.5960    1.7041   26.9962 C   0  0  0  0  0  0  0  0  0  0  0  0
  -25.4866    2.5420   28.2001 C   0  0  0  0  0  0  0  0  0  0  0  0
  -25.7556    3.1050   29.3700 C   0  0  0  0  0  0  0  0  0  0  0  0
  -26.7112    4.0964   29.6063 C   0  0  0  0  0  0  0  0  0  0  0  0
  -26.0724    3.1650   27.0583 C   0  0  0  0  0  0  0  0  0  0  0  0
  -26.9877    4.2450   27.1926 C   0  0  0  0  0  0  0  0  0  0  0  0
  -27.2817    4.7336   28.4477 C   0  0  0  0  0  0  0  0  0  0  0  0
  -23.8934    1.9940   25.7086 C   0  0  0  0  0  0  0  0  0  0  0  0
  -25.0988    3.0415   25.7957 C   0  0  0  0  0  0  0  0  0  0  0  0
  -27.1027    4.5408   30.9897 C   0  0  0  0  0  0  0  0  0  0  0  0
  -27.7456    5.4094   31.2062 O   0  0  0  0  0  0  0  0  0  0  0  0
  -26.5608    3.7513   31.9206 O   0  0  0  0  0  0  0  0  0  0  0  0
  -29.0160   -2.6066   30.1556 O   0  0  0  0  0  0  0  0  0  0  0  0
  -30.1075   -1.9908   30.6176 C   0  0  0  0  0  0  0  0  0  0  0  0
  -31.2018   -2.5380   30.1031 C   0  0  0  0  0  0  0  0  0  0  0  0
  -32.4435   -1.8301   30.1831 C   0  0  0  0  0  0  0  0  0  0  0  0
  -32.4620   -0.6959   31.0319 C   0  0  0  0  0  0  0  0  0  0  0  0
  -31.3076   -0.2115   31.5710 C   0  0  0  0  0  0  0  0  0  0  0  0
  -30.0731   -0.8188   31.3035 C   0  0  0  0  0  0  0  0  0  0  0  0
  -33.6850   -2.4221   29.7514 C   0  0  0  0  0  0  0  0  0  0  0  0
  -34.6554   -2.5808   30.3158 C   0  0  0  0  0  0  0  0  0  0  0  0
  -34.7339   -2.1913   31.7507 C   0  0  0  0  0  0  0  0  0  0  0  0
  -35.8945   -2.4922   32.4484 C   0  0  0  0  0  0  0  0  0  0  0  0
  -36.9176   -3.1015   31.7228 C   0  0  0  0  0  0  0  0  0  0  0  0
  4 11  1  0
 15 21  1  0
 21 22  2  0
 21 23  1  0
  6 24  1  0
 24 25  1  0
 27 31  1  0
 31 32  2  3
 32 33  1  0
 33 34  2  3
 34 35  1  0
 25 26  2  0
 26 27  1  0
 27 28  2  0
 28 29  1  0
 29 30  2  0
 30 25  1  0
  3  4  2  0
  4  5  1  0
  5  9  2  0
  9 10  1  0
 10  8  2  0
 11 12  2  0
 12 19  1  0
 19 20  2  0
 20 16  1  0
 13 11  1  0
  1  2  2  0
  2  3  1  0
  3  8  1  0
  8  7  1  0
  7  6  2  0
  6  1  1  0
 13 14  2  0
 14 15  1  0
 15 18  2  0
 18 17  1  0
 17 16  2  0
 16 13  1  0
M  END

$$$$
