No_2248-gen_results/8p0m/2024-11-26-14-13-15/
     RDKit          3D

 20 22  0  0  0  0  0  0  0  0999 V2000
  -28.0162   -0.8135   28.8779 C   0  0  0  0  0  0  0  0  0  0  0  0
  -27.0636   -0.1190   28.6079 C   0  0  0  0  0  0  0  0  0  0  0  0
  -25.7923   -0.4302   29.0761 C   0  0  0  0  0  0  0  0  0  0  0  0
  -24.5456    0.3494   28.8225 C   0  0  0  0  0  0  0  0  0  0  0  0
  -23.2409    0.0217   29.3323 C   0  0  0  0  0  0  0  0  0  0  0  0
  -27.8820   -1.8995   29.8633 C   0  0  0  0  0  0  0  0  0  0  0  0
  -26.6526   -2.3142   30.3138 C   0  0  0  0  0  0  0  0  0  0  0  0
  -25.5153   -1.5607   29.9787 C   0  0  0  0  0  0  0  0  0  0  0  0
  -22.1588    0.7866   28.9507 C   0  0  0  0  0  0  0  0  0  0  0  0
  -22.1309    1.7439   27.9818 C   0  0  0  0  0  0  0  0  0  0  0  0
  -24.3467    1.2383   27.6692 C   0  0  0  0  0  0  0  0  0  0  0  0
  -23.2713    1.9480   27.3587 C   0  0  0  0  0  0  0  0  0  0  0  0
  -29.0481   -2.7255   30.2948 C   0  0  0  0  0  0  0  0  0  0  0  0
  -28.9460   -4.0187   30.4062 N   0  0  0  0  0  0  0  0  0  0  0  0
  -30.0416   -4.7965   30.7440 C   0  0  0  0  0  0  0  0  0  0  0  0
  -29.9700   -6.0038   31.2496 C   0  0  0  0  0  0  0  0  0  0  0  0
  -30.9064   -7.0762   31.0956 C   0  0  0  0  0  0  0  0  0  0  0  0
  -32.1177   -6.7129   30.4832 C   0  0  0  0  0  0  0  0  0  0  0  0
  -31.0879   -4.8151   29.7679 C   0  0  0  0  0  0  0  0  0  0  0  0
  -32.1184   -5.6069   29.7079 C   0  0  0  0  0  0  0  0  0  0  0  0
  3  4  1  0
  6 13  1  0
 13 14  2  3
 14 15  1  0
 15 16  2  0
 16 17  1  0
 17 18  2  0
 18 20  1  0
 20 19  2  0
 19 15  1  0
  1  2  2  0
  2  3  1  0
  3  8  2  0
  8  7  1  0
  7  6  2  0
  6  1  1  0
  4  5  2  0
  5  9  1  0
  9 10  2  0
 10 12  1  0
 12 11  2  0
 11  4  1  0
M  END

$$$$
