No_2858-gen_results/8p0m/2024-11-26-14-13-15/
     RDKit          3D

 29 33  0  0  0  0  0  0  0  0999 V2000
  -28.0544   -1.0498   28.7246 N   0  0  0  0  0  0  0  0  0  0  0  0
  -27.7460   -0.0733   29.0098 C   0  0  0  0  0  0  0  0  0  0  0  0
  -27.1737    0.7565   28.1070 C   0  0  0  0  0  0  0  0  0  0  0  0
  -26.5770    2.0960   28.3920 C   0  0  0  0  0  0  0  0  0  0  0  0
  -26.5762    2.4337   29.7569 C   0  0  0  0  0  0  0  0  0  0  0  0
  -27.0953    1.5387   30.7175 C   0  0  0  0  0  0  0  0  0  0  0  0
  -27.5988    0.3077   30.4002 C   0  0  0  0  0  0  0  0  0  0  0  0
  -28.6506   -1.8727   29.8028 C   0  0  0  0  0  0  0  0  0  0  0  0
  -29.0773   -3.2385   29.4921 C   0  0  0  0  0  0  0  0  0  0  0  0
  -28.6290   -1.5168   31.1559 C   0  0  0  0  0  0  0  0  0  0  0  0
  -28.1018   -0.4261   31.4673 C   0  0  0  0  0  0  0  0  0  0  0  0
  -29.2923   -4.1470   30.6250 C   0  0  0  0  0  0  0  0  0  0  0  0
  -29.3869   -3.7541   31.9021 C   0  0  0  0  0  0  0  0  0  0  0  0
  -28.9731   -2.5032   32.1874 C   0  0  0  0  0  0  0  0  0  0  0  0
  -27.1490    0.4835   26.6367 C   0  0  0  0  0  0  0  0  0  0  0  0
  -28.0271    0.9369   25.8093 C   0  0  0  0  0  0  0  0  0  0  0  0
  -28.0692    0.4248   24.5207 C   0  0  0  0  0  0  0  0  0  0  0  0
  -27.1332   -0.6476   24.1933 C   0  0  0  0  0  0  0  0  0  0  0  0
  -26.1242   -0.9342   25.0808 C   0  0  0  0  0  0  0  0  0  0  0  0
  -26.1200   -0.4691   26.3570 C   0  0  0  0  0  0  0  0  0  0  0  0
  -26.0423    2.9913   27.4171 C   0  0  0  0  0  0  0  0  0  0  0  0
  -25.0283    2.8804   26.9964 C   0  0  0  0  0  0  0  0  0  0  0  0
  -23.9032    2.5032   26.9877 C   0  0  0  0  0  0  0  0  0  0  0  0
  -23.2695    1.9395   28.1864 C   0  0  0  0  0  0  0  0  0  0  0  0
  -21.9315    1.3861   28.1472 C   0  0  0  0  0  0  0  0  0  0  0  0
  -26.8358    4.1879   27.5769 C   0  0  0  0  0  0  0  0  0  0  0  0
  -22.8953    2.3044   25.9096 C   0  0  0  0  0  0  0  0  0  0  0  0
  -21.7335    1.9228   25.9346 N   0  0  0  0  0  0  0  0  0  0  0  0
  -21.1755    1.4711   27.0832 C   0  0  0  0  0  0  0  0  0  0  0  0
  3 15  1  0
  4 21  1  0
 21 22  1  0
 21 26  1  0
 22 23  1  0
 15 16  2  0
 16 17  1  0
 17 18  2  0
 18 19  1  0
 19 20  2  0
 20 15  1  0
  8  9  2  0
  9 12  1  0
 12 13  2  0
 13 14  1  0
 14 10  2  0
 23 24  2  0
 24 25  1  0
 25 29  2  0
 29 28  1  0
 28 27  2  0
 27 23  1  0
  2  3  1  0
  3  4  2  0
  4  5  1  0
  5  6  2  0
  6  7  1  0
  1  2  2  0
  2  7  1  0
  7 11  2  0
 11 10  1  0
 10  8  1  0
  8  1  1  0
M  END

$$$$
