No_2671-gen_results/8p0m/2024-11-26-14-13-15/
     RDKit          3D

 19 20  0  0  0  0  0  0  0  0999 V2000
  -28.0162   -0.8135   28.8779 C   0  0  0  0  0  0  0  0  0  0  0  0
  -28.4690   -0.7850   29.8287 C   0  0  0  0  0  0  0  0  0  0  0  0
  -26.5455   -0.8762   28.8500 C   0  0  0  0  0  0  0  0  0  0  0  0
  -25.8041   -1.0324   30.0571 C   0  0  0  0  0  0  0  0  0  0  0  0
  -27.9437   -0.9869   31.2075 C   0  0  0  0  0  0  0  0  0  0  0  0
  -26.5825   -1.0386   31.2231 C   0  0  0  0  0  0  0  0  0  0  0  0
  -30.2809   -0.7232   29.8834 Cl  0  0  0  0  0  0  0  0  0  0  0  0
  -24.3690   -1.1185   30.0640 C   0  0  0  0  0  0  0  0  0  0  0  0
  -23.6811    0.1519   30.0835 C   0  0  0  0  0  0  0  0  0  0  0  0
  -23.2612    0.7756   28.8972 C   0  0  0  0  0  0  0  0  0  0  0  0
  -21.9844    0.6529   28.5637 C   0  0  0  0  0  0  0  0  0  0  0  0
  -24.1983    1.4822   28.1657 C   0  0  0  0  0  0  0  0  0  0  0  0
  -23.7900    1.9339   26.8504 C   0  0  0  0  0  0  0  0  0  0  0  0
  -21.5038    1.2447   27.3883 N   0  0  0  0  0  0  0  0  0  0  0  0
  -22.3469    1.9679   26.6320 C   0  0  0  0  0  0  0  0  0  0  0  0
  -24.2990    1.2860   30.8783 C   0  0  0  0  0  0  0  0  0  0  0  0
  -22.2776   -0.2369   30.9339 C   0  0  0  0  0  0  0  0  0  0  0  0
  -23.8870   -2.1922   29.8537 F   0  0  0  0  0  0  0  0  0  0  0  0
  -24.2519   -1.8043   30.7875 Cl  0  0  0  0  0  0  0  0  0  0  0  0
  2  7  1  0
  4  8  1  0
  8  9  1  0
  9 10  1  0
  9 16  1  0
  9 17  1  0
  8 18  1  0
  8 19  1  0
 10 11  2  0
 11 14  1  0
 14 15  2  0
 15 13  1  0
 13 12  2  0
 12 10  1  0
  1  2  2  0
  2  5  1  0
  5  6  2  0
  6  4  1  0
  4  3  2  0
  3  1  1  0
M  END

$$$$
