No_2540-gen_results/8p0m/2024-11-26-14-13-15/
     RDKit          3D

 27 28  0  0  0  0  0  0  0  0999 V2000
  -28.0162   -0.8135   28.8779 C   0  0  0  0  0  0  0  0  0  0  0  0
  -28.4690   -0.7850   29.8287 C   0  0  0  0  0  0  0  0  0  0  0  0
  -26.5042   -0.7777   28.8766 C   0  0  0  0  0  0  0  0  0  0  0  0
  -25.8103   -0.8531   30.1028 C   0  0  0  0  0  0  0  0  0  0  0  0
  -27.9906   -0.8916   31.2257 C   0  0  0  0  0  0  0  0  0  0  0  0
  -26.6042   -0.8676   31.2652 C   0  0  0  0  0  0  0  0  0  0  0  0
  -30.4622   -0.8398   29.8385 Br  0  0  0  0  0  0  0  0  0  0  0  0
  -24.3620   -0.8196   30.1394 C   0  0  0  0  0  0  0  0  0  0  0  0
  -23.7947    0.5260   30.0811 C   0  0  0  0  0  0  0  0  0  0  0  0
  -24.1653    1.5488   30.5542 C   0  0  0  0  0  0  0  0  0  0  0  0
  -25.2157    1.6060   31.3954 N   0  0  0  0  0  0  0  0  0  0  0  0
  -25.6152    2.8750   31.9586 C   0  0  0  0  0  0  0  0  0  0  0  0
  -25.2554    3.9159   31.3190 C   0  0  0  0  0  0  0  0  0  0  0  0
  -25.7476    5.2066   31.9107 C   0  0  0  0  0  0  0  0  0  0  0  0
  -26.4044    2.9122   33.1767 C   0  0  0  0  0  0  0  0  0  0  0  0
  -26.8232    4.0995   33.7058 C   0  0  0  0  0  0  0  0  0  0  0  0
  -26.4431    5.3070   33.0574 C   0  0  0  0  0  0  0  0  0  0  0  0
  -22.4889    0.4716   29.2327 C   0  0  0  0  0  0  0  0  0  0  0  0
  -21.6552   -0.3420   29.3860 O   0  0  0  0  0  0  0  0  0  0  0  0
  -22.2601    1.5161   28.4349 O   0  0  0  0  0  0  0  0  0  0  0  0
  -25.6047   -0.6493   27.4250 Cl  0  0  0  0  0  0  0  0  0  0  0  0
  -25.2782    6.4906   31.1902 C   0  0  0  0  0  0  0  0  0  0  0  0
  -24.5143    7.3239   31.7468 N   0  0  0  0  0  0  0  0  0  0  0  0
  -25.5968    6.6121   29.9410 N   0  0  0  0  0  0  0  0  0  0  0  0
  -26.2917    5.8756   29.1343 C   0  0  0  0  0  0  0  0  0  0  0  0
  -27.3154    5.6355   29.1114 C   0  0  0  0  0  0  0  0  0  0  0  0
  -28.0180    4.7267   28.1689 C   0  0  0  0  0  0  0  0  0  0  0  0
  2  7  1  0
  4  8  1  0
  8  9  1  0
  9 10  1  0
 10 11  2  3
 11 12  1  0
  9 18  1  0
 18 19  2  0
 18 20  1  0
  3 21  1  0
 14 22  1  0
 22 23  1  0
 22 24  2  3
 24 25  1  0
 25 26  2  3
 26 27  1  0
 12 13  2  0
 13 14  1  0
 14 17  2  0
 17 16  1  0
 16 15  2  0
 15 12  1  0
  1  2  2  0
  2  5  1  0
  5  6  2  0
  6  4  1  0
  4  3  2  0
  3  1  1  0
M  END

$$$$
