No_2950-gen_results/8p0m/2024-11-26-14-13-15/
     RDKit          3D

 29 31  0  0  0  0  0  0  0  0999 V2000
  -28.0162   -0.8135   28.8779 C   0  0  0  0  0  0  0  0  0  0  0  0
  -28.4690   -0.7850   29.8287 C   0  0  0  0  0  0  0  0  0  0  0  0
  -28.1816    0.4277   28.1134 C   0  0  0  0  0  0  0  0  0  0  0  0
  -28.9841    1.4155   28.5154 C   0  0  0  0  0  0  0  0  0  0  0  0
  -29.3802    0.1384   30.4612 C   0  0  0  0  0  0  0  0  0  0  0  0
  -29.5415    1.2736   29.7242 C   0  0  0  0  0  0  0  0  0  0  0  0
  -27.4452    0.4872   26.7726 C   0  0  0  0  0  0  0  0  0  0  0  0
  -26.6428    1.5153   26.5778 N   0  0  0  0  0  0  0  0  0  0  0  0
  -25.4250    1.6639   27.3102 C   0  0  0  0  0  0  0  0  0  0  0  0
  -24.6351    2.7948   27.0511 C   0  0  0  0  0  0  0  0  0  0  0  0
  -24.9308    0.6991   28.1629 C   0  0  0  0  0  0  0  0  0  0  0  0
  -23.6901    0.8977   28.7864 C   0  0  0  0  0  0  0  0  0  0  0  0
  -22.8902    1.8966   28.4740 C   0  0  0  0  0  0  0  0  0  0  0  0
  -23.3404    2.8945   27.6125 C   0  0  0  0  0  0  0  0  0  0  0  0
  -27.1035    2.5742   25.7594 C   0  0  0  0  0  0  0  0  0  0  0  0
  -27.8851   -0.0213   25.7368 O   0  0  0  0  0  0  0  0  0  0  0  0
  -23.1705   -0.2870   29.6103 C   0  0  0  0  0  0  0  0  0  0  0  0
  -23.9214   -0.5452   30.7356 C   0  0  0  0  0  0  0  0  0  0  0  0
  -25.2224   -0.3833   30.7654 C   0  0  0  0  0  0  0  0  0  0  0  0
  -25.6981    0.2723   32.0738 C   0  0  0  0  0  0  0  0  0  0  0  0
  -25.9077    1.7034   32.1109 C   0  0  0  0  0  0  0  0  0  0  0  0
  -26.7683    2.2087   32.2874 C   0  0  0  0  0  0  0  0  0  0  0  0
  -26.9130    3.7181   32.3432 C   0  0  0  0  0  0  0  0  0  0  0  0
  -25.7882    4.4566   32.0830 C   0  0  0  0  0  0  0  0  0  0  0  0
  -24.5517    3.7688   31.8740 C   0  0  0  0  0  0  0  0  0  0  0  0
  -24.5646    2.3483   31.8767 C   0  0  0  0  0  0  0  0  0  0  0  0
  -28.3379   -2.1064   30.8149 C   0  0  0  0  0  0  0  0  0  0  0  0
  -27.6068   -2.9771   30.4193 N   0  0  0  0  0  0  0  0  0  0  0  0
  -28.9214   -2.1203   31.9332 O   0  0  0  0  0  0  0  0  0  0  0  0
  3  7  1  0
  7  8  1  0
  8  9  1  0
  8 15  1  0
  7 16  2  0
 12 17  1  0
 17 18  1  0
 18 19  1  0
 19 20  1  0
 20 21  1  0
  2 27  1  0
 27 28  1  0
 27 29  2  0
  9 10  2  0
 10 14  1  0
 14 13  2  0
 13 12  1  0
 12 11  2  0
 11  9  1  0
  1  2  2  0
  2  5  1  0
  5  6  2  0
  6  4  1  0
  4  3  2  0
  3  1  1  0
 21 22  2  0
 22 23  1  0
 23 24  2  0
 24 25  1  0
 25 26  2  0
 26 21  1  0
M  END

$$$$
