No_2250-gen_results/8p0m/2024-11-26-14-13-15/
     RDKit          3D

 19 20  0  0  0  0  0  0  0  0999 V2000
  -28.0162   -0.8135   28.8779 C   0  0  0  0  0  0  0  0  0  0  0  0
  -27.0636   -0.1189   28.6079 C   0  0  0  0  0  0  0  0  0  0  0  0
  -26.9716    0.7139   27.5060 C   0  0  0  0  0  0  0  0  0  0  0  0
  -25.8205    1.4909   27.1160 C   0  0  0  0  0  0  0  0  0  0  0  0
  -24.6562    1.4242   27.9180 C   0  0  0  0  0  0  0  0  0  0  0  0
  -24.7114    0.5419   29.0507 C   0  0  0  0  0  0  0  0  0  0  0  0
  -25.8042   -0.2058   29.3881 C   0  0  0  0  0  0  0  0  0  0  0  0
  -28.7233   -0.6113   29.9885 N   0  0  0  0  0  0  0  0  0  0  0  0
  -29.8128   -1.4112   30.4034 C   0  0  0  0  0  0  0  0  0  0  0  0
  -23.4660    2.1584   27.6247 C   0  0  0  0  0  0  0  0  0  0  0  0
  -23.2326    2.6386   26.4363 N   0  0  0  0  0  0  0  0  0  0  0  0
  -22.4466    2.0294   28.3856 F   0  0  0  0  0  0  0  0  0  0  0  0
  -30.5313   -1.1102   31.4940 C   0  0  0  0  0  0  0  0  0  0  0  0
  -28.5093    0.4414   30.9141 C   0  0  0  0  0  0  0  0  0  0  0  0
  -29.2075    0.7571   31.9983 C   0  0  0  0  0  0  0  0  0  0  0  0
  -30.2338   -0.0534   32.3420 C   0  0  0  0  0  0  0  0  0  0  0  0
  -28.0782    0.8510   26.5841 C   0  0  0  0  0  0  0  0  0  0  0  0
  -28.0253    1.0288   25.4297 N   0  0  0  0  0  0  0  0  0  0  0  0
  -29.1094    1.0800   24.5804 C   0  0  0  0  0  0  0  0  0  0  0  0
  1  8  1  0
  8  9  1  0
  5 10  1  0
 10 11  2  0
 10 12  1  0
  8 14  1  0
 13 16  1  0
 15 16  1  0
  3 17  1  0
 17 18  2  3
 18 19  1  0
  1  2  1  0
  9 13  1  0
 15 14  1  0
  2  3  2  0
  3  4  1  0
  4  5  2  0
  5  6  1  0
  6  7  2  0
  7  2  1  0
M  END

$$$$
