No_2047-gen_results/8p0m/2024-11-26-14-13-15/
     RDKit          3D

 22 23  0  0  0  0  0  0  0  0999 V2000
  -28.0162   -0.8135   28.8779 C   0  0  0  0  0  0  0  0  0  0  0  0
  -27.0636   -0.1190   28.6079 C   0  0  0  0  0  0  0  0  0  0  0  0
  -26.8756    1.1325   28.9134 C   0  0  0  0  0  0  0  0  0  0  0  0
  -25.6883    1.9515   28.5672 C   0  0  0  0  0  0  0  0  0  0  0  0
  -24.6394    1.2834   27.8753 C   0  0  0  0  0  0  0  0  0  0  0  0
  -24.8068   -0.0513   27.6040 C   0  0  0  0  0  0  0  0  0  0  0  0
  -25.9019   -0.7670   27.9511 C   0  0  0  0  0  0  0  0  0  0  0  0
  -29.0651   -0.4171   28.3436 F   0  0  0  0  0  0  0  0  0  0  0  0
  -28.2631   -0.8466   30.2895 F   0  0  0  0  0  0  0  0  0  0  0  0
  -23.4268    1.9693   27.5073 C   0  0  0  0  0  0  0  0  0  0  0  0
  -23.2879    2.6916   26.6461 O   0  0  0  0  0  0  0  0  0  0  0  0
  -22.2782    1.5552   28.2171 O   0  0  0  0  0  0  0  0  0  0  0  0
  -25.5453    3.3674   28.9265 C   0  0  0  0  0  0  0  0  0  0  0  0
  -26.4435    4.2611   28.2694 C   0  0  0  0  0  0  0  0  0  0  0  0
  -27.4353    4.7560   28.9753 C   0  0  0  0  0  0  0  0  0  0  0  0
  -28.4970    5.3583   28.3652 C   0  0  0  0  0  0  0  0  0  0  0  0
  -28.3706    5.6463   26.9671 C   0  0  0  0  0  0  0  0  0  0  0  0
  -27.3057    5.1286   26.2365 C   0  0  0  0  0  0  0  0  0  0  0  0
  -26.3228    4.4126   26.8610 C   0  0  0  0  0  0  0  0  0  0  0  0
  -27.5785    4.5287   30.4385 C   0  0  0  0  0  0  0  0  0  0  0  0
  -28.3053    3.6431   30.8267 O   0  0  0  0  0  0  0  0  0  0  0  0
  -26.8294    5.1834   31.2459 O   0  0  0  0  0  0  0  0  0  0  0  0
  1  8  1  0
  1  9  1  0
  5 10  1  0
 10 11  2  0
 10 12  1  0
  4 13  1  0
 13 14  1  0
 15 20  1  0
 20 21  1  0
 20 22  2  0
  1  2  1  0
  2  3  2  0
  3  4  1  0
  4  5  2  0
  5  6  1  0
  6  7  2  0
  7  2  1  0
 14 15  2  0
 15 16  1  0
 16 17  2  0
 17 18  1  0
 18 19  2  0
 19 14  1  0
M  END

$$$$
