No_2732-gen_results/8p0m/2024-11-26-14-13-15/
     RDKit          3D

 17 17  0  0  0  0  0  0  0  0999 V2000
  -28.1229   -1.3353   28.4874 O   0  0  0  0  0  0  0  0  0  0  0  0
  -27.4806   -0.4044   28.7094 C   0  0  0  0  0  0  0  0  0  0  0  0
  -26.3804   -0.0867   27.9394 C   0  0  0  0  0  0  0  0  0  0  0  0
  -27.8993    0.6459   29.6320 N   0  0  0  0  0  0  0  0  0  0  0  0
  -26.3190    0.9178   27.1016 C   0  0  0  0  0  0  0  0  0  0  0  0
  -25.2038    1.1966   26.2779 C   0  0  0  0  0  0  0  0  0  0  0  0
  -23.9447    0.6962   26.7050 C   0  0  0  0  0  0  0  0  0  0  0  0
  -23.9368   -0.1735   27.7893 C   0  0  0  0  0  0  0  0  0  0  0  0
  -25.0682   -0.5827   28.4384 C   0  0  0  0  0  0  0  0  0  0  0  0
  -29.0704    0.3916   30.4174 C   0  0  0  0  0  0  0  0  0  0  0  0
  -27.1197    1.7571   29.9094 C   0  0  0  0  0  0  0  0  0  0  0  0
  -27.2409    2.7380   30.1176 C   0  0  0  0  0  0  0  0  0  0  0  0
  -27.0138    3.7395   30.1495 C   0  0  0  0  0  0  0  0  0  0  0  0
  -27.7792    4.9912   30.4662 C   0  0  0  0  0  0  0  0  0  0  0  0
  -27.2707    6.3014   30.4581 C   0  0  0  0  0  0  0  0  0  0  0  0
  -25.9284    6.4673   30.0741 C   0  0  0  0  0  0  0  0  0  0  0  0
  -25.1791    5.4303   29.5940 C   0  0  0  0  0  0  0  0  0  0  0  0
  1  2  2  0
  2  3  1  0
  2  4  1  0
  4 10  1  0
  4 11  1  0
 11 12  2  3
 12 13  1  0
 13 14  2  3
 14 15  1  0
 15 16  2  3
 16 17  1  0
  3  5  2  0
  5  6  1  0
  6  7  2  0
  7  8  1  0
  8  9  2  0
  9  3  1  0
M  END

$$$$
