No_2311-gen_results/8p0m/2024-11-26-14-13-15/
     RDKit          3D

 13 13  0  0  0  0  0  0  0  0999 V2000
  -28.0162   -0.8135   28.8779 C   0  0  0  0  0  0  0  0  0  0  0  0
  -27.0636   -0.1189   28.6079 C   0  0  0  0  0  0  0  0  0  0  0  0
  -27.0010    0.6913   27.4910 C   0  0  0  0  0  0  0  0  0  0  0  0
  -28.1373    0.7363   26.6350 C   0  0  0  0  0  0  0  0  0  0  0  0
  -29.2360    0.0765   27.0690 C   0  0  0  0  0  0  0  0  0  0  0  0
  -29.2177   -0.6429   28.1747 C   0  0  0  0  0  0  0  0  0  0  0  0
  -27.7872   -1.5838   30.0230 O   0  0  0  0  0  0  0  0  0  0  0  0
  -30.3614    0.1487   26.2617 N   0  0  0  0  0  0  0  0  0  0  0  0
  -30.3426    0.1920   24.9276 C   0  0  0  0  0  0  0  0  0  0  0  0
  -31.6603   -0.0476   26.8338 C   0  0  0  0  0  0  0  0  0  0  0  0
  -26.6758   -2.3094   30.0239 C   0  0  0  0  0  0  0  0  0  0  0  0
  -26.4265   -3.4686   30.2089 C   0  0  0  0  0  0  0  0  0  0  0  0
  -27.6787   -4.3100   30.1469 C   0  0  0  0  0  0  0  0  0  0  0  0
  1  7  1  0
  5  8  1  0
  8  9  1  0
  8 10  1  0
  7 11  1  0
 11 12  2  3
 12 13  1  0
  1  2  2  0
  2  3  1  0
  3  4  2  0
  4  5  1  0
  5  6  2  0
  6  1  1  0
M  END

$$$$
