No_215-gen_results/8p0m/2024-11-26-14-13-15/
     RDKit          3D

 16 17  0  0  0  0  0  0  0  0999 V2000
  -28.0162   -0.8135   28.8779 C   0  0  0  0  0  0  0  0  0  0  0  0
  -28.4690   -0.7850   29.8287 C   0  0  0  0  0  0  0  0  0  0  0  0
  -28.1960    0.3478   28.0550 C   0  0  0  0  0  0  0  0  0  0  0  0
  -29.0191    1.3501   28.3782 C   0  0  0  0  0  0  0  0  0  0  0  0
  -29.6249    1.2683   29.6012 C   0  0  0  0  0  0  0  0  0  0  0  0
  -29.3821    0.1816   30.4004 C   0  0  0  0  0  0  0  0  0  0  0  0
  -27.5477    0.3344   26.8406 F   0  0  0  0  0  0  0  0  0  0  0  0
  -29.1902    2.4697   27.4864 C   0  0  0  0  0  0  0  0  0  0  0  0
  -29.8548    2.4329   26.3349 C   0  0  0  0  0  0  0  0  0  0  0  0
  -28.5389    3.7430   27.8594 C   0  0  0  0  0  0  0  0  0  0  0  0
  -27.6141    3.8603   28.8878 C   0  0  0  0  0  0  0  0  0  0  0  0
  -26.8092    4.9482   28.9608 C   0  0  0  0  0  0  0  0  0  0  0  0
  -25.6525    5.0552   29.9268 C   0  0  0  0  0  0  0  0  0  0  0  0
  -25.4781    3.9037   30.6968 C   0  0  0  0  0  0  0  0  0  0  0  0
  -26.1917    2.7749   30.5899 C   0  0  0  0  0  0  0  0  0  0  0  0
  -27.2023    2.7643   29.6630 C   0  0  0  0  0  0  0  0  0  0  0  0
  3  7  1  0
  4  8  1  0
  8  9  1  0
  8 10  1  0
 10 11  1  0
 11 12  2  0
 12 13  1  0
 13 14  2  0
 14 15  1  0
 15 16  2  0
 16 11  1  0
  1  2  2  0
  2  6  1  0
  6  5  2  0
  5  4  1  0
  4  3  2  0
  3  1  1  0
M  END

$$$$
