No_2492-gen_results/8p0m/2024-11-26-14-13-15/
     RDKit          3D

 23 26  0  0  0  0  0  0  0  0999 V2000
  -28.0162   -0.8135   28.8779 C   0  0  0  0  0  0  0  0  0  0  0  0
  -28.4690   -0.7850   29.8287 C   0  0  0  0  0  0  0  0  0  0  0  0
  -27.0871    0.2903   28.6377 C   0  0  0  0  0  0  0  0  0  0  0  0
  -26.2516    0.4114   27.4223 C   0  0  0  0  0  0  0  0  0  0  0  0
  -28.3913    0.1041   30.9805 C   0  0  0  0  0  0  0  0  0  0  0  0
  -27.5332    1.1666   30.7866 C   0  0  0  0  0  0  0  0  0  0  0  0
  -26.8281    1.2557   29.6454 C   0  0  0  0  0  0  0  0  0  0  0  0
  -25.6445    1.6653   27.2216 C   0  0  0  0  0  0  0  0  0  0  0  0
  -25.4280    2.5904   28.2367 C   0  0  0  0  0  0  0  0  0  0  0  0
  -26.1083    2.4673   29.4212 C   0  0  0  0  0  0  0  0  0  0  0  0
  -25.8864    3.5250   30.4298 C   0  0  0  0  0  0  0  0  0  0  0  0
  -26.9043    3.7139   31.1609 O   0  0  0  0  0  0  0  0  0  0  0  0
  -24.7748    3.9957   30.6635 O   0  0  0  0  0  0  0  0  0  0  0  0
  -24.5720    3.6279   27.8937 O   0  0  0  0  0  0  0  0  0  0  0  0
  -26.6946    4.6669   32.1780 C   0  0  0  0  0  0  0  0  0  0  0  0
  -27.0026    4.2671   33.4660 C   0  0  0  0  0  0  0  0  0  0  0  0
  -27.4077    3.0839   33.6114 C   0  0  0  0  0  0  0  0  0  0  0  0
  -27.2990    2.5309   34.9876 C   0  0  0  0  0  0  0  0  0  0  0  0
  -27.5812    1.1156   35.2127 C   0  0  0  0  0  0  0  0  0  0  0  0
  -27.6684    0.3699   34.1465 C   0  0  0  0  0  0  0  0  0  0  0  0
  -27.5951    0.7833   32.8614 C   0  0  0  0  0  0  0  0  0  0  0  0
  -27.2937    2.1665   32.7933 C   0  0  0  0  0  0  0  0  0  0  0  0
  -27.2049    1.9604   31.8214 N   0  0  0  0  0  0  0  0  0  0  0  0
  3  4  1  0
  8  9  1  0
  7 10  1  0
  9 10  1  0
 10 11  1  0
 11 12  1  0
 11 13  2  0
  9 14  2  0
 12 15  1  0
 15 16  1  0
 16 17  1  0
  6 23  1  0
 22 23  1  0
  8  4  1  0
 17 18  2  0
 18 19  1  0
 19 20  2  0
 20 21  1  0
 21 22  2  0
 22 17  1  0
  1  2  2  0
  2  5  1  0
  5  6  2  0
  6  7  1  0
  7  3  2  0
  3  1  1  0
M  END

$$$$
