No_2620-gen_results/8p0m/2024-11-26-14-13-15/
     RDKit          3D

 14 15  0  0  0  0  0  0  0  0999 V2000
  -28.0162   -0.8135   28.8779 C   0  0  0  0  0  0  0  0  0  0  0  0
  -27.0636   -0.1189   28.6079 C   0  0  0  0  0  0  0  0  0  0  0  0
  -27.0010    0.6913   27.4910 C   0  0  0  0  0  0  0  0  0  0  0  0
  -25.8548    1.4825   27.0830 C   0  0  0  0  0  0  0  0  0  0  0  0
  -24.6901    1.4526   27.8807 C   0  0  0  0  0  0  0  0  0  0  0  0
  -24.7379    0.6010   29.0416 C   0  0  0  0  0  0  0  0  0  0  0  0
  -25.8234   -0.1688   29.3887 C   0  0  0  0  0  0  0  0  0  0  0  0
  -27.9524   -1.6294   30.0643 N   0  0  0  0  0  0  0  0  0  0  0  0
  -29.0363   -2.3695   30.4865 C   0  0  0  0  0  0  0  0  0  0  0  0
  -28.7283   -3.6343   31.2330 C   0  0  0  0  0  0  0  0  0  0  0  0
  -29.6630   -4.0177   32.0688 C   0  0  0  0  0  0  0  0  0  0  0  0
  -30.9409   -3.4345   32.1535 C   0  0  0  0  0  0  0  0  0  0  0  0
  -31.1744   -2.2455   31.5311 C   0  0  0  0  0  0  0  0  0  0  0  0
  -30.1195   -1.6374   30.7852 C   0  0  0  0  0  0  0  0  0  0  0  0
  1  2  1  0
  1  8  1  0
  8  9  1  0
  2  3  2  0
  3  4  1  0
  4  5  2  0
  5  6  1  0
  6  7  2  0
  7  2  1  0
  9 10  2  0
 10 11  1  0
 11 12  2  0
 12 13  1  0
 13 14  2  0
 14  9  1  0
M  END

$$$$
