No_2552-gen_results/8p0m/2024-11-26-14-13-15/
     RDKit          3D

 35 35  0  0  0  0  0  0  0  0999 V2000
  -28.0162   -0.8135   28.8779 C   0  0  0  0  0  0  0  0  0  0  0  0
  -27.0636   -0.1190   28.6079 C   0  0  0  0  0  0  0  0  0  0  0  0
  -26.9716    0.7139   27.5060 C   0  0  0  0  0  0  0  0  0  0  0  0
  -28.1053    0.7744   26.6421 C   0  0  0  0  0  0  0  0  0  0  0  0
  -29.2008    0.1044   27.0527 C   0  0  0  0  0  0  0  0  0  0  0  0
  -29.2096   -0.6029   28.1853 C   0  0  0  0  0  0  0  0  0  0  0  0
  -30.2828    0.2138   26.2960 F   0  0  0  0  0  0  0  0  0  0  0  0
  -25.7134   -0.2153   29.4104 C   0  0  0  0  0  0  0  0  0  0  0  0
  -25.5027   -0.5527   30.4185 N   0  0  0  0  0  0  0  0  0  0  0  0
  -24.5742   -0.1493   28.6426 O   0  0  0  0  0  0  0  0  0  0  0  0
  -24.2834   -0.6777   31.1773 C   0  0  0  0  0  0  0  0  0  0  0  0
  -23.4668    0.4181   31.1381 C   0  0  0  0  0  0  0  0  0  0  0  0
  -24.1338    1.7115   31.2620 C   0  0  0  0  0  0  0  0  0  0  0  0
  -24.3281    1.9981   32.4558 F   0  0  0  0  0  0  0  0  0  0  0  0
  -25.3122    1.7940   30.5590 F   0  0  0  0  0  0  0  0  0  0  0  0
  -23.2826    2.6963   30.7100 F   0  0  0  0  0  0  0  0  0  0  0  0
  -28.0123    1.6350   25.4588 C   0  0  0  0  0  0  0  0  0  0  0  0
  -27.1603    1.2140   24.5753 F   0  0  0  0  0  0  0  0  0  0  0  0
  -27.6696    2.9059   25.7146 F   0  0  0  0  0  0  0  0  0  0  0  0
  -29.2189    1.6920   24.8083 F   0  0  0  0  0  0  0  0  0  0  0  0
  -30.2979   -1.2922   28.5342 O   0  0  0  0  0  0  0  0  0  0  0  0
  -31.4734   -0.6971   28.7893 C   0  0  0  0  0  0  0  0  0  0  0  0
  -32.0340   -1.3300   29.8963 C   0  0  0  0  0  0  0  0  0  0  0  0
  -33.2037   -1.1031   30.5083 Br  0  0  0  0  0  0  0  0  0  0  0  0
  -31.1886   -2.3434   30.4304 N   0  0  0  0  0  0  0  0  0  0  0  0
  -31.6020   -3.1300   31.5666 C   0  0  0  0  0  0  0  0  0  0  0  0
  -31.1723   -4.3493   31.3493 C   0  0  0  0  0  0  0  0  0  0  0  0
  -29.9823   -4.6197   30.6686 C   0  0  0  0  0  0  0  0  0  0  0  0
  -28.7804   -4.4275   31.2882 C   0  0  0  0  0  0  0  0  0  0  0  0
  -27.5521   -4.4676   30.4582 C   0  0  0  0  0  0  0  0  0  0  0  0
  -27.1968   -3.4022   29.6715 C   0  0  0  0  0  0  0  0  0  0  0  0
  -25.9165   -3.5007   29.0438 C   0  0  0  0  0  0  0  0  0  0  0  0
  -25.1179   -4.3853   29.3022 C   0  0  0  0  0  0  0  0  0  0  0  0
  -23.8086   -4.3709   28.6016 C   0  0  0  0  0  0  0  0  0  0  0  0
  -25.5449   -5.6328   29.8946 C   0  0  0  0  0  0  0  0  0  0  0  0
  5  7  1  0
  2  8  1  0
  8  9  1  0
  8 10  2  0
  9 11  1  0
 11 12  1  0
 12 13  1  0
 13 14  1  0
 13 15  1  0
 13 16  1  0
  4 17  1  0
 17 18  1  0
 17 19  1  0
 17 20  1  0
  6 21  1  0
 21 22  1  0
 22 23  1  0
 23 24  1  0
 23 25  2  3
 25 26  1  0
 26 27  1  0
 27 28  1  0
 28 29  2  3
 29 30  1  0
 30 31  2  3
 31 32  1  0
 32 33  2  3
 33 34  1  0
 33 35  1  0
  1  2  2  0
  2  3  1  0
  3  4  2  0
  4  5  1  0
  5  6  2  0
  6  1  1  0
M  END

$$$$
