No_2921-gen_results/8p0m/2024-11-26-14-13-15/
     RDKit          3D

 35 38  0  0  0  0  0  0  0  0999 V2000
  -28.0162   -0.8135   28.8779 C   0  0  0  0  0  0  0  0  0  0  0  0
  -28.4690   -0.7850   29.8287 C   0  0  0  0  0  0  0  0  0  0  0  0
  -28.1816    0.4277   28.1134 C   0  0  0  0  0  0  0  0  0  0  0  0
  -28.9841    1.4155   28.5154 C   0  0  0  0  0  0  0  0  0  0  0  0
  -29.3802    0.1384   30.4612 C   0  0  0  0  0  0  0  0  0  0  0  0
  -29.5415    1.2736   29.7242 C   0  0  0  0  0  0  0  0  0  0  0  0
  -27.4586    0.4934   26.7701 C   0  0  0  0  0  0  0  0  0  0  0  0
  -26.1290    0.3456   26.7317 N   0  0  0  0  0  0  0  0  0  0  0  0
  -25.4038   -0.0103   27.7776 C   0  0  0  0  0  0  0  0  0  0  0  0
  -24.0267    0.4819   27.8585 C   0  0  0  0  0  0  0  0  0  0  0  0
  -23.5890    1.2842   26.7965 C   0  0  0  0  0  0  0  0  0  0  0  0
  -24.4130    1.6104   25.7392 C   0  0  0  0  0  0  0  0  0  0  0  0
  -25.5270    0.9656   25.5771 C   0  0  0  0  0  0  0  0  0  0  0  0
  -28.1923    0.4200   25.7779 O   0  0  0  0  0  0  0  0  0  0  0  0
  -22.3570    1.8455   26.9807 F   0  0  0  0  0  0  0  0  0  0  0  0
  -28.2766   -2.1036   30.7787 C   0  0  0  0  0  0  0  0  0  0  0  0
  -27.2333   -2.2915   31.2039 O   0  0  0  0  0  0  0  0  0  0  0  0
  -29.3003   -2.8655   30.9187 O   0  0  0  0  0  0  0  0  0  0  0  0
  -30.4890    2.3579   30.2571 C   0  0  0  0  0  0  0  0  0  0  0  0
  -31.2289    2.9592   29.6552 C   0  0  0  0  0  0  0  0  0  0  0  0
  -32.0852    4.0370   30.1757 C   0  0  0  0  0  0  0  0  0  0  0  0
  -32.0263    4.2647   31.5483 C   0  0  0  0  0  0  0  0  0  0  0  0
  -31.1673    3.5220   32.3162 C   0  0  0  0  0  0  0  0  0  0  0  0
  -30.3567    2.5724   31.7629 C   0  0  0  0  0  0  0  0  0  0  0  0
  -32.8848    5.3207   32.1359 C   0  0  0  0  0  0  0  0  0  0  0  0
  -32.5005    5.8903   33.0768 O   0  0  0  0  0  0  0  0  0  0  0  0
  -33.9244    5.7379   31.3366 N   0  0  0  0  0  0  0  0  0  0  0  0
  -34.7980    6.7557   31.8556 C   0  0  0  0  0  0  0  0  0  0  0  0
  -35.7734    7.0603   31.1522 C   0  0  0  0  0  0  0  0  0  0  0  0
  -36.7265    8.0596   31.5918 C   0  0  0  0  0  0  0  0  0  0  0  0
  -36.4992    8.6868   32.8683 C   0  0  0  0  0  0  0  0  0  0  0  0
  -35.3784    8.2679   33.5810 C   0  0  0  0  0  0  0  0  0  0  0  0
  -34.5276    7.3432   33.1397 C   0  0  0  0  0  0  0  0  0  0  0  0
  -37.6030    9.8458   33.3880 Cl  0  0  0  0  0  0  0  0  0  0  0  0
  -35.1405    8.9128   34.9267 C   0  0  0  0  0  0  0  0  0  0  0  0
  3  7  1  0
  7  8  1  0
  8  9  1  0
 10 11  1  0
  8 13  1  0
 12 13  1  0
  7 14  2  0
 11 15  1  0
  2 16  1  0
 16 17  2  0
 16 18  1  0
  6 19  1  0
 22 25  1  0
 25 26  2  0
 25 27  1  0
 27 28  1  0
 31 34  1  0
 32 35  1  0
  9 10  1  0
 11 12  1  0
 28 29  2  0
 29 30  1  0
 30 31  2  0
 31 32  1  0
 32 33  2  0
 33 28  1  0
  1  2  2  0
  2  5  1  0
  5  6  2  0
  6  4  1  0
  4  3  2  0
  3  1  1  0
 19 20  2  0
 20 21  1  0
 21 22  2  0
 22 23  1  0
 23 24  2  0
 24 19  1  0
M  END

$$$$
