No_2691-gen_results/8p0m/2024-11-26-14-13-15/
     RDKit          3D

 11 11  0  0  0  0  0  0  0  0999 V2000
  -28.1229   -1.3353   28.4874 O   0  0  0  0  0  0  0  0  0  0  0  0
  -27.4806   -0.4044   28.7094 C   0  0  0  0  0  0  0  0  0  0  0  0
  -27.1904    0.2460   29.5268 C   0  0  0  0  0  0  0  0  0  0  0  0
  -26.6021   -0.1576   27.5515 N   0  0  0  0  0  0  0  0  0  0  0  0
  -25.6421    0.9031   27.5822 C   0  0  0  0  0  0  0  0  0  0  0  0
  -24.6412    1.0988   26.6164 C   0  0  0  0  0  0  0  0  0  0  0  0
  -25.6501    1.8847   28.6196 C   0  0  0  0  0  0  0  0  0  0  0  0
  -26.5030    1.0210   29.8902 N   0  0  0  0  0  0  0  0  0  0  0  0
  -23.7887    1.8052   26.5490 C   0  0  0  0  0  0  0  0  0  0  0  0
  -22.7887    1.9582   25.5311 C   0  0  0  0  0  0  0  0  0  0  0  0
  -28.0796   -0.1859   30.8944 C   0  0  0  0  0  0  0  0  0  0  0  0
  1  2  2  0
  2  3  1  0
  2  4  1  0
  4  5  1  0
  5  6  1  0
  5  7  1  0
  3  8  1  0
  7  8  1  0
  6  9  2  3
  9 10  1  0
  3 11  1  0
M  END

$$$$
