No_2225-gen_results/8p0m/2024-11-26-14-13-15/
     RDKit          3D

 16 17  0  0  0  0  0  0  0  0999 V2000
  -28.0162   -0.8135   28.8779 C   0  0  0  0  0  0  0  0  0  0  0  0
  -27.0636   -0.1189   28.6079 C   0  0  0  0  0  0  0  0  0  0  0  0
  -26.9716    0.7139   27.5060 C   0  0  0  0  0  0  0  0  0  0  0  0
  -28.1053    0.7744   26.6421 C   0  0  0  0  0  0  0  0  0  0  0  0
  -29.2008    0.1044   27.0527 C   0  0  0  0  0  0  0  0  0  0  0  0
  -29.2096   -0.6029   28.1853 C   0  0  0  0  0  0  0  0  0  0  0  0
  -30.2850    0.2735   26.0122 C   0  0  0  0  0  0  0  0  0  0  0  0
  -30.8999    1.1870   26.0682 F   0  0  0  0  0  0  0  0  0  0  0  0
  -31.1473   -0.7945   26.2513 F   0  0  0  0  0  0  0  0  0  0  0  0
  -29.8647   -0.0285   24.7585 F   0  0  0  0  0  0  0  0  0  0  0  0
  -25.6678    1.4108   27.1386 C   0  0  0  0  0  0  0  0  0  0  0  0
  -24.5489    1.0216   27.7517 C   0  0  0  0  0  0  0  0  0  0  0  0
  -23.2961    1.7793   27.4134 C   0  0  0  0  0  0  0  0  0  0  0  0
  -23.3666    2.6524   26.3044 C   0  0  0  0  0  0  0  0  0  0  0  0
  -25.5357    2.3717   26.1169 C   0  0  0  0  0  0  0  0  0  0  0  0
  -24.4876    3.0460   25.7650 C   0  0  0  0  0  0  0  0  0  0  0  0
  5  7  1  0
  7  8  1  0
  7  9  1  0
  7 10  1  0
  3 11  1  0
  1  2  2  0
  2  3  1  0
  3  4  2  0
  4  5  1  0
  5  6  2  0
  6  1  1  0
 11 12  2  0
 12 13  1  0
 13 14  2  0
 14 16  1  0
 16 15  2  0
 15 11  1  0
M  END

$$$$
