No_2214-gen_results/8p0m/2024-11-26-14-13-15/
     RDKit          3D

 17 18  0  0  0  0  0  0  0  0999 V2000
  -28.0162   -0.8135   28.8779 C   0  0  0  0  0  0  0  0  0  0  0  0
  -27.0636   -0.1189   28.6079 C   0  0  0  0  0  0  0  0  0  0  0  0
  -26.8756    1.1325   28.9134 C   0  0  0  0  0  0  0  0  0  0  0  0
  -25.6883    1.9515   28.5672 C   0  0  0  0  0  0  0  0  0  0  0  0
  -25.5093    3.3042   28.8859 C   0  0  0  0  0  0  0  0  0  0  0  0
  -29.0972   -0.2347   29.6994 C   0  0  0  0  0  0  0  0  0  0  0  0
  -29.0303    1.0730   30.0324 C   0  0  0  0  0  0  0  0  0  0  0  0
  -27.8550    1.8594   29.6796 C   0  0  0  0  0  0  0  0  0  0  0  0
  -24.3739    1.2751   28.8644 C   0  0  0  0  0  0  0  0  0  0  0  0
  -23.9643    0.9865   30.1209 C   0  0  0  0  0  0  0  0  0  0  0  0
  -23.5228    0.9079   27.7669 C   0  0  0  0  0  0  0  0  0  0  0  0
  -23.5613    1.5542   26.5451 C   0  0  0  0  0  0  0  0  0  0  0  0
  -25.8064    2.0855   26.8977 C   0  0  0  0  0  0  0  0  0  0  0  0
  -26.8974    2.7893   26.5149 C   0  0  0  0  0  0  0  0  0  0  0  0
  -24.7893    1.7405   26.0547 C   0  0  0  0  0  0  0  0  0  0  0  0
  -24.2879    0.3024   30.8261 O   0  0  0  0  0  0  0  0  0  0  0  0
  -22.8691    1.8914   30.4942 O   0  0  0  0  0  0  0  0  0  0  0  0
  3  4  1  0
  4  5  1  0
  4  9  1  0
  9 10  1  0
  9 11  1  0
 11 12  1  0
  4 13  1  0
 13 14  1  0
 12 15  1  0
 13 15  1  0
 10 16  2  0
 10 17  1  0
  1  2  2  0
  2  3  1  0
  3  8  2  0
  8  7  1  0
  7  6  2  0
  6  1  1  0
M  END

$$$$
