No_2207-gen_results/8p0m/2024-11-26-14-13-15/
     RDKit          3D

 12 12  0  0  0  0  0  0  0  0999 V2000
  -28.1229   -1.3353   28.4874 O   0  0  0  0  0  0  0  0  0  0  0  0
  -28.5208   -0.4363   29.0779 C   0  0  0  0  0  0  0  0  0  0  0  0
  -28.5894    0.5916   28.9464 C   0  0  0  0  0  0  0  0  0  0  0  0
  -29.3752   -0.9434   30.2659 N   0  0  0  0  0  0  0  0  0  0  0  0
  -27.5822    1.2649   28.1478 C   0  0  0  0  0  0  0  0  0  0  0  0
  -26.2743    1.0474   28.5730 C   0  0  0  0  0  0  0  0  0  0  0  0
  -25.3998    1.7138   28.7990 C   0  0  0  0  0  0  0  0  0  0  0  0
  -23.9306    1.3450   29.0023 C   0  0  0  0  0  0  0  0  0  0  0  0
  -23.7006   -0.0363   28.9441 C   0  0  0  0  0  0  0  0  0  0  0  0
  -24.6865   -0.9311   28.6587 C   0  0  0  0  0  0  0  0  0  0  0  0
  -25.9132   -0.4503   28.4015 C   0  0  0  0  0  0  0  0  0  0  0  0
  -29.4806   -2.3521   30.5950 C   0  0  0  0  0  0  0  0  0  0  0  0
  1  2  2  0
  2  3  1  0
  2  4  1  0
  3  5  1  0
  5  6  1  0
  4 12  1  0
  6  7  2  0
  7  8  1  0
  8  9  2  0
  9 10  1  0
 10 11  2  0
 11  6  1  0
M  END

$$$$
