No_2455-gen_results/8p0m/2024-11-26-14-13-15/
     RDKit          3D

 19 21  0  0  0  0  0  0  0  0999 V2000
  -28.0162   -0.8135   28.8779 C   0  0  0  0  0  0  0  0  0  0  0  0
  -28.4690   -0.7850   29.8287 C   0  0  0  0  0  0  0  0  0  0  0  0
  -28.1816    0.4277   28.1134 C   0  0  0  0  0  0  0  0  0  0  0  0
  -27.4498    0.6435   26.8500 C   0  0  0  0  0  0  0  0  0  0  0  0
  -26.1815    0.0357   26.7145 C   0  0  0  0  0  0  0  0  0  0  0  0
  -25.7800   -0.9326   27.6938 C   0  0  0  0  0  0  0  0  0  0  0  0
  -26.5568   -1.2134   28.7413 C   0  0  0  0  0  0  0  0  0  0  0  0
  -29.6101   -0.2783   30.1938 N   0  0  0  0  0  0  0  0  0  0  0  0
  -28.2441   -1.9032   30.7503 O   0  0  0  0  0  0  0  0  0  0  0  0
  -30.4027   -0.3937   31.1217 C   0  0  0  0  0  0  0  0  0  0  0  0
  -25.3711    0.2807   25.6983 F   0  0  0  0  0  0  0  0  0  0  0  0
  -31.5539    0.2714   31.1792 C   0  0  0  0  0  0  0  0  0  0  0  0
  -32.5011    0.1853   32.1779 C   0  0  0  0  0  0  0  0  0  0  0  0
  -32.1881   -0.7216   33.2621 C   0  0  0  0  0  0  0  0  0  0  0  0
  -31.0374   -1.4526   33.2538 C   0  0  0  0  0  0  0  0  0  0  0  0
  -30.1230   -1.3150   32.2595 C   0  0  0  0  0  0  0  0  0  0  0  0
  -29.9536    0.9069   29.4212 C   0  0  0  0  0  0  0  0  0  0  0  0
  -29.2553    1.0710   28.1323 C   0  0  0  0  0  0  0  0  0  0  0  0
  -31.1132    1.5128   29.5746 O   0  0  0  0  0  0  0  0  0  0  0  0
  1  2  1  0
  2  8  1  0
  2  9  2  0
  8 10  1  0
  5 11  1  0
  8 17  1  0
  3 18  1  0
 17 18  1  0
 17 19  2  0
  1  7  2  0
  7  6  1  0
  6  5  2  0
  5  4  1  0
  4  3  2  0
  3  1  1  0
 10 12  2  0
 12 13  1  0
 13 14  2  0
 14 15  1  0
 15 16  2  0
 16 10  1  0
M  END

$$$$
