No_2444-gen_results/8p0m/2024-11-26-14-13-15/
     RDKit          3D

 10  9  0  0  0  0  0  0  0  0999 V2000
  -28.0162   -0.8135   28.8779 C   0  0  0  0  0  0  0  0  0  0  0  0
  -28.4690   -0.7850   29.8287 C   0  0  0  0  0  0  0  0  0  0  0  0
  -26.5042   -0.7777   28.8766 C   0  0  0  0  0  0  0  0  0  0  0  0
  -25.7622   -0.0022   27.9705 C   0  0  0  0  0  0  0  0  0  0  0  0
  -24.3914    0.1198   28.1381 C   0  0  0  0  0  0  0  0  0  0  0  0
  -23.5447    1.0260   27.3824 C   0  0  0  0  0  0  0  0  0  0  0  0
  -22.2254    1.3236   27.7840 C   0  0  0  0  0  0  0  0  0  0  0  0
  -21.5761    0.4572   28.6807 C   0  0  0  0  0  0  0  0  0  0  0  0
  -22.3236   -0.5619   29.3159 C   0  0  0  0  0  0  0  0  0  0  0  0
  -23.6595   -0.6732   29.0841 C   0  0  0  0  0  0  0  0  0  0  0  0
  1  2  1  0
  1  3  1  0
  3  4  1  0
  4  5  2  3
  5  6  1  0
  6  7  1  0
  7  8  2  3
  8  9  1  0
  9 10  2  0
M  END

$$$$
