No_2979-gen_results/8p0m/2024-11-26-14-13-15/
     RDKit          3D

 35 39  0  0  0  0  0  0  0  0999 V2000
  -28.0162   -0.8135   28.8779 C   0  0  0  0  0  0  0  0  0  0  0  0
  -28.4690   -0.7850   29.8287 C   0  0  0  0  0  0  0  0  0  0  0  0
  -26.5042   -0.7777   28.8766 C   0  0  0  0  0  0  0  0  0  0  0  0
  -25.6540   -0.6597   27.7191 C   0  0  0  0  0  0  0  0  0  0  0  0
  -27.9180   -0.9374   31.1824 C   0  0  0  0  0  0  0  0  0  0  0  0
  -26.5423   -0.9399   31.2606 C   0  0  0  0  0  0  0  0  0  0  0  0
  -25.7832   -0.8935   30.1201 C   0  0  0  0  0  0  0  0  0  0  0  0
  -25.9259    0.2819   26.7445 C   0  0  0  0  0  0  0  0  0  0  0  0
  -25.6258    1.4719   26.8191 C   0  0  0  0  0  0  0  0  0  0  0  0
  -24.8156    1.9657   27.9646 C   0  0  0  0  0  0  0  0  0  0  0  0
  -23.8330    1.4118   28.3656 C   0  0  0  0  0  0  0  0  0  0  0  0
  -23.5099    0.0237   28.1517 C   0  0  0  0  0  0  0  0  0  0  0  0
  -24.3691   -1.0155   27.9863 C   0  0  0  0  0  0  0  0  0  0  0  0
  -25.6511    2.7754   28.8434 C   0  0  0  0  0  0  0  0  0  0  0  0
  -25.7588    4.0185   28.4009 O   0  0  0  0  0  0  0  0  0  0  0  0
  -25.7495    2.6133   30.1364 O   0  0  0  0  0  0  0  0  0  0  0  0
  -30.0648   -0.7285   29.9044 C   0  0  0  0  0  0  0  0  0  0  0  0
  -30.6280   -1.7199   30.1221 O   0  0  0  0  0  0  0  0  0  0  0  0
  -30.6604    0.4305   29.5535 N   0  0  0  0  0  0  0  0  0  0  0  0
  -32.0871    0.5272   29.4447 C   0  0  0  0  0  0  0  0  0  0  0  0
  -29.9256    1.7150   29.3139 C   0  0  0  0  0  0  0  0  0  0  0  0
  -29.8155    2.1116   28.0222 C   0  0  0  0  0  0  0  0  0  0  0  0
  -30.0032    1.6498   27.0098 C   0  0  0  0  0  0  0  0  0  0  0  0
  -29.7474    2.2370   25.7167 C   0  0  0  0  0  0  0  0  0  0  0  0
  -29.2472    3.5592   25.7130 C   0  0  0  0  0  0  0  0  0  0  0  0
  -29.0283    4.2426   26.9104 C   0  0  0  0  0  0  0  0  0  0  0  0
  -29.2510    3.6054   28.0606 C   0  0  0  0  0  0  0  0  0  0  0  0
  -32.5725    1.7388   29.8049 C   0  0  0  0  0  0  0  0  0  0  0  0
  -33.5625    2.1436   29.8914 C   0  0  0  0  0  0  0  0  0  0  0  0
  -34.0364    3.4931   30.3349 C   0  0  0  0  0  0  0  0  0  0  0  0
  -33.0665    4.4195   30.6376 C   0  0  0  0  0  0  0  0  0  0  0  0
  -31.7501    3.9893   30.5773 C   0  0  0  0  0  0  0  0  0  0  0  0
  -31.4595    2.7576   30.2328 C   0  0  0  0  0  0  0  0  0  0  0  0
  -29.8974    2.2229   30.5310 O   0  0  0  0  0  0  0  0  0  0  0  0
  -30.6704    4.9798   31.0130 C   0  0  0  0  0  0  0  0  0  0  0  0
  3  4  1  0
  4  8  1  0
  8  9  2  0
  9 10  1  0
 10 11  2  0
 11 12  1  0
  4 13  1  0
 12 13  1  0
 10 14  1  0
 14 15  2  0
 14 16  1  0
  2 17  1  0
 17 18  2  0
 17 19  1  0
 19 20  1  0
 19 21  1  0
 21 22  1  0
 20 28  1  0
 21 34  1  0
 33 34  1  0
 32 35  1  0
 28 29  2  0
 29 30  1  0
 30 31  2  0
 31 32  1  0
 32 33  2  0
 33 28  1  0
 22 23  2  0
 23 24  1  0
 24 25  2  0
 25 26  1  0
 26 27  2  0
 27 22  1  0
  1  2  2  0
  2  5  1  0
  5  6  2  0
  6  7  1  0
  7  3  2  0
  3  1  1  0
M  END

$$$$
