No_2820-gen_results/8p0m/2024-11-26-14-13-15/
     RDKit          3D

 20 23  0  0  0  0  0  0  0  0999 V2000
  -28.0162   -0.8135   28.8779 C   0  0  0  0  0  0  0  0  0  0  0  0
  -27.0636   -0.1189   28.6079 C   0  0  0  0  0  0  0  0  0  0  0  0
  -26.9716    0.7139   27.5060 C   0  0  0  0  0  0  0  0  0  0  0  0
  -28.1053    0.7744   26.6421 C   0  0  0  0  0  0  0  0  0  0  0  0
  -29.2008    0.1044   27.0527 C   0  0  0  0  0  0  0  0  0  0  0  0
  -29.2096   -0.6029   28.1853 C   0  0  0  0  0  0  0  0  0  0  0  0
  -30.3749    0.2232   26.1670 C   0  0  0  0  0  0  0  0  0  0  0  0
  -30.9604    1.2364   26.1300 O   0  0  0  0  0  0  0  0  0  0  0  0
  -30.9234   -0.9060   25.8359 O   0  0  0  0  0  0  0  0  0  0  0  0
  -25.7841   -0.2063   29.3818 N   0  0  0  0  0  0  0  0  0  0  0  0
  -25.1305    0.8278   29.9209 C   0  0  0  0  0  0  0  0  0  0  0  0
  -23.8473    0.5664   30.4649 C   0  0  0  0  0  0  0  0  0  0  0  0
  -24.7152   -1.1864   29.1089 C   0  0  0  0  0  0  0  0  0  0  0  0
  -23.5946   -0.8457   29.9681 C   0  0  0  0  0  0  0  0  0  0  0  0
  -25.0347    2.1055   29.0816 C   0  0  0  0  0  0  0  0  0  0  0  0
  -24.3435    2.9732   29.3719 C   0  0  0  0  0  0  0  0  0  0  0  0
  -24.3378    4.1753   28.5016 C   0  0  0  0  0  0  0  0  0  0  0  0
  -25.2920    4.1466   27.4030 C   0  0  0  0  0  0  0  0  0  0  0  0
  -25.9787    3.1277   27.1161 C   0  0  0  0  0  0  0  0  0  0  0  0
  -25.9428    2.0848   27.9610 C   0  0  0  0  0  0  0  0  0  0  0  0
  5  7  1  0
  7  8  1  0
  7  9  2  0
  2 10  1  0
 10 11  1  0
 11 12  2  0
 10 13  1  0
 12 14  1  0
 13 14  2  0
 11 15  1  0
  3 20  1  0
 15 16  2  0
 16 17  1  0
 17 18  2  0
 18 19  1  0
 19 20  2  0
 20 15  1  0
  1  2  2  0
  2  3  1  0
  3  4  2  0
  4  5  1  0
  5  6  2  0
  6  1  1  0
M  END

$$$$
