No_2841-gen_results/8p0m/2024-11-26-14-13-15/
     RDKit          3D

 14 15  0  0  0  0  0  0  0  0999 V2000
  -28.0162   -0.8135   28.8779 C   0  0  0  0  0  0  0  0  0  0  0  0
  -28.4690   -0.7850   29.8287 C   0  0  0  0  0  0  0  0  0  0  0  0
  -27.1356    0.2359   28.5352 C   0  0  0  0  0  0  0  0  0  0  0  0
  -26.3351    0.2900   27.2835 C   0  0  0  0  0  0  0  0  0  0  0  0
  -29.3807   -1.9134   30.3549 C   0  0  0  0  0  0  0  0  0  0  0  0
  -28.2295    0.3010   30.9036 C   0  0  0  0  0  0  0  0  0  0  0  0
  -26.4076   -0.2207   26.3599 C   0  0  0  0  0  0  0  0  0  0  0  0
  -26.1897    0.4108   25.2229 C   0  0  0  0  0  0  0  0  0  0  0  0
  -27.4413    1.3250   30.6461 C   0  0  0  0  0  0  0  0  0  0  0  0
  -26.7753    1.3285   29.4731 C   0  0  0  0  0  0  0  0  0  0  0  0
  -25.3566    1.3058   25.1850 C   0  0  0  0  0  0  0  0  0  0  0  0
  -25.3196    1.4505   26.9517 C   0  0  0  0  0  0  0  0  0  0  0  0
  -29.1201   -2.9079   30.5155 O   0  0  0  0  0  0  0  0  0  0  0  0
  -30.4653   -1.5008   31.0193 O   0  0  0  0  0  0  0  0  0  0  0  0
  3  4  1  0
  2  5  1  0
  4  7  1  0
  7  8  2  0
  8 11  1  0
  4 12  1  0
 11 12  2  0
  5 13  2  0
  5 14  1  0
  1  2  2  0
  2  6  1  0
  6  9  2  0
  9 10  1  0
 10  3  2  0
  3  1  1  0
M  END

$$$$
