No_2720-gen_results/8p0m/2024-11-26-14-13-15/
     RDKit          3D

 22 22  0  0  0  0  0  0  0  0999 V2000
  -28.0162   -0.8135   28.8779 C   0  0  0  0  0  0  0  0  0  0  0  0
  -27.0636   -0.1189   28.6079 C   0  0  0  0  0  0  0  0  0  0  0  0
  -26.8756    1.1325   28.9134 C   0  0  0  0  0  0  0  0  0  0  0  0
  -25.6883    1.9515   28.5672 C   0  0  0  0  0  0  0  0  0  0  0  0
  -24.6394    1.2834   27.8753 C   0  0  0  0  0  0  0  0  0  0  0  0
  -24.8181   -0.0802   27.6166 C   0  0  0  0  0  0  0  0  0  0  0  0
  -25.9311   -0.7717   27.9696 C   0  0  0  0  0  0  0  0  0  0  0  0
  -28.0892   -1.4500   30.2684 C   0  0  0  0  0  0  0  0  0  0  0  0
  -28.8634   -1.5178   30.9525 C   0  0  0  0  0  0  0  0  0  0  0  0
  -28.9254   -2.4256   32.1880 C   0  0  0  0  0  0  0  0  0  0  0  0
  -23.4384    1.9717   27.4636 C   0  0  0  0  0  0  0  0  0  0  0  0
  -22.4909    1.5231   27.4923 F   0  0  0  0  0  0  0  0  0  0  0  0
  -23.7118    2.4952   26.1321 F   0  0  0  0  0  0  0  0  0  0  0  0
  -23.3544    3.2467   28.1852 F   0  0  0  0  0  0  0  0  0  0  0  0
  -26.8932   -1.7278   30.9194 C   0  0  0  0  0  0  0  0  0  0  0  0
  -25.6587   -1.6891   30.1799 N   0  0  0  0  0  0  0  0  0  0  0  0
  -24.5919   -1.2399   30.8935 C   0  0  0  0  0  0  0  0  0  0  0  0
  -24.7079   -0.5129   32.1596 C   0  0  0  0  0  0  0  0  0  0  0  0
  -30.0555   -2.4391   32.9371 N   0  0  0  0  0  0  0  0  0  0  0  0
  -23.2701   -1.3900   30.3482 C   0  0  0  0  0  0  0  0  0  0  0  0
  -22.2622   -0.6407   30.9258 N   0  0  0  0  0  0  0  0  0  0  0  0
  -23.0637   -2.0078   29.2322 N   0  0  0  0  0  0  0  0  0  0  0  0
  1  8  1  0
  8  9  2  3
  9 10  1  0
  5 11  1  0
 11 12  1  0
 11 13  1  0
 11 14  1  0
  8 15  1  0
 15 16  1  0
 16 17  1  0
 17 18  2  0
 10 19  1  0
 17 20  1  0
 20 21  2  0
 20 22  1  0
  1  2  1  0
  2  3  2  0
  3  4  1  0
  4  5  2  0
  5  6  1  0
  6  7  2  0
  7  2  1  0
M  END

$$$$
