No_2619-gen_results/8p0m/2024-11-26-14-13-15/
     RDKit          3D

  8  8  0  0  0  0  0  0  0  0999 V2000
  -28.0162   -0.8135   28.8779 C   0  0  0  0  0  0  0  0  0  0  0  0
  -27.0636   -0.1190   28.6079 C   0  0  0  0  0  0  0  0  0  0  0  0
  -25.7923   -0.4302   29.0761 C   0  0  0  0  0  0  0  0  0  0  0  0
  -25.5314   -1.5876   29.6105 C   0  0  0  0  0  0  0  0  0  0  0  0
  -29.3079   -0.2131   28.8674 C   0  0  0  0  0  0  0  0  0  0  0  0
  -26.6323   -2.4228   29.9748 C   0  0  0  0  0  0  0  0  0  0  0  0
  -27.8369   -1.9703   29.6537 C   0  0  0  0  0  0  0  0  0  0  0  0
  -29.6290    0.8598   29.2526 O   0  0  0  0  0  0  0  0  0  0  0  0
  1  2  1  0
  2  3  1  0
  3  4  1  0
  1  5  2  0
  4  6  1  0
  1  7  1  0
  6  7  1  0
  5  8  2  0
M  END

$$$$
