No_2874-gen_results/8p0m/2024-11-26-14-13-15/
     RDKit          3D

 16 17  0  0  0  0  0  0  0  0999 V2000
  -28.0162   -0.8135   28.8779 C   0  0  0  0  0  0  0  0  0  0  0  0
  -27.0636   -0.1189   28.6079 C   0  0  0  0  0  0  0  0  0  0  0  0
  -26.9515    1.1286   28.9566 N   0  0  0  0  0  0  0  0  0  0  0  0
  -29.1088   -0.2102   29.6318 C   0  0  0  0  0  0  0  0  0  0  0  0
  -29.0365    0.8335   29.8907 C   0  0  0  0  0  0  0  0  0  0  0  0
  -27.9758    1.6953   29.6193 C   0  0  0  0  0  0  0  0  0  0  0  0
  -25.8991   -0.6135   27.9470 N   0  0  0  0  0  0  0  0  0  0  0  0
  -24.9394    0.1342   27.3656 C   0  0  0  0  0  0  0  0  0  0  0  0
  -23.7252    0.3684   28.0513 C   0  0  0  0  0  0  0  0  0  0  0  0
  -22.7735    1.2895   27.5836 C   0  0  0  0  0  0  0  0  0  0  0  0
  -23.1194    2.0531   26.4575 C   0  0  0  0  0  0  0  0  0  0  0  0
  -25.2595    0.8022   26.2568 N   0  0  0  0  0  0  0  0  0  0  0  0
  -24.3833    1.7873   25.8626 C   0  0  0  0  0  0  0  0  0  0  0  0
  -23.3569   -0.3445   29.2868 C   0  0  0  0  0  0  0  0  0  0  0  0
  -22.2589   -0.4334   29.8665 C   0  0  0  0  0  0  0  0  0  0  0  0
  -21.2304    0.4597   29.2340 C   0  0  0  0  0  0  0  0  0  0  0  0
  2  7  1  0
  7  8  1  0
  9 14  1  0
 14 15  2  3
 15 16  1  0
  1  2  2  0
  2  3  1  0
  3  6  2  0
  6  5  1  0
  5  4  2  0
  4  1  1  0
  8  9  2  0
  9 10  1  0
 10 11  2  0
 11 13  1  0
 13 12  2  0
 12  8  1  0
M  END

$$$$
