No_2805-gen_results/8p0m/2024-11-26-14-13-15/
     RDKit          3D

 14 14  0  0  0  0  0  0  0  0999 V2000
  -28.0162   -0.8135   28.8779 C   0  0  0  0  0  0  0  0  0  0  0  0
  -27.0636   -0.1190   28.6079 C   0  0  0  0  0  0  0  0  0  0  0  0
  -25.7923   -0.4302   29.0761 C   0  0  0  0  0  0  0  0  0  0  0  0
  -25.2700   -0.0487   30.0123 C   0  0  0  0  0  0  0  0  0  0  0  0
  -27.8851   -1.6684   30.1122 C   0  0  0  0  0  0  0  0  0  0  0  0
  -26.9250   -1.6038   31.1803 C   0  0  0  0  0  0  0  0  0  0  0  0
  -25.6201   -1.1588   31.0391 C   0  0  0  0  0  0  0  0  0  0  0  0
  -27.1679    0.7424   27.3834 C   0  0  0  0  0  0  0  0  0  0  0  0
  -28.1641    1.2371   27.0561 C   0  0  0  0  0  0  0  0  0  0  0  0
  -28.3004    2.0671   25.8345 C   0  0  0  0  0  0  0  0  0  0  0  0
  -29.5211    2.6312   25.3797 C   0  0  0  0  0  0  0  0  0  0  0  0
  -30.6233    2.4597   26.1692 C   0  0  0  0  0  0  0  0  0  0  0  0
  -30.5568    1.7253   27.2955 C   0  0  0  0  0  0  0  0  0  0  0  0
  -29.4415    1.1408   27.7436 C   0  0  0  0  0  0  0  0  0  0  0  0
  1  2  1  0
  2  3  1  0
  3  4  2  0
  1  5  1  0
  5  6  1  0
  4  7  1  0
  6  7  1  0
  2  8  1  0
  8  9  2  3
  9 10  1  0
 10 11  2  3
 11 12  1  0
 12 13  2  3
 13 14  1  0
M  END

$$$$
