No_223-gen_results/8p0m/2024-11-26-14-13-15/
     RDKit          3D

 23 26  0  0  0  0  0  0  0  0999 V2000
  -28.0162   -0.8135   28.8779 C   0  0  0  0  0  0  0  0  0  0  0  0
  -28.4690   -0.7850   29.8287 C   0  0  0  0  0  0  0  0  0  0  0  0
  -28.1960    0.3478   28.0550 C   0  0  0  0  0  0  0  0  0  0  0  0
  -29.0191    1.3501   28.3782 C   0  0  0  0  0  0  0  0  0  0  0  0
  -29.4107    0.1803   30.3782 C   0  0  0  0  0  0  0  0  0  0  0  0
  -29.2236    2.4924   27.5425 C   0  0  0  0  0  0  0  0  0  0  0  0
  -29.5873    1.2242   29.6185 C   0  0  0  0  0  0  0  0  0  0  0  0
  -28.6297    3.5259   27.9871 C   0  0  0  0  0  0  0  0  0  0  0  0
  -27.8128    3.6898   28.9363 C   0  0  0  0  0  0  0  0  0  0  0  0
  -27.1159    4.9627   29.2407 C   0  0  0  0  0  0  0  0  0  0  0  0
  -27.2878    5.9891   28.3434 C   0  0  0  0  0  0  0  0  0  0  0  0
  -28.0892    5.9024   27.2588 C   0  0  0  0  0  0  0  0  0  0  0  0
  -28.7605    4.7180   27.0161 C   0  0  0  0  0  0  0  0  0  0  0  0
  -30.0902    2.2442   26.4411 C   0  0  0  0  0  0  0  0  0  0  0  0
  -30.4648    1.0654   25.9651 C   0  0  0  0  0  0  0  0  0  0  0  0
  -31.2499    1.0070   24.8656 C   0  0  0  0  0  0  0  0  0  0  0  0
  -30.6464    3.3746   25.7615 C   0  0  0  0  0  0  0  0  0  0  0  0
  -31.4457    3.2920   24.6646 C   0  0  0  0  0  0  0  0  0  0  0  0
  -31.7178    2.0352   24.2394 C   0  0  0  0  0  0  0  0  0  0  0  0
  -29.7858    4.5013   25.9836 C   0  0  0  0  0  0  0  0  0  0  0  0
  -27.5568    0.4934   26.8485 N   0  0  0  0  0  0  0  0  0  0  0  0
  -26.1859    0.4963   26.6702 C   0  0  0  0  0  0  0  0  0  0  0  0
  -25.6505    0.6952   25.4113 C   0  0  0  0  0  0  0  0  0  0  0  0
  4  6  1  0
  6  8  1  0
  6 14  1  0
 13 20  1  0
 17 20  1  0
  3 21  1  0
 21 22  1  0
 22 23  2  0
  8  9  2  0
  9 10  1  0
 10 11  2  0
 11 12  1  0
 12 13  2  0
 13  8  1  0
 14 15  2  0
 15 16  1  0
 16 19  2  0
 19 18  1  0
 18 17  2  0
 17 14  1  0
  1  2  2  0
  2  5  1  0
  5  7  2  0
  7  4  1  0
  4  3  2  0
  3  1  1  0
M  END

$$$$
