No_2000-gen_results/8p0m/2024-11-26-14-13-15/
     RDKit          3D

 26 28  0  0  0  0  0  0  0  0999 V2000
  -28.0162   -0.8135   28.8779 C   0  0  0  0  0  0  0  0  0  0  0  0
  -27.0636   -0.1189   28.6079 C   0  0  0  0  0  0  0  0  0  0  0  0
  -26.9287    1.1713   29.0083 C   0  0  0  0  0  0  0  0  0  0  0  0
  -27.9560    1.7411   29.7840 C   0  0  0  0  0  0  0  0  0  0  0  0
  -29.0569   -0.3271   29.7466 C   0  0  0  0  0  0  0  0  0  0  0  0
  -28.9828    0.9722   30.1516 C   0  0  0  0  0  0  0  0  0  0  0  0
  -25.8815   -0.6260   27.7945 C   0  0  0  0  0  0  0  0  0  0  0  0
  -24.6972   -1.0572   28.6241 C   0  0  0  0  0  0  0  0  0  0  0  0
  -24.6429   -2.2546   29.1042 C   0  0  0  0  0  0  0  0  0  0  0  0
  -23.6235   -0.1510   28.7891 C   0  0  0  0  0  0  0  0  0  0  0  0
  -23.4091    1.1597   28.3094 C   0  0  0  0  0  0  0  0  0  0  0  0
  -24.1728    2.1886   28.4937 C   0  0  0  0  0  0  0  0  0  0  0  0
  -24.0721    3.4259   27.8063 C   0  0  0  0  0  0  0  0  0  0  0  0
  -23.6258    3.2170   26.4327 C   0  0  0  0  0  0  0  0  0  0  0  0
  -22.9023    2.1236   26.0632 C   0  0  0  0  0  0  0  0  0  0  0  0
  -22.8166    1.0602   26.9272 C   0  0  0  0  0  0  0  0  0  0  0  0
  -22.5256   -0.5806   29.6738 C   0  0  0  0  0  0  0  0  0  0  0  0
  -27.8652    3.1938   30.2615 C   0  0  0  0  0  0  0  0  0  0  0  0
  -28.9058    3.8731   30.5957 C   0  0  0  0  0  0  0  0  0  0  0  0
  -26.5331    3.7710   30.3282 C   0  0  0  0  0  0  0  0  0  0  0  0
  -26.4704    5.1807   30.1043 C   0  0  0  0  0  0  0  0  0  0  0  0
  -28.8014    5.3128   30.6340 C   0  0  0  0  0  0  0  0  0  0  0  0
  -27.5280    5.9565   30.5070 C   0  0  0  0  0  0  0  0  0  0  0  0
  -27.3866    7.4216   30.5422 C   0  0  0  0  0  0  0  0  0  0  0  0
  -28.0607    8.1529   31.0329 O   0  0  0  0  0  0  0  0  0  0  0  0
  -26.0770    7.7628   30.3293 O   0  0  0  0  0  0  0  0  0  0  0  0
  2  7  1  0
  7  8  1  0
  8  9  1  0
  8 10  1  0
 10 11  1  0
 10 17  1  0
  4 18  1  0
 23 24  1  0
 24 25  2  0
 24 26  1  0
 11 12  2  0
 12 13  1  0
 13 14  2  0
 14 15  1  0
 15 16  2  0
 16 11  1  0
 18 19  2  0
 19 22  1  0
 22 23  2  0
 23 21  1  0
 21 20  2  0
 20 18  1  0
  1  2  2  0
  2  3  1  0
  3  4  2  0
  4  6  1  0
  6  5  2  0
  5  1  1  0
M  END

$$$$
