No_2876-gen_results/8p0m/2024-11-26-14-13-15/
     RDKit          3D

 10 10  0  0  0  0  0  0  0  0999 V2000
  -28.0162   -0.8135   28.8779 C   0  0  0  0  0  0  0  0  0  0  0  0
  -27.0636   -0.1189   28.6079 C   0  0  0  0  0  0  0  0  0  0  0  0
  -27.0425    0.2440   27.4277 F   0  0  0  0  0  0  0  0  0  0  0  0
  -27.8975   -1.9189   30.1948 Cl  0  0  0  0  0  0  0  0  0  0  0  0
  -25.8751    0.1982   29.3855 C   0  0  0  0  0  0  0  0  0  0  0  0
  -25.9026    0.2601   30.6994 C   0  0  0  0  0  0  0  0  0  0  0  0
  -24.5930    0.3953   31.3421 C   0  0  0  0  0  0  0  0  0  0  0  0
  -23.4798    0.7468   30.5840 C   0  0  0  0  0  0  0  0  0  0  0  0
  -23.5041    0.6959   29.2387 C   0  0  0  0  0  0  0  0  0  0  0  0
  -24.6896    0.3922   28.5749 C   0  0  0  0  0  0  0  0  0  0  0  0
  1  2  1  0
  2  3  1  0
  1  4  1  0
  2  5  1  0
  5  6  2  0
  6  7  1  0
  7  8  2  0
  8  9  1  0
  9 10  2  0
 10  5  1  0
M  END

$$$$
