No_2700-gen_results/8p0m/2024-11-26-14-13-15/
     RDKit          3D

 30 33  0  0  0  0  0  0  0  0999 V2000
  -28.0162   -0.8135   28.8779 C   0  0  0  0  0  0  0  0  0  0  0  0
  -28.4690   -0.7850   29.8287 C   0  0  0  0  0  0  0  0  0  0  0  0
  -26.5455   -0.8762   28.8500 C   0  0  0  0  0  0  0  0  0  0  0  0
  -25.8041   -1.0324   30.0571 C   0  0  0  0  0  0  0  0  0  0  0  0
  -27.9437   -0.9869   31.2075 C   0  0  0  0  0  0  0  0  0  0  0  0
  -26.5825   -1.0386   31.2231 C   0  0  0  0  0  0  0  0  0  0  0  0
  -29.9267   -0.7257   29.8772 O   0  0  0  0  0  0  0  0  0  0  0  0
  -30.5256    0.4218   30.2407 C   0  0  0  0  0  0  0  0  0  0  0  0
  -31.4524    0.8312   29.5589 C   0  0  0  0  0  0  0  0  0  0  0  0
  -31.9827    0.1141   28.4232 C   0  0  0  0  0  0  0  0  0  0  0  0
  -32.9803    0.6145   27.5374 C   0  0  0  0  0  0  0  0  0  0  0  0
  -33.4953    1.8888   27.8797 C   0  0  0  0  0  0  0  0  0  0  0  0
  -33.0808    2.6264   28.9079 C   0  0  0  0  0  0  0  0  0  0  0  0
  -32.0478    2.1540   29.7397 C   0  0  0  0  0  0  0  0  0  0  0  0
  -24.3681   -1.1409   30.0636 C   0  0  0  0  0  0  0  0  0  0  0  0
  -23.6992    0.0580   29.8427 C   0  0  0  0  0  0  0  0  0  0  0  0
  -23.8254    1.1487   30.5648 C   0  0  0  0  0  0  0  0  0  0  0  0
  -23.2815    2.4003   30.1880 C   0  0  0  0  0  0  0  0  0  0  0  0
  -23.9807    3.4721   30.4821 C   0  0  0  0  0  0  0  0  0  0  0  0
  -24.9808    3.4611   31.5682 C   0  0  0  0  0  0  0  0  0  0  0  0
  -25.4167    2.2441   32.0282 C   0  0  0  0  0  0  0  0  0  0  0  0
  -24.9168    1.1250   31.5169 C   0  0  0  0  0  0  0  0  0  0  0  0
  -22.1617   -0.2530   29.6461 C   0  0  0  0  0  0  0  0  0  0  0  0
  -25.8232   -0.7949   27.7112 O   0  0  0  0  0  0  0  0  0  0  0  0
  -26.0554    0.1707   26.7995 C   0  0  0  0  0  0  0  0  0  0  0  0
  -25.2211    0.2304   25.7485 C   0  0  0  0  0  0  0  0  0  0  0  0
  -26.9199    1.2547   26.9512 C   0  0  0  0  0  0  0  0  0  0  0  0
  -27.0876    2.2246   26.0384 C   0  0  0  0  0  0  0  0  0  0  0  0
  -25.3092    1.1757   24.7168 C   0  0  0  0  0  0  0  0  0  0  0  0
  -26.2438    2.1879   24.8925 C   0  0  0  0  0  0  0  0  0  0  0  0
  2  7  1  0
  7  8  1  0
  4 15  1  0
 15 16  1  0
 16 23  1  0
  3 24  1  0
 24 25  1  0
 16 17  1  0
  8  9  1  0
  9 10  2  0
 10 11  1  0
 11 12  2  0
 12 13  1  0
 13 14  2  0
 14  9  1  0
 17 18  2  0
 18 19  1  0
 19 20  2  0
 20 21  1  0
 21 22  2  0
 22 17  1  0
  1  2  2  0
  2  5  1  0
  5  6  2  0
  6  4  1  0
  4  3  2  0
  3  1  1  0
 25 26  2  0
 26 29  1  0
 29 30  2  0
 30 28  1  0
 28 27  2  0
 27 25  1  0
M  END

$$$$
