No_2081-gen_results/8p0m/2024-11-26-14-13-15/
     RDKit          3D

 11 12  0  0  0  0  0  0  0  0999 V2000
  -28.0162   -0.8135   28.8779 C   0  0  0  0  0  0  0  0  0  0  0  0
  -28.4690   -0.7850   29.8287 C   0  0  0  0  0  0  0  0  0  0  0  0
  -26.5042   -0.7777   28.8766 C   0  0  0  0  0  0  0  0  0  0  0  0
  -25.8305   -1.6807   29.6849 C   0  0  0  0  0  0  0  0  0  0  0  0
  -28.1490   -1.8854   30.9031 C   0  0  0  0  0  0  0  0  0  0  0  0
  -27.4248   -2.6437   30.5774 N   0  0  0  0  0  0  0  0  0  0  0  0
  -26.1542   -2.6322   30.3975 C   0  0  0  0  0  0  0  0  0  0  0  0
  -28.4563    0.3449   27.9621 C   0  0  0  0  0  0  0  0  0  0  0  0
  -27.7803    0.5273   26.7263 C   0  0  0  0  0  0  0  0  0  0  0  0
  -26.3405    0.2500   26.6743 C   0  0  0  0  0  0  0  0  0  0  0  0
  -25.7113   -0.4228   27.6640 C   0  0  0  0  0  0  0  0  0  0  0  0
  1  2  1  0
  3  4  1  0
  2  5  1  0
  5  6  2  0
  4  7  2  0
  6  7  1  0
  1  3  2  0
  3 11  1  0
 11 10  2  0
 10  9  1  0
  9  8  2  0
  8  1  1  0
M  END

$$$$
