No_2222-gen_results/8p0m/2024-11-26-14-13-15/
     RDKit          3D

 13 13  0  0  0  0  0  0  0  0999 V2000
  -28.0727   -1.2542   28.5316 F   0  0  0  0  0  0  0  0  0  0  0  0
  -28.2662   -0.4214   29.1931 C   0  0  0  0  0  0  0  0  0  0  0  0
  -27.2356   -0.0574   30.0145 C   0  0  0  0  0  0  0  0  0  0  0  0
  -25.8939   -0.7075   29.9664 C   0  0  0  0  0  0  0  0  0  0  0  0
  -25.8796   -1.8759   29.1861 C   0  0  0  0  0  0  0  0  0  0  0  0
  -26.9824   -2.1795   28.4233 C   0  0  0  0  0  0  0  0  0  0  0  0
  -26.8620   -3.2427   27.7898 F   0  0  0  0  0  0  0  0  0  0  0  0
  -26.4728   -2.6741   29.1598 O   0  0  0  0  0  0  0  0  0  0  0  0
  -26.4924   -3.8908   29.7630 C   0  0  0  0  0  0  0  0  0  0  0  0
  -26.1405   -5.0037   29.0528 C   0  0  0  0  0  0  0  0  0  0  0  0
  -25.1438   -4.7218   28.2014 C   0  0  0  0  0  0  0  0  0  0  0  0
  -24.5173   -1.7378   28.5194 C   0  0  0  0  0  0  0  0  0  0  0  0
  -24.3941   -3.3747   27.9522 C   0  0  0  0  0  0  0  0  0  0  0  0
  1  2  1  0
  2  3  2  3
  3  4  1  0
  4  5  2  3
  5  6  1  0
  6  7  1  0
  6  8  1  0
  8  9  1  0
  9 10  1  0
 10 11  1  0
  5 12  1  0
 11 13  1  0
 12 13  1  0
M  END

$$$$
