No_2442-gen_results/8p0m/2024-11-26-14-13-15/
     RDKit          3D

 12 11  0  0  0  0  0  0  0  0999 V2000
  -28.0162   -0.8135   28.8779 C   0  0  0  0  0  0  0  0  0  0  0  0
  -27.0636   -0.1190   28.6079 C   0  0  0  0  0  0  0  0  0  0  0  0
  -25.8586   -0.4060   28.9035 O   0  0  0  0  0  0  0  0  0  0  0  0
  -27.1834    1.0379   27.7428 N   0  0  0  0  0  0  0  0  0  0  0  0
  -28.6671   -0.3519   30.2001 C   0  0  0  0  0  0  0  0  0  0  0  0
  -28.4134    0.2825   30.9306 C   0  0  0  0  0  0  0  0  0  0  0  0
  -26.0647    1.6962   27.1750 C   0  0  0  0  0  0  0  0  0  0  0  0
  -28.4399    0.8515   31.8444 C   0  0  0  0  0  0  0  0  0  0  0  0
  -28.8350    0.8636   33.0907 C   0  0  0  0  0  0  0  0  0  0  0  0
  -28.6422    1.8286   34.1432 C   0  0  0  0  0  0  0  0  0  0  0  0
  -27.8726    2.9619   33.8177 C   0  0  0  0  0  0  0  0  0  0  0  0
  -27.2930    3.0788   32.5348 C   0  0  0  0  0  0  0  0  0  0  0  0
  1  2  1  0
  2  3  2  0
  2  4  1  0
  1  5  1  0
  5  6  1  0
  4  7  1  0
  6  8  2  3
  8  9  1  0
  9 10  2  3
 10 11  1  0
 11 12  2  0
M  END

$$$$
