No_2355-gen_results/8p0m/2024-11-26-14-13-15/
     RDKit          3D

 19 21  0  0  0  0  0  0  0  0999 V2000
  -28.0162   -0.8135   28.8779 C   0  0  0  0  0  0  0  0  0  0  0  0
  -27.0636   -0.1190   28.6079 C   0  0  0  0  0  0  0  0  0  0  0  0
  -25.7647   -0.3897   29.0360 C   0  0  0  0  0  0  0  0  0  0  0  0
  -24.5516    0.4058   28.7646 C   0  0  0  0  0  0  0  0  0  0  0  0
  -23.2300    0.1178   29.2575 C   0  0  0  0  0  0  0  0  0  0  0  0
  -23.0942   -1.1309   29.8730 C   0  0  0  0  0  0  0  0  0  0  0  0
  -29.3447   -0.3638   28.7645 C   0  0  0  0  0  0  0  0  0  0  0  0
  -29.5539    0.7832   27.9962 C   0  0  0  0  0  0  0  0  0  0  0  0
  -28.4765    1.5048   27.5499 C   0  0  0  0  0  0  0  0  0  0  0  0
  -27.1351    1.1613   27.9146 C   0  0  0  0  0  0  0  0  0  0  0  0
  -25.3290   -1.6429   29.7172 C   0  0  0  0  0  0  0  0  0  0  0  0
  -24.0825   -1.9597   30.0875 C   0  0  0  0  0  0  0  0  0  0  0  0
  -30.9190    1.2127   27.6895 C   0  0  0  0  0  0  0  0  0  0  0  0
  -31.8361    1.0994   28.5851 C   0  0  0  0  0  0  0  0  0  0  0  0
  -31.1721    1.6955   26.3831 C   0  0  0  0  0  0  0  0  0  0  0  0
  -33.2054    1.4775   28.2305 C   0  0  0  0  0  0  0  0  0  0  0  0
  -32.5172    2.1117   26.0765 C   0  0  0  0  0  0  0  0  0  0  0  0
  -33.4600    2.0184   27.0149 C   0  0  0  0  0  0  0  0  0  0  0  0
  -24.6602    1.5776   28.1543 F   0  0  0  0  0  0  0  0  0  0  0  0
  2  3  1  0
  8 13  1  0
  4 19  1  0
  1  2  2  0
  2 10  1  0
 10  9  2  0
  9  8  1  0
  8  7  2  0
  7  1  1  0
 13 14  2  0
 14 16  1  0
 16 18  2  0
 18 17  1  0
 17 15  2  0
 15 13  1  0
  3  4  2  0
  4  5  1  0
  5  6  2  0
  6 12  1  0
 12 11  2  0
 11  3  1  0
M  END

$$$$
