No_2493-gen_results/8p0m/2024-11-26-14-13-15/
     RDKit          3D

 30 32  0  0  0  0  0  0  0  0999 V2000
  -28.0162   -0.8135   28.8779 C   0  0  0  0  0  0  0  0  0  0  0  0
  -27.0636   -0.1189   28.6079 C   0  0  0  0  0  0  0  0  0  0  0  0
  -25.8176   -0.3427   29.0488 N   0  0  0  0  0  0  0  0  0  0  0  0
  -25.5552   -1.4726   29.7295 C   0  0  0  0  0  0  0  0  0  0  0  0
  -27.8546   -1.9289   29.8134 C   0  0  0  0  0  0  0  0  0  0  0  0
  -24.1522   -1.6919   30.1404 C   0  0  0  0  0  0  0  0  0  0  0  0
  -26.5175   -2.3101   30.2316 C   0  0  0  0  0  0  0  0  0  0  0  0
  -24.5302    0.3324   28.6197 C   0  0  0  0  0  0  0  0  0  0  0  0
  -24.5076    1.4018   27.8466 C   0  0  0  0  0  0  0  0  0  0  0  0
  -23.2597   -0.1753   29.2282 C   0  0  0  0  0  0  0  0  0  0  0  0
  -23.0644   -1.0241   29.8128 C   0  0  0  0  0  0  0  0  0  0  0  0
  -23.3050    2.0035   27.4494 C   0  0  0  0  0  0  0  0  0  0  0  0
  -22.0827    1.6713   27.9686 C   0  0  0  0  0  0  0  0  0  0  0  0
  -21.9655    0.6877   28.7428 C   0  0  0  0  0  0  0  0  0  0  0  0
  -27.1927    0.9362   27.7885 O   0  0  0  0  0  0  0  0  0  0  0  0
  -29.2855   -0.4936   28.7423 O   0  0  0  0  0  0  0  0  0  0  0  0
  -29.7348    0.4573   28.0179 C   0  0  0  0  0  0  0  0  0  0  0  0
  -31.0509    0.3730   27.5932 C   0  0  0  0  0  0  0  0  0  0  0  0
  -31.5108    0.9052   26.7334 O   0  0  0  0  0  0  0  0  0  0  0  0
  -31.8731   -0.4627   28.2941 O   0  0  0  0  0  0  0  0  0  0  0  0
  -28.8946   -2.6699   30.1965 O   0  0  0  0  0  0  0  0  0  0  0  0
  -28.9099   -3.3176   31.4189 C   0  0  0  0  0  0  0  0  0  0  0  0
  -29.5245   -4.6044   31.2106 C   0  0  0  0  0  0  0  0  0  0  0  0
  -29.2263   -5.3957   32.1126 O   0  0  0  0  0  0  0  0  0  0  0  0
  -30.1518   -4.9460   30.1769 O   0  0  0  0  0  0  0  0  0  0  0  0
  -31.5060   -5.2059   30.2381 C   0  0  0  0  0  0  0  0  0  0  0  0
  -32.0432   -5.3532   29.0828 C   0  0  0  0  0  0  0  0  0  0  0  0
  -31.3650   -5.2445   27.8851 C   0  0  0  0  0  0  0  0  0  0  0  0
  -30.2694   -5.4307   27.8169 O   0  0  0  0  0  0  0  0  0  0  0  0
  -32.0050   -4.8412   26.7928 O   0  0  0  0  0  0  0  0  0  0  0  0
  1  2  1  0
  2  3  1  0
  3  4  1  0
  4  6  1  0
  4  7  1  0
  5  7  1  0
  3  8  1  0
 10 11  1  0
  2 15  2  0
  1 16  1  0
 16 17  1  0
 17 18  1  0
 18 19  2  0
 18 20  1  0
  5 21  1  0
 21 22  1  0
 22 23  1  0
 23 24  2  0
 23 25  1  0
 25 26  1  0
 26 27  2  3
 27 28  1  0
 28 29  2  0
 28 30  1  0
  6 11  1  0
  1  5  1  0
  8  9  2  0
  9 12  1  0
 12 13  2  0
 13 14  1  0
 14 10  2  0
 10  8  1  0
M  END

$$$$
