No_2405-gen_results/8p0m/2024-11-26-14-13-15/
     RDKit          3D

 35 37  0  0  0  0  0  0  0  0999 V2000
  -28.0162   -0.8135   28.8779 C   0  0  0  0  0  0  0  0  0  0  0  0
  -27.0636   -0.1190   28.6079 C   0  0  0  0  0  0  0  0  0  0  0  0
  -26.9287    1.1713   29.0083 C   0  0  0  0  0  0  0  0  0  0  0  0
  -27.9560    1.7411   29.7840 C   0  0  0  0  0  0  0  0  0  0  0  0
  -29.0569   -0.3271   29.7466 C   0  0  0  0  0  0  0  0  0  0  0  0
  -28.9828    0.9722   30.1516 C   0  0  0  0  0  0  0  0  0  0  0  0
  -25.8196   -0.9203   27.7393 Cl  0  0  0  0  0  0  0  0  0  0  0  0
  -30.0838    1.5342   30.9949 C   0  0  0  0  0  0  0  0  0  0  0  0
  -31.1015    1.1641   31.1128 C   0  0  0  0  0  0  0  0  0  0  0  0
  -32.1725    1.7436   31.9717 C   0  0  0  0  0  0  0  0  0  0  0  0
  -31.8183    2.9283   32.6528 C   0  0  0  0  0  0  0  0  0  0  0  0
  -30.5618    3.4155   32.5100 C   0  0  0  0  0  0  0  0  0  0  0  0
  -29.6124    2.7915   31.7247 C   0  0  0  0  0  0  0  0  0  0  0  0
  -30.1315    4.6457   33.2290 C   0  0  0  0  0  0  0  0  0  0  0  0
  -30.4764    5.2578   34.0549 N   0  0  0  0  0  0  0  0  0  0  0  0
  -28.9055    5.1473   32.7026 O   0  0  0  0  0  0  0  0  0  0  0  0
  -30.0473    6.4559   34.7201 C   0  0  0  0  0  0  0  0  0  0  0  0
  -30.3819    7.6757   34.1951 C   0  0  0  0  0  0  0  0  0  0  0  0
  -29.7168    8.6177   34.4508 C   0  0  0  0  0  0  0  0  0  0  0  0
  -29.9756   10.0026   33.8426 C   0  0  0  0  0  0  0  0  0  0  0  0
  -31.0681   10.0589   32.9605 C   0  0  0  0  0  0  0  0  0  0  0  0
  -31.7782    8.9002   32.6971 C   0  0  0  0  0  0  0  0  0  0  0  0
  -31.4635    7.6771   33.2598 C   0  0  0  0  0  0  0  0  0  0  0  0
  -32.9157    8.9272   31.7342 C   0  0  0  0  0  0  0  0  0  0  0  0
  -33.4655    9.8161   31.2372 O   0  0  0  0  0  0  0  0  0  0  0  0
  -33.1696    7.6756   31.1552 O   0  0  0  0  0  0  0  0  0  0  0  0
  -33.4935    1.2272   32.0922 C   0  0  0  0  0  0  0  0  0  0  0  0
  -33.9658    0.4672   31.4029 O   0  0  0  0  0  0  0  0  0  0  0  0
  -34.2298    1.7028   33.0817 O   0  0  0  0  0  0  0  0  0  0  0  0
  -30.5095    6.4185   36.1701 C   0  0  0  0  0  0  0  0  0  0  0  0
  -28.4807    6.3170   34.8337 C   0  0  0  0  0  0  0  0  0  0  0  0
  -31.5913    6.7623   36.5444 C   0  0  0  0  0  0  0  0  0  0  0  0
  -32.2202    6.7692   37.6394 C   0  0  0  0  0  0  0  0  0  0  0  0
  -33.5597    7.2543   37.8750 C   0  0  0  0  0  0  0  0  0  0  0  0
  -34.2297    7.7541   36.7510 C   0  0  0  0  0  0  0  0  0  0  0  0
  2  7  1  0
  6  8  1  0
 12 14  1  0
 14 15  1  0
 14 16  2  0
 15 17  1  0
 17 18  1  0
 22 24  1  0
 24 25  2  0
 24 26  1  0
 10 27  1  0
 27 28  2  0
 27 29  1  0
 17 30  1  0
 17 31  1  0
 30 32  2  3
 32 33  1  0
 33 34  2  3
 34 35  1  0
 18 19  2  0
 19 20  1  0
 20 21  2  0
 21 22  1  0
 22 23  2  0
 23 18  1  0
  1  2  2  0
  2  3  1  0
  3  4  2  0
  4  6  1  0
  6  5  2  0
  5  1  1  0
  8  9  2  0
  9 10  1  0
 10 11  2  0
 11 12  1  0
 12 13  2  0
 13  8  1  0
M  END

$$$$
