No_2443-gen_results/8p0m/2024-11-26-14-13-15/
     RDKit          3D

 20 21  0  0  0  0  0  0  0  0999 V2000
  -28.1229   -1.3353   28.4874 O   0  0  0  0  0  0  0  0  0  0  0  0
  -27.0637   -0.8242   28.8687 C   0  0  0  0  0  0  0  0  0  0  0  0
  -26.9592    0.0926   29.7582 C   0  0  0  0  0  0  0  0  0  0  0  0
  -25.8184   -1.0917   28.1701 N   0  0  0  0  0  0  0  0  0  0  0  0
  -25.7390    0.7178   30.2339 C   0  0  0  0  0  0  0  0  0  0  0  0
  -24.5979   -0.5764   28.5263 C   0  0  0  0  0  0  0  0  0  0  0  0
  -24.5141    0.3428   29.5346 C   0  0  0  0  0  0  0  0  0  0  0  0
  -23.2442    0.9170   29.8880 C   0  0  0  0  0  0  0  0  0  0  0  0
  -22.1743    0.4203   29.3925 O   0  0  0  0  0  0  0  0  0  0  0  0
  -23.1680    1.9940   30.6123 O   0  0  0  0  0  0  0  0  0  0  0  0
  -28.1613    0.4213   30.5820 C   0  0  0  0  0  0  0  0  0  0  0  0
  -28.2749    1.4339   31.1797 N   0  0  0  0  0  0  0  0  0  0  0  0
  -27.5218    2.3594   31.1307 C   0  0  0  0  0  0  0  0  0  0  0  0
  -27.7128    3.6961   31.8658 C   0  0  0  0  0  0  0  0  0  0  0  0
  -26.8845    4.7122   31.8005 C   0  0  0  0  0  0  0  0  0  0  0  0
  -25.6745    4.6638   31.0507 C   0  0  0  0  0  0  0  0  0  0  0  0
  -25.4567    3.4940   30.3789 C   0  0  0  0  0  0  0  0  0  0  0  0
  -26.3028    2.5798   30.4879 C   0  0  0  0  0  0  0  0  0  0  0  0
  -26.8854    2.4947   29.0136 N   0  0  0  0  0  0  0  0  0  0  0  0
  -25.4669    0.3514   31.8095 C   0  0  0  0  0  0  0  0  0  0  0  0
  1  2  2  0
  2  3  1  0
  2  4  1  0
  4  6  1  0
  5  7  1  0
  6  7  1  0
  7  8  1  0
  8  9  2  0
  8 10  1  0
  3 11  1  0
 11 12  1  0
 12 13  1  0
 18 19  1  0
  5 20  1  0
  3  5  1  0
 13 14  2  0
 14 15  1  0
 15 16  2  0
 16 17  1  0
 17 18  2  0
 18 13  1  0
M  END

$$$$
