No_24-gen_results/8p0m/2024-11-26-14-13-15/
     RDKit          3D

 22 23  0  0  0  0  0  0  0  0999 V2000
  -28.0162   -0.8135   28.8779 C   0  0  0  0  0  0  0  0  0  0  0  0
  -27.0636   -0.1189   28.6079 C   0  0  0  0  0  0  0  0  0  0  0  0
  -25.7647   -0.3897   29.0360 C   0  0  0  0  0  0  0  0  0  0  0  0
  -24.5516    0.4058   28.7646 C   0  0  0  0  0  0  0  0  0  0  0  0
  -24.6957    1.4480   27.7988 C   0  0  0  0  0  0  0  0  0  0  0  0
  -26.0010    1.6784   27.2965 C   0  0  0  0  0  0  0  0  0  0  0  0
  -27.0736    0.9682   27.6500 C   0  0  0  0  0  0  0  0  0  0  0  0
  -28.6424   -0.4818   30.1960 C   0  0  0  0  0  0  0  0  0  0  0  0
  -29.7218   -1.2610   30.6400 N   0  0  0  0  0  0  0  0  0  0  0  0
  -23.5102    2.1795   27.4520 C   0  0  0  0  0  0  0  0  0  0  0  0
  -22.4069    1.5773   27.1284 C   0  0  0  0  0  0  0  0  0  0  0  0
  -23.9694    3.1016   26.2659 C   0  0  0  0  0  0  0  0  0  0  0  0
  -29.6084   -2.2142   31.4425 C   0  0  0  0  0  0  0  0  0  0  0  0
  -31.0157   -0.9692   30.1466 C   0  0  0  0  0  0  0  0  0  0  0  0
  -31.9644   -1.8879   30.1867 C   0  0  0  0  0  0  0  0  0  0  0  0
  -30.5810   -3.2916   31.5815 C   0  0  0  0  0  0  0  0  0  0  0  0
  -31.8316   -2.9880   31.0516 C   0  0  0  0  0  0  0  0  0  0  0  0
  -27.4061   -0.5970   31.0775 C   0  0  0  0  0  0  0  0  0  0  0  0
  -27.3167    0.3670   32.1640 C   0  0  0  0  0  0  0  0  0  0  0  0
  -26.2744    0.2651   33.0227 C   0  0  0  0  0  0  0  0  0  0  0  0
  -25.1737   -0.5869   32.7749 C   0  0  0  0  0  0  0  0  0  0  0  0
  -25.2655   -1.4616   31.7386 C   0  0  0  0  0  0  0  0  0  0  0  0
  1  8  1  0
  8  9  1  0
  5 10  1  0
 10 11  2  0
 10 12  1  0
  9 13  1  0
  9 14  1  0
 15 17  1  0
 16 17  1  0
  8 18  1  0
 18 19  3  0
 19 20  1  0
 20 21  2  3
 21 22  1  0
  1  2  1  0
 13 16  1  0
 15 14  1  0
  2  3  2  0
  3  4  1  0
  4  5  2  0
  5  6  1  0
  6  7  2  0
  7  2  1  0
M  END

$$$$
