No_2920-gen_results/8p0m/2024-11-26-14-13-15/
     RDKit          3D

 23 25  0  0  0  0  0  0  0  0999 V2000
  -28.0544   -1.0498   28.7246 N   0  0  0  0  0  0  0  0  0  0  0  0
  -27.7460   -0.0733   29.0098 C   0  0  0  0  0  0  0  0  0  0  0  0
  -27.5562    0.3369   30.3393 C   0  0  0  0  0  0  0  0  0  0  0  0
  -27.0710    1.6709   30.7899 C   0  0  0  0  0  0  0  0  0  0  0  0
  -26.6539    2.5222   29.7363 C   0  0  0  0  0  0  0  0  0  0  0  0
  -26.7304    2.0603   28.4078 C   0  0  0  0  0  0  0  0  0  0  0  0
  -27.1892    0.8153   28.0522 C   0  0  0  0  0  0  0  0  0  0  0  0
  -29.0838   -1.5480   29.4797 C   0  0  0  0  0  0  0  0  0  0  0  0
  -29.0094   -1.4582   30.9189 C   0  0  0  0  0  0  0  0  0  0  0  0
  -28.3551   -0.2510   31.3503 C   0  0  0  0  0  0  0  0  0  0  0  0
  -27.1193    0.5019   26.6280 C   0  0  0  0  0  0  0  0  0  0  0  0
  -26.3366    1.2108   25.7422 C   0  0  0  0  0  0  0  0  0  0  0  0
  -25.8691    2.4870   26.1460 C   0  0  0  0  0  0  0  0  0  0  0  0
  -25.9882    2.9382   27.4541 C   0  0  0  0  0  0  0  0  0  0  0  0
  -26.0001    3.7978   30.0772 C   0  0  0  0  0  0  0  0  0  0  0  0
  -25.1342    3.8944   30.8367 O   0  0  0  0  0  0  0  0  0  0  0  0
  -26.4563    4.8768   29.4532 O   0  0  0  0  0  0  0  0  0  0  0  0
  -27.0603    2.0886   32.1715 C   0  0  0  0  0  0  0  0  0  0  0  0
  -26.7875    3.3517   32.5517 C   0  0  0  0  0  0  0  0  0  0  0  0
  -27.3454    3.8883   33.7547 C   0  0  0  0  0  0  0  0  0  0  0  0
  -26.7915    4.9588   34.4157 C   0  0  0  0  0  0  0  0  0  0  0  0
  -25.7098    5.7033   33.8056 C   0  0  0  0  0  0  0  0  0  0  0  0
  -25.0544    5.1191   32.7017 C   0  0  0  0  0  0  0  0  0  0  0  0
  5 15  1  0
 15 16  2  0
 15 17  1  0
  4 18  1  0
 18 19  1  0
 19 20  1  0
 20 21  2  3
 21 22  1  0
 22 23  2  0
  3  4  1  0
  4  5  2  0
  5  6  1  0
  7  2  1  0
  1  2  2  0
  2  3  1  0
  3 10  2  0
 10  9  1  0
  9  8  2  0
  8  1  1  0
  6  7  2  0
  7 11  1  0
 11 12  2  0
 12 13  1  0
 13 14  2  0
 14  6  1  0
M  END

$$$$
