No_2133-gen_results/8p0m/2024-11-26-14-13-15/
     RDKit          3D

  9  9  0  0  0  0  0  0  0  0999 V2000
  -28.1229   -1.3353   28.4874 O   0  0  0  0  0  0  0  0  0  0  0  0
  -27.4806   -0.4044   28.7094 C   0  0  0  0  0  0  0  0  0  0  0  0
  -27.2412    0.3910   29.5098 N   0  0  0  0  0  0  0  0  0  0  0  0
  -26.4066   -0.1069   27.4496 C   0  0  0  0  0  0  0  0  0  0  0  0
  -25.4358    0.8473   27.6341 C   0  0  0  0  0  0  0  0  0  0  0  0
  -25.4244    1.6272   28.7628 C   0  0  0  0  0  0  0  0  0  0  0  0
  -26.3010    1.3577   29.7736 C   0  0  0  0  0  0  0  0  0  0  0  0
  -24.5848    1.0716   26.6555 F   0  0  0  0  0  0  0  0  0  0  0  0
  -28.1679    0.1136   30.7852 C   0  0  0  0  0  0  0  0  0  0  0  0
  1  2  2  0
  2  3  1  0
  2  4  1  0
  5  6  1  0
  3  7  1  0
  5  8  1  0
  3  9  1  0
  4  5  1  0
  6  7  1  0
M  END

$$$$
