No_2313-gen_results/8p0m/2024-11-26-14-13-15/
     RDKit          3D

 20 22  0  0  0  0  0  0  0  0999 V2000
  -28.0162   -0.8135   28.8779 C   0  0  0  0  0  0  0  0  0  0  0  0
  -27.0636   -0.1189   28.6079 C   0  0  0  0  0  0  0  0  0  0  0  0
  -27.0010    0.6913   27.4910 C   0  0  0  0  0  0  0  0  0  0  0  0
  -25.8548    1.4825   27.0830 C   0  0  0  0  0  0  0  0  0  0  0  0
  -24.6901    1.4526   27.8807 C   0  0  0  0  0  0  0  0  0  0  0  0
  -24.7379    0.6010   29.0416 C   0  0  0  0  0  0  0  0  0  0  0  0
  -25.8234   -0.1688   29.3887 C   0  0  0  0  0  0  0  0  0  0  0  0
  -29.2455   -0.0678   29.1937 C   0  0  0  0  0  0  0  0  0  0  0  0
  -29.5938    0.1182   30.4252 C   0  0  0  0  0  0  0  0  0  0  0  0
  -30.9050    0.5810   30.6985 C   0  0  0  0  0  0  0  0  0  0  0  0
  -31.7172    0.8579   29.5932 C   0  0  0  0  0  0  0  0  0  0  0  0
  -30.3999   -0.0956   28.2962 C   0  0  0  0  0  0  0  0  0  0  0  0
  -31.4823    0.4756   28.4276 C   0  0  0  0  0  0  0  0  0  0  0  0
  -23.5004    2.1753   27.5645 C   0  0  0  0  0  0  0  0  0  0  0  0
  -22.3517    1.8625   28.1712 N   0  0  0  0  0  0  0  0  0  0  0  0
  -23.5115    2.9302   26.5722 F   0  0  0  0  0  0  0  0  0  0  0  0
  -32.4160    0.5659   27.2965 C   0  0  0  0  0  0  0  0  0  0  0  0
  -32.4735   -0.0421   26.3594 N   0  0  0  0  0  0  0  0  0  0  0  0
  -31.5796   -1.0133   26.2209 C   0  0  0  0  0  0  0  0  0  0  0  0
  -30.3518   -0.9514   26.9869 C   0  0  0  0  0  0  0  0  0  0  0  0
  1  2  1  0
  1  8  1  0
  5 14  1  0
 14 15  2  0
 14 16  1  0
  2  3  2  0
  3  4  1  0
  4  5  2  0
  5  6  1  0
  6  7  2  0
  7  2  1  0
 13 17  2  0
 17 18  1  0
 18 19  2  0
 19 20  1  0
 20 12  2  0
  8  9  2  0
  9 10  1  0
 10 11  2  0
 11 13  1  0
 13 12  1  0
 12  8  1  0
M  END

$$$$
