No_2511-gen_results/8p0m/2024-11-26-14-13-15/
     RDKit          3D

 35 39  0  0  0  0  0  0  0  0999 V2000
  -28.0162   -0.8135   28.8779 C   0  0  0  0  0  0  0  0  0  0  0  0
  -27.0636   -0.1190   28.6079 C   0  0  0  0  0  0  0  0  0  0  0  0
  -25.7923   -0.4302   29.0761 C   0  0  0  0  0  0  0  0  0  0  0  0
  -24.5456    0.3494   28.8225 C   0  0  0  0  0  0  0  0  0  0  0  0
  -24.6586    1.4196   27.8878 C   0  0  0  0  0  0  0  0  0  0  0  0
  -25.9471    1.6811   27.3792 C   0  0  0  0  0  0  0  0  0  0  0  0
  -27.0439    0.9739   27.6871 C   0  0  0  0  0  0  0  0  0  0  0  0
  -28.6567   -0.5529   30.0960 N   0  0  0  0  0  0  0  0  0  0  0  0
  -28.5841    0.2509   30.7384 C   0  0  0  0  0  0  0  0  0  0  0  0
  -29.3702    0.2374   32.0976 C   0  0  0  0  0  0  0  0  0  0  0  0
  -29.4781   -1.8037   30.6035 C   0  0  0  0  0  0  0  0  0  0  0  0
  -29.5573   -2.8656   29.8623 C   0  0  0  0  0  0  0  0  0  0  0  0
  -30.0319   -1.7084   31.8358 C   0  0  0  0  0  0  0  0  0  0  0  0
  -29.9842   -0.6256   32.5747 C   0  0  0  0  0  0  0  0  0  0  0  0
  -29.8539   -4.0972   30.6375 C   0  0  0  0  0  0  0  0  0  0  0  0
  -30.4738   -4.0828   31.7675 C   0  0  0  0  0  0  0  0  0  0  0  0
  -30.5030   -2.9674   32.4449 C   0  0  0  0  0  0  0  0  0  0  0  0
  -23.4466    2.1359   27.5379 C   0  0  0  0  0  0  0  0  0  0  0  0
  -22.4959    1.8581   27.2807 N   0  0  0  0  0  0  0  0  0  0  0  0
  -23.7618    3.4738   27.3407 F   0  0  0  0  0  0  0  0  0  0  0  0
  -25.4855   -1.4966   30.0646 C   0  0  0  0  0  0  0  0  0  0  0  0
  -24.3787   -2.2421   29.9698 C   0  0  0  0  0  0  0  0  0  0  0  0
  -28.2952    1.4037   27.0330 C   0  0  0  0  0  0  0  0  0  0  0  0
  -29.0034    2.1454   27.5804 C   0  0  0  0  0  0  0  0  0  0  0  0
  -30.0147    2.7130   27.4484 C   0  0  0  0  0  0  0  0  0  0  0  0
  -28.5973    0.8526   25.7704 C   0  0  0  0  0  0  0  0  0  0  0  0
  -29.8153    1.2951   25.1987 C   0  0  0  0  0  0  0  0  0  0  0  0
  -30.8768    3.5340   28.2299 C   0  0  0  0  0  0  0  0  0  0  0  0
  -30.5953    2.2702   26.0733 C   0  0  0  0  0  0  0  0  0  0  0  0
  -30.3604    4.5502   28.8253 C   0  0  0  0  0  0  0  0  0  0  0  0
  -29.0772    4.9738   28.5842 C   0  0  0  0  0  0  0  0  0  0  0  0
  -28.5056    6.1335   29.2982 C   0  0  0  0  0  0  0  0  0  0  0  0
  -29.2949    6.7079   30.2244 C   0  0  0  0  0  0  0  0  0  0  0  0
  -30.5282    6.3349   30.5316 C   0  0  0  0  0  0  0  0  0  0  0  0
  -30.8802    5.3088   29.8977 C   0  0  0  0  0  0  0  0  0  0  0  0
  1  2  1  0
  1  8  1  0
  8  9  1  0
  8 11  1  0
 10 14  1  0
 13 14  1  0
  5 18  1  0
 18 19  2  0
 18 20  1  0
  3 21  1  0
 21 22  2  0
  7 23  1  0
 25 28  1  0
 28 30  1  0
  9 10  1  0
 11 12  2  0
 12 15  1  0
 15 16  2  0
 16 17  1  0
 17 13  2  0
 13 11  1  0
 23 24  2  0
 24 25  1  0
 25 29  2  0
 29 27  1  0
 27 26  2  0
 26 23  1  0
 30 31  2  0
 31 32  1  0
 32 33  2  0
 33 34  1  0
 34 35  2  0
 35 30  1  0
  2  3  2  0
  3  4  1  0
  4  5  2  0
  5  6  1  0
  6  7  2  0
  7  2  1  0
M  END

$$$$
