No_2079-gen_results/8p0m/2024-11-26-14-13-15/
     RDKit          3D

 17 18  0  0  0  0  0  0  0  0999 V2000
  -28.0162   -0.8135   28.8779 C   0  0  0  0  0  0  0  0  0  0  0  0
  -27.0636   -0.1189   28.6079 C   0  0  0  0  0  0  0  0  0  0  0  0
  -25.7647   -0.3897   29.0360 C   0  0  0  0  0  0  0  0  0  0  0  0
  -25.5296   -1.5302   29.9014 C   0  0  0  0  0  0  0  0  0  0  0  0
  -26.6888   -2.2893   30.1810 C   0  0  0  0  0  0  0  0  0  0  0  0
  -27.8727   -1.9508   29.7373 C   0  0  0  0  0  0  0  0  0  0  0  0
  -29.0016   -2.8142   30.1793 C   0  0  0  0  0  0  0  0  0  0  0  0
  -30.1410   -2.4192   30.1450 N   0  0  0  0  0  0  0  0  0  0  0  0
  -28.7277   -4.0070   30.5931 O   0  0  0  0  0  0  0  0  0  0  0  0
  -30.5717   -1.1120   29.8959 C   0  0  0  0  0  0  0  0  0  0  0  0
  -31.0577   -3.2790   31.0107 C   0  0  0  0  0  0  0  0  0  0  0  0
  -24.5335    0.3846   28.6487 C   0  0  0  0  0  0  0  0  0  0  0  0
  -23.2943    0.1375   29.1892 C   0  0  0  0  0  0  0  0  0  0  0  0
  -22.1620    0.8382   28.7257 C   0  0  0  0  0  0  0  0  0  0  0  0
  -22.3087    1.7482   27.6141 C   0  0  0  0  0  0  0  0  0  0  0  0
  -24.5348    1.2328   27.5133 C   0  0  0  0  0  0  0  0  0  0  0  0
  -23.4659    1.9036   27.0558 C   0  0  0  0  0  0  0  0  0  0  0  0
  6  7  1  0
  7  8  1  0
  7  9  2  0
  8 10  1  0
  8 11  1  0
  3 12  1  0
 12 13  2  0
 13 14  1  0
 14 15  2  0
 15 17  1  0
 17 16  2  0
 16 12  1  0
  1  2  2  0
  2  3  1  0
  3  4  2  0
  4  5  1  0
  5  6  2  0
  6  1  1  0
M  END

$$$$
