No_260-gen_results/8p0m/2024-11-26-14-13-15/
     RDKit          3D

 21 21  0  0  0  0  0  0  0  0999 V2000
  -28.0162   -0.8135   28.8779 C   0  0  0  0  0  0  0  0  0  0  0  0
  -28.4690   -0.7850   29.8287 C   0  0  0  0  0  0  0  0  0  0  0  0
  -28.1816    0.4277   28.1134 C   0  0  0  0  0  0  0  0  0  0  0  0
  -28.9841    1.4155   28.5154 C   0  0  0  0  0  0  0  0  0  0  0  0
  -29.3802    0.1384   30.4612 C   0  0  0  0  0  0  0  0  0  0  0  0
  -29.5415    1.2736   29.7242 C   0  0  0  0  0  0  0  0  0  0  0  0
  -27.3353    0.4923   26.5785 Cl  0  0  0  0  0  0  0  0  0  0  0  0
  -30.4539    2.3360   30.2311 C   0  0  0  0  0  0  0  0  0  0  0  0
  -31.2136    2.9096   29.7051 O   0  0  0  0  0  0  0  0  0  0  0  0
  -30.3730    2.3948   31.7041 O   0  0  0  0  0  0  0  0  0  0  0  0
  -28.1959   -2.3434   30.8644 Cl  0  0  0  0  0  0  0  0  0  0  0  0
  -30.5922    3.5668   32.2526 C   0  0  0  0  0  0  0  0  0  0  0  0
  -29.8046    4.5675   32.0521 C   0  0  0  0  0  0  0  0  0  0  0  0
  -30.1979    5.5591   31.8192 O   0  0  0  0  0  0  0  0  0  0  0  0
  -28.4643    4.3742   32.4879 N   0  0  0  0  0  0  0  0  0  0  0  0
  -27.3976    5.3434   32.1713 C   0  0  0  0  0  0  0  0  0  0  0  0
  -26.2209    4.8408   32.2127 C   0  0  0  0  0  0  0  0  0  0  0  0
  -25.0806    5.5717   31.9346 C   0  0  0  0  0  0  0  0  0  0  0  0
  -23.7612    5.0265   32.0713 C   0  0  0  0  0  0  0  0  0  0  0  0
  -23.6497    3.6078   32.1288 C   0  0  0  0  0  0  0  0  0  0  0  0
  -24.8082    2.8610   32.1618 C   0  0  0  0  0  0  0  0  0  0  0  0
  3  7  1  0
  6  8  1  0
  8  9  2  0
  8 10  1  0
  2 11  1  0
 10 12  1  0
 12 13  1  0
 13 14  2  0
 13 15  1  0
 15 16  1  0
 16 17  2  3
 17 18  1  0
 18 19  2  3
 19 20  1  0
 20 21  2  0
  1  2  2  0
  2  5  1  0
  5  6  2  0
  6  4  1  0
  4  3  2  0
  3  1  1  0
M  END

$$$$
