No_2064-gen_results/8p0m/2024-11-26-14-13-15/
     RDKit          3D

 21 22  0  0  0  0  0  0  0  0999 V2000
  -28.0162   -0.8135   28.8779 C   0  0  0  0  0  0  0  0  0  0  0  0
  -28.4690   -0.7850   29.8287 C   0  0  0  0  0  0  0  0  0  0  0  0
  -27.1356    0.2359   28.5352 C   0  0  0  0  0  0  0  0  0  0  0  0
  -26.8745    1.2825   29.3982 C   0  0  0  0  0  0  0  0  0  0  0  0
  -27.5070    1.2380   30.6295 C   0  0  0  0  0  0  0  0  0  0  0  0
  -29.4093   -1.9436   30.2887 C   0  0  0  0  0  0  0  0  0  0  0  0
  -28.3221    0.1318   30.9672 C   0  0  0  0  0  0  0  0  0  0  0  0
  -29.1335   -3.1787   30.3560 O   0  0  0  0  0  0  0  0  0  0  0  0
  -30.4919   -1.6785   31.0262 O   0  0  0  0  0  0  0  0  0  0  0  0
  -26.3867    0.3015   27.2150 C   0  0  0  0  0  0  0  0  0  0  0  0
  -25.2390    0.8023   26.9944 C   0  0  0  0  0  0  0  0  0  0  0  0
  -24.4509    1.2300   28.1101 C   0  0  0  0  0  0  0  0  0  0  0  0
  -23.1023    1.7737   27.7375 C   0  0  0  0  0  0  0  0  0  0  0  0
  -22.7780    2.0708   26.4660 C   0  0  0  0  0  0  0  0  0  0  0  0
  -23.6152    1.7668   25.4365 C   0  0  0  0  0  0  0  0  0  0  0  0
  -24.8248    1.1093   25.6945 C   0  0  0  0  0  0  0  0  0  0  0  0
  -27.0906   -0.2658   26.2604 F   0  0  0  0  0  0  0  0  0  0  0  0
  -31.6239   -2.3288   30.7042 C   0  0  0  0  0  0  0  0  0  0  0  0
  -32.2401   -1.9794   29.5472 C   0  0  0  0  0  0  0  0  0  0  0  0
  -32.1983   -2.6644   28.6370 O   0  0  0  0  0  0  0  0  0  0  0  0
  -32.5971   -0.7978   29.3876 F   0  0  0  0  0  0  0  0  0  0  0  0
  2  6  1  0
  6  8  2  0
  6  9  1  0
  3 10  1  0
 10 17  1  0
  9 18  1  0
 18 19  1  0
 19 20  2  0
 19 21  1  0
 10 11  1  0
  1  2  2  0
  2  7  1  0
  7  5  2  0
  5  4  1  0
  4  3  2  0
  3  1  1  0
 11 12  2  0
 12 13  1  0
 13 14  2  0
 14 15  1  0
 15 16  2  0
 16 11  1  0
M  END

$$$$
