No_2445-gen_results/8p0m/2024-11-26-14-13-15/
     RDKit          3D

 15 15  0  0  0  0  0  0  0  0999 V2000
  -28.0162   -0.8135   28.8779 C   0  0  0  0  0  0  0  0  0  0  0  0
  -27.0636   -0.1190   28.6079 C   0  0  0  0  0  0  0  0  0  0  0  0
  -26.9287    1.1713   29.0083 C   0  0  0  0  0  0  0  0  0  0  0  0
  -27.9560    1.7411   29.7840 C   0  0  0  0  0  0  0  0  0  0  0  0
  -29.0569   -0.3271   29.7466 C   0  0  0  0  0  0  0  0  0  0  0  0
  -28.9828    0.9722   30.1516 C   0  0  0  0  0  0  0  0  0  0  0  0
  -25.7249   -0.7275   27.6731 Cl  0  0  0  0  0  0  0  0  0  0  0  0
  -30.0060    1.2996   31.0327 O   0  0  0  0  0  0  0  0  0  0  0  0
  -31.0741    1.2353   30.9661 C   0  0  0  0  0  0  0  0  0  0  0  0
  -32.0419    1.8825   31.7759 C   0  0  0  0  0  0  0  0  0  0  0  0
  -31.5396    2.6992   32.7698 C   0  0  0  0  0  0  0  0  0  0  0  0
  -32.4331    3.4606   33.6342 C   0  0  0  0  0  0  0  0  0  0  0  0
  -31.9182    4.3039   34.6670 C   0  0  0  0  0  0  0  0  0  0  0  0
  -30.5038    4.3636   34.8076 C   0  0  0  0  0  0  0  0  0  0  0  0
  -29.6403    3.6312   33.9761 C   0  0  0  0  0  0  0  0  0  0  0  0
  2  7  1  0
  6  8  1  0
  8  9  1  0
  9 10  1  0
 10 11  2  3
 11 12  1  0
 12 13  2  3
 13 14  1  0
 14 15  2  0
  1  2  2  0
  2  3  1  0
  3  4  2  0
  4  6  1  0
  6  5  2  0
  5  1  1  0
M  END

$$$$
