No_2477-gen_results/8p0m/2024-11-26-14-13-15/
     RDKit          3D

 29 32  0  0  0  0  0  0  0  0999 V2000
  -28.0162   -0.8135   28.8779 C   0  0  0  0  0  0  0  0  0  0  0  0
  -28.4690   -0.7850   29.8287 C   0  0  0  0  0  0  0  0  0  0  0  0
  -27.1356    0.2359   28.5352 C   0  0  0  0  0  0  0  0  0  0  0  0
  -26.8745    1.2825   29.3982 C   0  0  0  0  0  0  0  0  0  0  0  0
  -28.3613    0.1987   30.9244 C   0  0  0  0  0  0  0  0  0  0  0  0
  -27.5277    1.2234   30.6356 C   0  0  0  0  0  0  0  0  0  0  0  0
  -26.3987    0.2949   27.2279 C   0  0  0  0  0  0  0  0  0  0  0  0
  -25.0392    0.2356   27.3538 C   0  0  0  0  0  0  0  0  0  0  0  0
  -27.0287    0.3958   26.0087 C   0  0  0  0  0  0  0  0  0  0  0  0
  -28.3713    0.5360   25.8782 C   0  0  0  0  0  0  0  0  0  0  0  0
  -28.8860    0.5071   24.5687 C   0  0  0  0  0  0  0  0  0  0  0  0
  -30.2841    0.5712   24.3900 C   0  0  0  0  0  0  0  0  0  0  0  0
  -30.8318    0.4669   23.2694 C   0  0  0  0  0  0  0  0  0  0  0  0
  -32.2913    0.4809   23.1623 C   0  0  0  0  0  0  0  0  0  0  0  0
  -33.0791    0.7124   24.2845 C   0  0  0  0  0  0  0  0  0  0  0  0
  -31.2093    0.7980   25.5598 C   0  0  0  0  0  0  0  0  0  0  0  0
  -32.4961    0.8631   25.4489 C   0  0  0  0  0  0  0  0  0  0  0  0
  -26.2284    0.2996   24.8558 C   0  0  0  0  0  0  0  0  0  0  0  0
  -24.3180    1.0789   28.2565 C   0  0  0  0  0  0  0  0  0  0  0  0
  -22.9584    1.1049   28.1290 C   0  0  0  0  0  0  0  0  0  0  0  0
  -22.3294    2.2117   27.3630 C   0  0  0  0  0  0  0  0  0  0  0  0
  -22.1096    0.1273   28.7374 C   0  0  0  0  0  0  0  0  0  0  0  0
  -28.0800    0.3889   23.4762 C   0  0  0  0  0  0  0  0  0  0  0  0
  -26.7054    0.2959   23.6724 N   0  0  0  0  0  0  0  0  0  0  0  0
  -24.5701    1.1583   29.3179 F   0  0  0  0  0  0  0  0  0  0  0  0
  -20.6877    0.1559   28.5893 C   0  0  0  0  0  0  0  0  0  0  0  0
  -20.8527    2.0982   27.2861 C   0  0  0  0  0  0  0  0  0  0  0  0
  -20.1503    1.1674   27.9764 C   0  0  0  0  0  0  0  0  0  0  0  0
  -24.7774    2.4655   27.8543 F   0  0  0  0  0  0  0  0  0  0  0  0
  3  7  1  0
  7  8  1  0
  7  9  1  0
 11 12  1  0
  8 19  1  0
 19 20  1  0
 19 25  1  0
 19 29  1  0
 12 13  2  0
 13 14  1  0
 14 15  2  0
 15 17  1  0
 17 16  2  0
 16 12  1  0
  1  2  2  0
  2  5  1  0
  5  6  2  0
  6  4  1  0
  4  3  2  0
  3  1  1  0
  9 10  2  0
 10 11  1  0
 11 23  2  0
 23 24  1  0
 24 18  2  0
 18  9  1  0
 20 21  2  0
 21 27  1  0
 27 28  2  0
 28 26  1  0
 26 22  2  0
 22 20  1  0
M  END

$$$$
