No_2756-gen_results/8p0m/2024-11-26-14-13-15/
     RDKit          3D

 30 32  0  0  0  0  0  0  0  0999 V2000
  -28.0162   -0.8135   28.8779 C   0  0  0  0  0  0  0  0  0  0  0  0
  -27.0636   -0.1189   28.6079 C   0  0  0  0  0  0  0  0  0  0  0  0
  -25.7923   -0.4302   29.0761 C   0  0  0  0  0  0  0  0  0  0  0  0
  -25.5756   -1.5654   29.9363 C   0  0  0  0  0  0  0  0  0  0  0  0
  -26.7354   -2.3004   30.2173 C   0  0  0  0  0  0  0  0  0  0  0  0
  -27.9184   -1.9537   29.7629 C   0  0  0  0  0  0  0  0  0  0  0  0
  -29.0001   -2.7012   30.1151 O   0  0  0  0  0  0  0  0  0  0  0  0
  -24.5290    0.3490   28.7998 C   0  0  0  0  0  0  0  0  0  0  0  0
  -24.4808    1.2113   27.7998 C   0  0  0  0  0  0  0  0  0  0  0  0
  -23.2478    1.8974   27.4951 C   0  0  0  0  0  0  0  0  0  0  0  0
  -22.0497    1.5890   28.1642 C   0  0  0  0  0  0  0  0  0  0  0  0
  -23.3072    0.0149   29.4618 C   0  0  0  0  0  0  0  0  0  0  0  0
  -22.0852    0.6899   29.1374 C   0  0  0  0  0  0  0  0  0  0  0  0
  -30.1270   -2.1323   30.5815 C   0  0  0  0  0  0  0  0  0  0  0  0
  -30.5782   -2.8385   31.6842 C   0  0  0  0  0  0  0  0  0  0  0  0
  -29.7872   -3.6767   32.3628 C   0  0  0  0  0  0  0  0  0  0  0  0
  -31.1488   -1.9053   32.6790 O   0  0  0  0  0  0  0  0  0  0  0  0
  -30.4427   -4.6409   33.1113 F   0  0  0  0  0  0  0  0  0  0  0  0
  -29.0252   -4.5142   31.5271 F   0  0  0  0  0  0  0  0  0  0  0  0
  -28.9021   -3.1554   33.2624 F   0  0  0  0  0  0  0  0  0  0  0  0
  -29.8954   -0.7307   30.8611 C   0  0  0  0  0  0  0  0  0  0  0  0
  -31.0900   -0.1802   31.2843 C   0  0  0  0  0  0  0  0  0  0  0  0
  -31.4929   -0.6896   32.6174 C   0  0  0  0  0  0  0  0  0  0  0  0
  -32.2071   -0.3154   30.3048 C   0  0  0  0  0  0  0  0  0  0  0  0
  -32.0124    0.4899   29.2052 C   0  0  0  0  0  0  0  0  0  0  0  0
  -32.9704    0.9388   28.5857 C   0  0  0  0  0  0  0  0  0  0  0  0
  -30.8837    1.4015   31.5585 C   0  0  0  0  0  0  0  0  0  0  0  0
  -34.0791    0.7225   28.7073 N   0  0  0  0  0  0  0  0  0  0  0  0
  -30.6519    1.8243   32.7813 C   0  0  0  0  0  0  0  0  0  0  0  0
  -30.3454    3.1628   33.0292 C   0  0  0  0  0  0  0  0  0  0  0  0
  6  7  1  0
  3  8  1  0
  7 14  1  0
 14 15  1  0
 15 16  1  0
 15 17  1  0
 16 18  1  0
 16 19  1  0
 16 20  1  0
 14 21  1  0
 21 22  1  0
 17 23  1  0
 22 23  1  0
 22 24  1  0
 24 25  1  0
 25 26  2  3
 22 27  1  0
 26 28  1  0
 27 29  2  3
 29 30  1  0
  1  2  2  0
  2  3  1  0
  3  4  2  0
  4  5  1  0
  5  6  2  0
  6  1  1  0
  8  9  2  0
  9 10  1  0
 10 11  2  0
 11 13  1  0
 13 12  2  0
 12  8  1  0
M  END

$$$$
