No_2694-gen_results/8p0m/2024-11-26-14-13-15/
     RDKit          3D

 14 15  0  0  0  0  0  0  0  0999 V2000
  -28.0162   -0.8135   28.8779 C   0  0  0  0  0  0  0  0  0  0  0  0
  -27.0636   -0.1189   28.6079 C   0  0  0  0  0  0  0  0  0  0  0  0
  -27.0010    0.6913   27.4910 C   0  0  0  0  0  0  0  0  0  0  0  0
  -28.1373    0.7363   26.6350 C   0  0  0  0  0  0  0  0  0  0  0  0
  -29.2360    0.0765   27.0690 C   0  0  0  0  0  0  0  0  0  0  0  0
  -29.2177   -0.6429   28.1747 C   0  0  0  0  0  0  0  0  0  0  0  0
  -30.2580    0.2555   26.0835 N   0  0  0  0  0  0  0  0  0  0  0  0
  -31.3287   -0.4493   26.2990 C   0  0  0  0  0  0  0  0  0  0  0  0
  -31.5203   -1.0998   27.5316 C   0  0  0  0  0  0  0  0  0  0  0  0
  -30.4720   -1.2918   28.4052 C   0  0  0  0  0  0  0  0  0  0  0  0
  -28.0191   -1.6414   30.1564 C   0  0  0  0  0  0  0  0  0  0  0  0
  -28.8004   -1.7301   30.8877 F   0  0  0  0  0  0  0  0  0  0  0  0
  -27.6694   -2.9966   29.6777 F   0  0  0  0  0  0  0  0  0  0  0  0
  -26.7935   -1.4310   30.8656 F   0  0  0  0  0  0  0  0  0  0  0  0
  1 11  1  0
 11 12  1  0
 11 13  1  0
 11 14  1  0
  1  2  2  0
  2  3  1  0
  3  4  2  0
  4  5  1  0
  6  1  1  0
  5  6  2  0
  6 10  1  0
 10  9  2  0
  9  8  1  0
  8  7  2  0
  7  5  1  0
M  END

$$$$
