No_2295-gen_results/8p0m/2024-11-26-14-13-15/
     RDKit          3D

 19 20  0  0  0  0  0  0  0  0999 V2000
  -28.1229   -1.3353   28.4874 O   0  0  0  0  0  0  0  0  0  0  0  0
  -27.4806   -0.4044   28.7094 C   0  0  0  0  0  0  0  0  0  0  0  0
  -26.3804   -0.0867   27.9394 C   0  0  0  0  0  0  0  0  0  0  0  0
  -27.8993    0.6459   29.6320 N   0  0  0  0  0  0  0  0  0  0  0  0
  -25.1243   -0.5319   28.3714 C   0  0  0  0  0  0  0  0  0  0  0  0
  -23.9129    0.2827   28.3242 C   0  0  0  0  0  0  0  0  0  0  0  0
  -23.9022    1.4022   27.4490 C   0  0  0  0  0  0  0  0  0  0  0  0
  -25.1773    1.7974   26.9001 C   0  0  0  0  0  0  0  0  0  0  0  0
  -26.2992    1.1814   27.1716 C   0  0  0  0  0  0  0  0  0  0  0  0
  -29.0818    0.3495   30.4116 C   0  0  0  0  0  0  0  0  0  0  0  0
  -22.6282    2.0680   27.2680 C   0  0  0  0  0  0  0  0  0  0  0  0
  -21.5155    1.4397   27.7336 N   0  0  0  0  0  0  0  0  0  0  0  0
  -22.5704   -0.1132   28.7702 C   0  0  0  0  0  0  0  0  0  0  0  0
  -21.4394    0.4987   28.5506 C   0  0  0  0  0  0  0  0  0  0  0  0
  -30.2984    0.5478   29.7789 C   0  0  0  0  0  0  0  0  0  0  0  0
  -30.4103    1.5211   28.9628 C   0  0  0  0  0  0  0  0  0  0  0  0
  -30.0190    2.6206   29.3817 N   0  0  0  0  0  0  0  0  0  0  0  0
  -30.2711    3.7632   28.8690 C   0  0  0  0  0  0  0  0  0  0  0  0
  -29.6640    5.0094   29.3569 C   0  0  0  0  0  0  0  0  0  0  0  0
  1  2  2  0
  2  3  1  0
  2  4  1  0
  4 10  1  0
 10 15  1  0
 15 16  1  0
 16 17  1  0
 17 18  2  3
 18 19  1  0
  3  5  2  0
  5  6  1  0
  7  8  1  0
  8  9  2  0
  9  3  1  0
  6  7  2  0
  7 11  1  0
 11 12  2  0
 12 14  1  0
 14 13  2  0
 13  6  1  0
M  END

$$$$
