No_2781-gen_results/8p0m/2024-11-26-14-13-15/
     RDKit          3D

 32 35  0  0  0  0  0  0  0  0999 V2000
  -28.0162   -0.8135   28.8779 C   0  0  0  0  0  0  0  0  0  0  0  0
  -28.4690   -0.7850   29.8287 C   0  0  0  0  0  0  0  0  0  0  0  0
  -26.5455   -0.8762   28.8500 C   0  0  0  0  0  0  0  0  0  0  0  0
  -25.8041   -1.0324   30.0571 C   0  0  0  0  0  0  0  0  0  0  0  0
  -27.9437   -0.9869   31.2075 C   0  0  0  0  0  0  0  0  0  0  0  0
  -26.5825   -1.0386   31.2231 C   0  0  0  0  0  0  0  0  0  0  0  0
  -29.9648   -0.7353   29.8902 N   0  0  0  0  0  0  0  0  0  0  0  0
  -30.7710   -1.5353   30.3549 C   0  0  0  0  0  0  0  0  0  0  0  0
  -32.1409   -1.3743   30.1446 C   0  0  0  0  0  0  0  0  0  0  0  0
  -30.5228    0.3286   29.1507 C   0  0  0  0  0  0  0  0  0  0  0  0
  -31.8136    0.5108   28.9368 C   0  0  0  0  0  0  0  0  0  0  0  0
  -32.2704    1.6011   28.1652 C   0  0  0  0  0  0  0  0  0  0  0  0
  -32.6122   -0.4499   29.5066 C   0  0  0  0  0  0  0  0  0  0  0  0
  -31.6261    2.3021   27.4896 O   0  0  0  0  0  0  0  0  0  0  0  0
  -33.5518    1.8437   28.2634 O   0  0  0  0  0  0  0  0  0  0  0  0
  -24.4711   -1.1421   30.0442 N   0  0  0  0  0  0  0  0  0  0  0  0
  -23.7145    0.0213   30.0394 C   0  0  0  0  0  0  0  0  0  0  0  0
  -22.3541   -0.0646   29.5518 C   0  0  0  0  0  0  0  0  0  0  0  0
  -23.8847   -1.9932   28.9602 C   0  0  0  0  0  0  0  0  0  0  0  0
  -22.2181   -0.6965   28.6737 C   0  0  0  0  0  0  0  0  0  0  0  0
  -22.6871   -1.9281   28.6054 N   0  0  0  0  0  0  0  0  0  0  0  0
  -24.5847   -3.1524   28.7705 N   0  0  0  0  0  0  0  0  0  0  0  0
  -24.0921    1.1545   30.9778 C   0  0  0  0  0  0  0  0  0  0  0  0
  -24.0064    2.4069   30.4211 N   0  0  0  0  0  0  0  0  0  0  0  0
  -24.5687    1.0281   32.1784 N   0  0  0  0  0  0  0  0  0  0  0  0
  -24.9999    2.2775   32.6653 C   0  0  0  0  0  0  0  0  0  0  0  0
  -25.8068    2.6196   33.6999 C   0  0  0  0  0  0  0  0  0  0  0  0
  -24.6508    3.3072   31.6244 C   0  0  0  0  0  0  0  0  0  0  0  0
  -26.1925    3.7780   33.8987 O   0  0  0  0  0  0  0  0  0  0  0  0
  -26.4914    1.5809   34.2497 O   0  0  0  0  0  0  0  0  0  0  0  0
  -25.3393   -3.9853   29.5990 C   0  0  0  0  0  0  0  0  0  0  0  0
  -25.8703   -5.0767   29.1098 N   0  0  0  0  0  0  0  0  0  0  0  0
  2  7  1  0
  7  8  1  0
  7 10  1  0
 11 12  1  0
  9 13  1  0
 11 13  1  0
 12 14  2  0
 12 15  1  0
  4 16  1  0
 16 17  1  0
 16 19  1  0
 18 20  1  0
 19 21  1  0
 20 21  1  0
 19 22  1  0
 17 23  1  0
 23 24  1  0
 23 25  2  0
 25 26  1  0
 26 27  1  0
 24 28  1  0
 26 28  1  0
 27 29  2  0
 27 30  1  0
 22 31  1  0
 31 32  2  0
 17 18  1  0
  8  9  1  0
 11 10  1  0
  1  2  2  0
  2  5  1  0
  5  6  2  0
  6  4  1  0
  4  3  2  0
  3  1  1  0
M  END

$$$$
