No_2343-gen_results/8p0m/2024-11-26-14-13-15/
     RDKit          3D

 33 36  0  0  0  0  0  0  0  0999 V2000
  -28.0727   -1.2542   28.5316 F   0  0  0  0  0  0  0  0  0  0  0  0
  -27.3591   -0.3792   28.7224 C   0  0  0  0  0  0  0  0  0  0  0  0
  -26.3323   -0.6441   29.4520 C   0  0  0  0  0  0  0  0  0  0  0  0
  -25.2562    0.3203   29.7818 C   0  0  0  0  0  0  0  0  0  0  0  0
  -25.4242    1.6275   29.2026 C   0  0  0  0  0  0  0  0  0  0  0  0
  -26.5263    1.8254   28.4032 C   0  0  0  0  0  0  0  0  0  0  0  0
  -27.4513    0.8601   28.1355 C   0  0  0  0  0  0  0  0  0  0  0  0
  -28.5399    1.2022   27.2448 C   0  0  0  0  0  0  0  0  0  0  0  0
  -29.4852    0.8770   27.0868 C   0  0  0  0  0  0  0  0  0  0  0  0
  -30.4923    1.2139   26.0511 C   0  0  0  0  0  0  0  0  0  0  0  0
  -30.0041    2.1667   25.1365 C   0  0  0  0  0  0  0  0  0  0  0  0
  -28.7203    2.6729   25.1781 C   0  0  0  0  0  0  0  0  0  0  0  0
  -27.8962    2.2733   26.2088 C   0  0  0  0  0  0  0  0  0  0  0  0
  -24.5285    2.5604   29.5114 O   0  0  0  0  0  0  0  0  0  0  0  0
  -26.0565   -1.9830   30.0936 C   0  0  0  0  0  0  0  0  0  0  0  0
  -25.0563   -2.5863   29.9800 O   0  0  0  0  0  0  0  0  0  0  0  0
  -27.1484   -2.5297   30.5835 O   0  0  0  0  0  0  0  0  0  0  0  0
  -31.0481    2.7255   23.8730 Cl  0  0  0  0  0  0  0  0  0  0  0  0
  -24.8944   -3.6731   29.0456 C   0  0  0  0  0  0  0  0  0  0  0  0
  -31.6917    0.7909   25.9156 F   0  0  0  0  0  0  0  0  0  0  0  0
  -23.9577    0.0427   30.7950 Cl  0  0  0  0  0  0  0  0  0  0  0  0
  -24.4122   -4.7176   29.6436 C   0  0  0  0  0  0  0  0  0  0  0  0
  -24.4850   -5.8563   28.5890 C   0  0  0  0  0  0  0  0  0  0  0  0
  -22.9689   -4.4947   29.5907 N   0  0  0  0  0  0  0  0  0  0  0  0
  -22.9529   -3.0823   29.5125 C   0  0  0  0  0  0  0  0  0  0  0  0
  -24.2572   -3.1670   28.0283 O   0  0  0  0  0  0  0  0  0  0  0  0
  -23.2958   -2.3794   28.1282 C   0  0  0  0  0  0  0  0  0  0  0  0
  -23.1246   -2.2867   30.5430 O   0  0  0  0  0  0  0  0  0  0  0  0
  -24.6012    3.5842   28.4568 C   0  0  0  0  0  0  0  0  0  0  0  0
  -25.4018    3.6013   27.3788 C   0  0  0  0  0  0  0  0  0  0  0  0
  -26.4658    2.7589   27.3938 C   0  0  0  0  0  0  0  0  0  0  0  0
  -26.8317    3.9334   27.1998 O   0  0  0  0  0  0  0  0  0  0  0  0
  -26.6667    1.9096   25.5060 C   0  0  0  0  0  0  0  0  0  0  0  0
  1  2  1  0
  7  8  1  0
  5 14  1  0
  3 15  1  0
 15 16  1  0
 15 17  2  0
 11 18  1  0
 16 19  1  0
 10 20  1  0
  4 21  1  0
 19 22  1  0
 22 23  1  0
 22 24  1  0
 24 25  1  0
 19 26  1  0
 25 27  1  0
 26 27  1  0
 25 28  1  0
 14 29  1  0
 29 30  2  0
  6 31  1  0
 30 31  1  0
 31 32  1  0
 13 33  1  0
  2  3  2  0
  3  4  1  0
  4  5  2  0
  5  6  1  0
  6  7  2  0
  7  2  1  0
  8  9  2  0
  9 10  1  0
 10 11  2  0
 11 12  1  0
 12 13  2  0
 13  8  1  0
M  END

$$$$
