No_279-gen_results/8p0m/2024-11-26-14-13-15/
     RDKit          3D

 30 33  0  0  0  0  0  0  0  0999 V2000
  -28.0162   -0.8135   28.8779 C   0  0  0  0  0  0  0  0  0  0  0  0
  -27.0636   -0.1189   28.6079 C   0  0  0  0  0  0  0  0  0  0  0  0
  -25.7647   -0.3897   29.0360 C   0  0  0  0  0  0  0  0  0  0  0  0
  -25.5296   -1.5302   29.9014 C   0  0  0  0  0  0  0  0  0  0  0  0
  -26.6577   -2.2915   30.2035 C   0  0  0  0  0  0  0  0  0  0  0  0
  -27.8548   -1.9555   29.7630 C   0  0  0  0  0  0  0  0  0  0  0  0
  -24.5349    0.4128   28.7431 C   0  0  0  0  0  0  0  0  0  0  0  0
  -24.4835    1.2431   27.7398 C   0  0  0  0  0  0  0  0  0  0  0  0
  -25.0977    1.6893   26.9916 C   0  0  0  0  0  0  0  0  0  0  0  0
  -24.7336    2.5972   25.9227 C   0  0  0  0  0  0  0  0  0  0  0  0
  -23.6012    3.0449   25.9144 C   0  0  0  0  0  0  0  0  0  0  0  0
  -22.9894    1.8291   27.7245 C   0  0  0  0  0  0  0  0  0  0  0  0
  -22.6488    2.7027   26.7948 C   0  0  0  0  0  0  0  0  0  0  0  0
  -23.4368    0.2216   29.7741 C   0  0  0  0  0  0  0  0  0  0  0  0
  -28.9284   -2.7159   30.0729 O   0  0  0  0  0  0  0  0  0  0  0  0
  -29.3003   -2.7994   31.4099 C   0  0  0  0  0  0  0  0  0  0  0  0
  -29.8903   -1.7616   31.9363 C   0  0  0  0  0  0  0  0  0  0  0  0
  -30.3466   -0.8251   31.2069 C   0  0  0  0  0  0  0  0  0  0  0  0
  -31.2257   -0.1597   31.4949 C   0  0  0  0  0  0  0  0  0  0  0  0
  -32.0696   -0.4428   32.3194 C   0  0  0  0  0  0  0  0  0  0  0  0
  -31.7016   -1.3835   33.3495 C   0  0  0  0  0  0  0  0  0  0  0  0
  -30.9938   -2.3290   32.9230 C   0  0  0  0  0  0  0  0  0  0  0  0
  -28.7658   -1.0901   32.8965 C   0  0  0  0  0  0  0  0  0  0  0  0
  -29.0411   -3.9830   31.8721 O   0  0  0  0  0  0  0  0  0  0  0  0
  -28.3326    0.1948   32.5320 C   0  0  0  0  0  0  0  0  0  0  0  0
  -28.0833    1.0652   33.6185 C   0  0  0  0  0  0  0  0  0  0  0  0
  -27.9570    2.2398   33.5292 C   0  0  0  0  0  0  0  0  0  0  0  0
  -27.8526    2.9139   32.2238 C   0  0  0  0  0  0  0  0  0  0  0  0
  -28.1337    2.0702   31.1399 C   0  0  0  0  0  0  0  0  0  0  0  0
  -28.4058    0.7685   31.3456 C   0  0  0  0  0  0  0  0  0  0  0  0
  3  7  1  0
  7  8  1  0
  7 14  1  0
  6 15  1  0
 15 16  1  0
 16 17  1  0
 17 18  1  0
 19 20  1  0
 17 22  1  0
 21 22  1  0
 17 23  1  0
 16 24  2  0
 23 25  1  0
 18 19  1  0
 20 21  1  0
  1  2  2  0
  2  3  1  0
  3  4  2  0
  4  5  1  0
  5  6  2  0
  6  1  1  0
 25 26  2  0
 26 27  1  0
 27 28  2  0
 28 29  1  0
 29 30  2  0
 30 25  1  0
  8  9  2  0
  9 10  1  0
 10 11  2  0
 11 13  1  0
 13 12  2  0
 12  8  1  0
M  END

$$$$
