No_239-gen_results/8p0m/2024-11-26-14-13-15/
     RDKit          3D

 21 22  0  0  0  0  0  0  0  0999 V2000
  -28.0162   -0.8135   28.8779 C   0  0  0  0  0  0  0  0  0  0  0  0
  -28.4690   -0.7850   29.8287 C   0  0  0  0  0  0  0  0  0  0  0  0
  -27.1356    0.2359   28.5352 C   0  0  0  0  0  0  0  0  0  0  0  0
  -26.8050    1.0509   29.2763 C   0  0  0  0  0  0  0  0  0  0  0  0
  -28.2372    0.1503   30.9300 C   0  0  0  0  0  0  0  0  0  0  0  0
  -27.3522    1.1239   30.6071 C   0  0  0  0  0  0  0  0  0  0  0  0
  -26.4705    0.1962   27.1308 C   0  0  0  0  0  0  0  0  0  0  0  0
  -27.0542    0.6657   26.1840 N   0  0  0  0  0  0  0  0  0  0  0  0
  -25.2775   -0.2992   27.0005 O   0  0  0  0  0  0  0  0  0  0  0  0
  -26.5794    0.6079   24.8130 C   0  0  0  0  0  0  0  0  0  0  0  0
  -28.4118    1.2687   26.2194 C   0  0  0  0  0  0  0  0  0  0  0  0
  -28.2500    2.6232   26.0144 C   0  0  0  0  0  0  0  0  0  0  0  0
  -29.3336    0.6563   25.2359 C   0  0  0  0  0  0  0  0  0  0  0  0
  -29.5187   -1.8983   30.3311 C   0  0  0  0  0  0  0  0  0  0  0  0
  -29.3756   -2.6386   31.0632 O   0  0  0  0  0  0  0  0  0  0  0  0
  -30.7249   -1.6446   29.8607 O   0  0  0  0  0  0  0  0  0  0  0  0
  -30.1260   -0.3087   25.5376 C   0  0  0  0  0  0  0  0  0  0  0  0
  -31.0308   -0.9579   24.6986 C   0  0  0  0  0  0  0  0  0  0  0  0
  -30.9770   -0.5232   23.4030 C   0  0  0  0  0  0  0  0  0  0  0  0
  -29.3925    0.9766   23.8873 C   0  0  0  0  0  0  0  0  0  0  0  0
  -30.1823    0.4340   22.9991 C   0  0  0  0  0  0  0  0  0  0  0  0
  3  7  1  0
  7  8  1  0
  7  9  2  0
  8 10  1  0
  8 11  1  0
 11 12  1  0
 11 13  1  0
  2 14  1  0
 14 15  2  0
 14 16  1  0
 13 17  2  0
 17 18  1  0
 18 19  2  0
 19 21  1  0
 21 20  2  0
 20 13  1  0
  1  2  2  0
  2  5  1  0
  5  6  2  0
  6  4  1  0
  4  3  2  0
  3  1  1  0
M  END

$$$$
