No_250-gen_results/8p0m/2024-11-26-14-13-15/
     RDKit          3D

 15 16  0  0  0  0  0  0  0  0999 V2000
  -28.1493   -0.8198   28.9079 Cl  0  0  0  0  0  0  0  0  0  0  0  0
  -26.9116   -0.0797   28.9452 C   0  0  0  0  0  0  0  0  0  0  0  0
  -25.9665   -0.2123   29.6235 C   0  0  0  0  0  0  0  0  0  0  0  0
  -24.7040    0.5534   29.6218 C   0  0  0  0  0  0  0  0  0  0  0  0
  -24.6011    1.5437   28.6212 C   0  0  0  0  0  0  0  0  0  0  0  0
  -25.6671    1.7162   27.8026 C   0  0  0  0  0  0  0  0  0  0  0  0
  -26.7607    0.9618   27.8836 C   0  0  0  0  0  0  0  0  0  0  0  0
  -23.3668    2.3130   28.5678 C   0  0  0  0  0  0  0  0  0  0  0  0
  -22.3918    1.6267   27.6201 C   0  0  0  0  0  0  0  0  0  0  0  0
  -27.8832    1.2083   26.9240 C   0  0  0  0  0  0  0  0  0  0  0  0
  -29.0104    1.4850   27.2407 C   0  0  0  0  0  0  0  0  0  0  0  0
  -30.0315    1.6241   26.2655 C   0  0  0  0  0  0  0  0  0  0  0  0
  -29.6450    1.6054   24.8969 C   0  0  0  0  0  0  0  0  0  0  0  0
  -27.5070    1.1481   25.5185 C   0  0  0  0  0  0  0  0  0  0  0  0
  -28.3626    1.3534   24.5692 C   0  0  0  0  0  0  0  0  0  0  0  0
  1  2  1  0
  5  8  1  0
  8  9  1  0
  7 10  1  0
  2  3  2  0
  3  4  1  0
  4  5  2  0
  5  6  1  0
  6  7  2  0
  7  2  1  0
 10 11  2  0
 11 12  1  0
 12 13  2  0
 13 15  1  0
 15 14  2  0
 14 10  1  0
M  END

$$$$
