No_2900-gen_results/8p0m/2024-11-26-14-13-15/
     RDKit          3D

 35 37  0  0  0  0  0  0  0  0999 V2000
  -28.1229   -1.3353   28.4874 O   0  0  0  0  0  0  0  0  0  0  0  0
  -27.4806   -0.4044   28.7094 C   0  0  0  0  0  0  0  0  0  0  0  0
  -26.3804   -0.0867   27.9394 C   0  0  0  0  0  0  0  0  0  0  0  0
  -27.6664    0.4468   29.8988 N   0  0  0  0  0  0  0  0  0  0  0  0
  -26.4086    0.8567   26.8802 C   0  0  0  0  0  0  0  0  0  0  0  0
  -25.0824   -0.6970   28.1699 C   0  0  0  0  0  0  0  0  0  0  0  0
  -25.2842    1.0488   26.0470 C   0  0  0  0  0  0  0  0  0  0  0  0
  -23.9159   -0.3440   27.4444 C   0  0  0  0  0  0  0  0  0  0  0  0
  -24.0618    0.5290   26.3707 C   0  0  0  0  0  0  0  0  0  0  0  0
  -28.7784    0.1033   30.7872 C   0  0  0  0  0  0  0  0  0  0  0  0
  -26.8454    1.5246   30.2211 C   0  0  0  0  0  0  0  0  0  0  0  0
  -26.0878    1.4823   31.0460 C   0  0  0  0  0  0  0  0  0  0  0  0
  -25.9041    0.8642   32.1683 C   0  0  0  0  0  0  0  0  0  0  0  0
  -26.7878    0.4063   32.8154 C   0  0  0  0  0  0  0  0  0  0  0  0
  -26.7528   -0.1241   34.1636 C   0  0  0  0  0  0  0  0  0  0  0  0
  -27.8883   -0.6753   34.8509 C   0  0  0  0  0  0  0  0  0  0  0  0
  -29.0588   -0.7763   34.1375 C   0  0  0  0  0  0  0  0  0  0  0  0
  -29.1804   -0.3405   32.8666 C   0  0  0  0  0  0  0  0  0  0  0  0
  -28.1979    0.1859   32.2566 C   0  0  0  0  0  0  0  0  0  0  0  0
  -29.7304    0.5740   30.4594 O   0  0  0  0  0  0  0  0  0  0  0  0
  -24.8934   -1.6214   29.3187 C   0  0  0  0  0  0  0  0  0  0  0  0
  -23.8623   -2.3130   29.6269 C   0  0  0  0  0  0  0  0  0  0  0  0
  -26.0516   -1.9556   30.1670 C   0  0  0  0  0  0  0  0  0  0  0  0
  -26.3365   -3.3360   30.3044 C   0  0  0  0  0  0  0  0  0  0  0  0
  -26.8304   -4.0050   29.4225 N   0  0  0  0  0  0  0  0  0  0  0  0
  -27.7337    1.4018   26.4699 C   0  0  0  0  0  0  0  0  0  0  0  0
  -28.7174    1.1032   26.3061 N   0  0  0  0  0  0  0  0  0  0  0  0
  -29.0613   -0.1297   25.8014 C   0  0  0  0  0  0  0  0  0  0  0  0
  -27.4169    2.7612   26.2766 O   0  0  0  0  0  0  0  0  0  0  0  0
  -30.1786   -0.0332   24.8635 C   0  0  0  0  0  0  0  0  0  0  0  0
  -30.8470   -1.3290   24.6083 C   0  0  0  0  0  0  0  0  0  0  0  0
  -30.5969   -2.2862   25.5137 C   0  0  0  0  0  0  0  0  0  0  0  0
  -31.5168   -3.4172   25.3998 C   0  0  0  0  0  0  0  0  0  0  0  0
  -32.8357   -3.1565   24.7855 C   0  0  0  0  0  0  0  0  0  0  0  0
  -33.0503   -2.0344   24.0590 C   0  0  0  0  0  0  0  0  0  0  0  0
  1  2  2  0
  2  3  1  0
  2  4  1  0
  4 10  1  0
  4 11  1  0
 11 12  2  0
 12 13  1  0
 10 19  1  0
 10 20  2  0
  6 21  1  0
 21 22  2  0
 21 23  1  0
 23 24  1  0
 24 25  1  0
  5 26  1  0
 26 27  1  0
 27 28  1  0
 26 29  2  0
 28 30  2  3
 30 31  1  0
 31 32  2  3
 32 33  1  0
 33 34  2  3
 34 35  1  0
 13 14  1  0
 14 15  2  0
 15 16  1  0
 16 17  2  0
 17 18  1  0
 18 19  2  0
 19 14  1  0
  3  5  2  0
  5  7  1  0
  7  9  2  0
  9  8  1  0
  8  6  2  0
  6  3  1  0
M  END

$$$$
