No_2653-gen_results/8p0m/2024-11-26-14-13-15/
     RDKit          3D

 35 38  0  0  0  0  0  0  0  0999 V2000
  -28.0162   -0.8135   28.8779 C   0  0  0  0  0  0  0  0  0  0  0  0
  -27.0636   -0.1189   28.6079 C   0  0  0  0  0  0  0  0  0  0  0  0
  -25.7647   -0.3897   29.0360 C   0  0  0  0  0  0  0  0  0  0  0  0
  -24.5516    0.4058   28.7646 C   0  0  0  0  0  0  0  0  0  0  0  0
  -23.2300    0.1178   29.2575 C   0  0  0  0  0  0  0  0  0  0  0  0
  -23.0942   -1.1309   29.8730 C   0  0  0  0  0  0  0  0  0  0  0  0
  -27.7980   -1.9341   29.8560 C   0  0  0  0  0  0  0  0  0  0  0  0
  -26.5420   -2.3269   30.2580 C   0  0  0  0  0  0  0  0  0  0  0  0
  -25.4514   -1.5516   29.9079 C   0  0  0  0  0  0  0  0  0  0  0  0
  -24.1562   -1.9097   30.2809 C   0  0  0  0  0  0  0  0  0  0  0  0
  -24.6450    1.6582   27.9464 C   0  0  0  0  0  0  0  0  0  0  0  0
  -24.8818    2.7021   28.4939 N   0  0  0  0  0  0  0  0  0  0  0  0
  -24.4409    1.5262   26.3061 Cl  0  0  0  0  0  0  0  0  0  0  0  0
  -25.0594    3.9158   27.7933 C   0  0  0  0  0  0  0  0  0  0  0  0
  -25.6823    5.0445   28.5373 C   0  0  0  0  0  0  0  0  0  0  0  0
  -26.8258    5.2517   28.2181 O   0  0  0  0  0  0  0  0  0  0  0  0
  -25.0370    5.6854   29.4269 O   0  0  0  0  0  0  0  0  0  0  0  0
  -29.0294   -2.7325   30.2465 C   0  0  0  0  0  0  0  0  0  0  0  0
  -30.0782   -2.1806   30.3361 O   0  0  0  0  0  0  0  0  0  0  0  0
  -28.7702   -3.9182   30.8807 N   0  0  0  0  0  0  0  0  0  0  0  0
  -29.8472   -4.8086   31.2838 C   0  0  0  0  0  0  0  0  0  0  0  0
  -30.6128   -5.2633   30.2585 C   0  0  0  0  0  0  0  0  0  0  0  0
  -30.4643   -5.0554   29.0479 C   0  0  0  0  0  0  0  0  0  0  0  0
  -31.1687   -5.6681   27.9497 C   0  0  0  0  0  0  0  0  0  0  0  0
  -32.0367   -6.7084   28.2734 C   0  0  0  0  0  0  0  0  0  0  0  0
  -32.6630   -7.3308   27.2084 C   0  0  0  0  0  0  0  0  0  0  0  0
  -31.4343   -6.4640   30.4716 C   0  0  0  0  0  0  0  0  0  0  0  0
  -32.0856   -7.1076   29.5408 C   0  0  0  0  0  0  0  0  0  0  0  0
  -33.7556   -6.5711   26.2894 Cl  0  0  0  0  0  0  0  0  0  0  0  0
  -32.2860   -8.7875   26.6929 C   0  0  0  0  0  0  0  0  0  0  0  0
  -31.9667   -8.9220   25.5775 C   0  0  0  0  0  0  0  0  0  0  0  0
  -31.1999  -10.0408   25.1575 C   0  0  0  0  0  0  0  0  0  0  0  0
  -30.9322  -11.0020   26.1271 C   0  0  0  0  0  0  0  0  0  0  0  0
  -31.2292  -10.7836   27.4527 C   0  0  0  0  0  0  0  0  0  0  0  0
  -31.7844   -9.5798   27.8080 C   0  0  0  0  0  0  0  0  0  0  0  0
  4 11  1  0
 11 12  1  0
 11 13  1  0
 12 14  1  0
 14 15  1  0
 15 16  2  0
 15 17  1  0
  7 18  1  0
 18 19  2  0
 18 20  1  0
 20 21  1  0
 21 22  1  0
 25 26  1  0
 26 29  1  0
 26 30  1  0
 22 23  2  0
 23 24  1  0
 24 25  2  0
 25 28  1  0
 28 27  2  0
 27 22  1  0
  1  2  2  0
  2  3  1  0
  9  8  1  0
  8  7  2  0
  7  1  1  0
 30 31  2  0
 31 32  1  0
 32 33  2  0
 33 34  1  0
 34 35  2  0
 35 30  1  0
  3  4  2  0
  4  5  1  0
  5  6  2  0
  6 10  1  0
 10  9  2  0
  9  3  1  0
M  END

$$$$
