No_2264-gen_results/8p0m/2024-11-26-14-13-15/
     RDKit          3D

 12 13  0  0  0  0  0  0  0  0999 V2000
  -28.0162   -0.8135   28.8779 C   0  0  0  0  0  0  0  0  0  0  0  0
  -27.0636   -0.1189   28.6079 C   0  0  0  0  0  0  0  0  0  0  0  0
  -27.0010    0.6913   27.4910 C   0  0  0  0  0  0  0  0  0  0  0  0
  -28.1373    0.7363   26.6350 C   0  0  0  0  0  0  0  0  0  0  0  0
  -29.2360    0.0765   27.0690 C   0  0  0  0  0  0  0  0  0  0  0  0
  -29.2658   -0.3923   28.1737 C   0  0  0  0  0  0  0  0  0  0  0  0
  -28.0752   -1.4886   30.0655 O   0  0  0  0  0  0  0  0  0  0  0  0
  -30.2399    0.3535   26.0556 N   0  0  0  0  0  0  0  0  0  0  0  0
  -31.3962   -0.2735   26.2932 C   0  0  0  0  0  0  0  0  0  0  0  0
  -31.6234   -1.0309   27.3319 C   0  0  0  0  0  0  0  0  0  0  0  0
  -30.5690   -1.1216   28.3731 C   0  0  0  0  0  0  0  0  0  0  0  0
  -28.1060    1.6184   25.5002 C   0  0  0  0  0  0  0  0  0  0  0  0
  1  7  1  0
  4 12  1  0
  6 11  2  0
 11 10  1  0
 10  9  2  0
  9  8  1  0
  8  5  2  0
  1  2  2  0
  2  3  1  0
  3  4  2  0
  4  5  1  0
  5  6  1  0
  6  1  1  0
M  END

$$$$
