No_2884-gen_results/8p0m/2024-11-26-14-13-15/
     RDKit          3D

  9  9  0  0  0  0  0  0  0  0999 V2000
  -28.0162   -0.8135   28.8779 C   0  0  0  0  0  0  0  0  0  0  0  0
  -28.4690   -0.7850   29.8287 C   0  0  0  0  0  0  0  0  0  0  0  0
  -26.5042   -0.7777   28.8766 C   0  0  0  0  0  0  0  0  0  0  0  0
  -25.8305   -1.6807   29.6849 C   0  0  0  0  0  0  0  0  0  0  0  0
  -28.0065   -1.6474   31.0141 C   0  0  0  0  0  0  0  0  0  0  0  0
  -26.6094   -1.9242   30.9641 C   0  0  0  0  0  0  0  0  0  0  0  0
  -30.0124   -0.5741   29.9983 C   0  0  0  0  0  0  0  0  0  0  0  0
  -30.2777    0.5236   30.6225 O   0  0  0  0  0  0  0  0  0  0  0  0
  -30.8204   -1.3396   29.4547 O   0  0  0  0  0  0  0  0  0  0  0  0
  2  7  1  0
  7  8  2  0
  7  9  1  0
  1  2  2  0
  2  5  1  0
  5  6  2  0
  6  4  1  0
  4  3  2  0
  3  1  1  0
M  END

$$$$
