No_2227-gen_results/8p0m/2024-11-26-14-13-15/
     RDKit          3D

 12 13  0  0  0  0  0  0  0  0999 V2000
  -28.0162   -0.8135   28.8779 C   0  0  0  0  0  0  0  0  0  0  0  0
  -28.4690   -0.7850   29.8287 C   0  0  0  0  0  0  0  0  0  0  0  0
  -26.5042   -0.7777   28.8766 C   0  0  0  0  0  0  0  0  0  0  0  0
  -25.7622   -0.0022   27.9705 C   0  0  0  0  0  0  0  0  0  0  0  0
  -27.9832   -1.4903   31.0818 C   0  0  0  0  0  0  0  0  0  0  0  0
  -26.6062   -1.5983   31.1298 C   0  0  0  0  0  0  0  0  0  0  0  0
  -25.8085   -1.2512   30.0553 C   0  0  0  0  0  0  0  0  0  0  0  0
  -26.1743    0.3804   26.8199 C   0  0  0  0  0  0  0  0  0  0  0  0
  -25.7699    1.0752   26.0854 C   0  0  0  0  0  0  0  0  0  0  0  0
  -24.3347    1.5663   26.0870 C   0  0  0  0  0  0  0  0  0  0  0  0
  -23.7135    1.1666   27.3342 C   0  0  0  0  0  0  0  0  0  0  0  0
  -24.3806    0.4855   28.2199 C   0  0  0  0  0  0  0  0  0  0  0  0
  1  2  1  0
  1  3  1  0
  2  5  1  0
  5  6  1  0
  3  7  1  0
  6  7  1  0
  3  4  1  0
  4  8  2  0
  8  9  1  0
  9 10  2  0
 10 11  1  0
 11 12  2  0
 12  4  1  0
M  END

$$$$
