No_2257-gen_results/8p0m/2024-11-26-14-13-15/
     RDKit          3D

  7  6  0  0  0  0  0  0  0  0999 V2000
  -28.0727   -1.2542   28.5316 F   0  0  0  0  0  0  0  0  0  0  0  0
  -27.0607   -0.6291   28.8721 C   0  0  0  0  0  0  0  0  0  0  0  0
  -26.4722   -0.5474   28.0086 F   0  0  0  0  0  0  0  0  0  0  0  0
  -26.4368   -1.4050   29.8551 F   0  0  0  0  0  0  0  0  0  0  0  0
  -27.3897    0.6485   29.6104 C   0  0  0  0  0  0  0  0  0  0  0  0
  -27.2396    0.7707   30.9089 C   0  0  0  0  0  0  0  0  0  0  0  0
  -26.5645   -0.3014   31.6817 C   0  0  0  0  0  0  0  0  0  0  0  0
  1  2  1  0
  2  3  1  0
  2  4  1  0
  2  5  1  0
  5  6  2  3
  6  7  1  0
M  END

$$$$
