No_2407-gen_results/8p0m/2024-11-26-14-13-15/
     RDKit          3D

 19 20  0  0  0  0  0  0  0  0999 V2000
  -28.1229   -1.3353   28.4874 O   0  0  0  0  0  0  0  0  0  0  0  0
  -28.5208   -0.4363   29.0779 C   0  0  0  0  0  0  0  0  0  0  0  0
  -27.6655    0.1129   30.0346 C   0  0  0  0  0  0  0  0  0  0  0  0
  -29.5662    0.3302   28.6099 N   0  0  0  0  0  0  0  0  0  0  0  0
  -26.9528   -0.6475   30.7643 C   0  0  0  0  0  0  0  0  0  0  0  0
  -30.3151   -0.1911   27.5679 C   0  0  0  0  0  0  0  0  0  0  0  0
  -30.1958    1.2125   29.6650 C   0  0  0  0  0  0  0  0  0  0  0  0
  -30.8338    0.7100   30.5609 C   0  0  0  0  0  0  0  0  0  0  0  0
  -31.3461    1.5224   31.4932 C   0  0  0  0  0  0  0  0  0  0  0  0
  -31.3430    2.9190   31.3256 C   0  0  0  0  0  0  0  0  0  0  0  0
  -29.9244    2.5774   29.3313 C   0  0  0  0  0  0  0  0  0  0  0  0
  -30.5569    3.4679   30.2560 C   0  0  0  0  0  0  0  0  0  0  0  0
  -25.7983   -0.7081   30.8495 C   0  0  0  0  0  0  0  0  0  0  0  0
  -25.0531   -0.5436   30.1462 C   0  0  0  0  0  0  0  0  0  0  0  0
  -23.5834   -0.6708   30.3156 C   0  0  0  0  0  0  0  0  0  0  0  0
  -22.7095   -0.1839   29.6198 C   0  0  0  0  0  0  0  0  0  0  0  0
  -23.0408    0.3557   28.3200 C   0  0  0  0  0  0  0  0  0  0  0  0
  -24.3682    0.4334   28.0383 C   0  0  0  0  0  0  0  0  0  0  0  0
  -25.3146   -0.0086   28.9174 C   0  0  0  0  0  0  0  0  0  0  0  0
  1  2  2  0
  2  3  1  0
  2  4  1  0
  3  5  1  0
  4  6  1  0
  4  7  1  0
  5 13  1  0
 13 14  1  0
  7  8  2  0
  8  9  1  0
  9 10  2  0
 10 12  1  0
 12 11  2  0
 11  7  1  0
 14 15  2  0
 15 16  1  0
 16 17  2  0
 17 18  1  0
 18 19  2  0
 19 14  1  0
M  END

$$$$
