No_207-gen_results/8p0m/2024-11-26-14-13-15/
     RDKit          3D

 19 19  0  0  0  0  0  0  0  0999 V2000
  -28.0162   -0.8135   28.8779 C   0  0  0  0  0  0  0  0  0  0  0  0
  -27.0636   -0.1190   28.6079 C   0  0  0  0  0  0  0  0  0  0  0  0
  -26.9716    0.7139   27.5060 C   0  0  0  0  0  0  0  0  0  0  0  0
  -25.8205    1.4909   27.1160 C   0  0  0  0  0  0  0  0  0  0  0  0
  -24.8579    1.3421   27.6008 C   0  0  0  0  0  0  0  0  0  0  0  0
  -24.6224    0.5295   28.8144 C   0  0  0  0  0  0  0  0  0  0  0  0
  -25.7344   -0.1811   29.1908 C   0  0  0  0  0  0  0  0  0  0  0  0
  -28.6149   -0.5622   30.1538 N   0  0  0  0  0  0  0  0  0  0  0  0
  -23.5208    2.1265   27.2931 C   0  0  0  0  0  0  0  0  0  0  0  0
  -23.4121    2.4126   26.1656 F   0  0  0  0  0  0  0  0  0  0  0  0
  -23.4062    3.2838   28.0440 F   0  0  0  0  0  0  0  0  0  0  0  0
  -22.3437    1.4419   27.6630 F   0  0  0  0  0  0  0  0  0  0  0  0
  -29.4789   -0.3368   30.6131 C   0  0  0  0  0  0  0  0  0  0  0  0
  -30.6133    0.0191   29.7806 C   0  0  0  0  0  0  0  0  0  0  0  0
  -30.5162    0.5865   28.7380 C   0  0  0  0  0  0  0  0  0  0  0  0
  -31.6289    0.9270   27.8480 C   0  0  0  0  0  0  0  0  0  0  0  0
  -31.4250    1.5595   26.6367 C   0  0  0  0  0  0  0  0  0  0  0  0
  -30.1141    1.9389   26.2668 C   0  0  0  0  0  0  0  0  0  0  0  0
  -29.1096    1.7405   27.0804 C   0  0  0  0  0  0  0  0  0  0  0  0
  1  8  1  0
  5  9  1  0
  9 10  1  0
  9 11  1  0
  9 12  1  0
  8 13  2  3
 13 14  1  0
 14 15  2  3
 15 16  1  0
 16 17  2  3
 17 18  1  0
 18 19  2  0
  1  2  1  0
  2  3  2  0
  3  4  1  0
  4  5  2  0
  5  6  1  0
  6  7  2  0
  7  2  1  0
M  END

$$$$
