No_2043-gen_results/8p0m/2024-11-26-14-13-15/
     RDKit          3D

 28 31  0  0  0  0  0  0  0  0999 V2000
  -28.0162   -0.8135   28.8779 C   0  0  0  0  0  0  0  0  0  0  0  0
  -27.0636   -0.1189   28.6079 C   0  0  0  0  0  0  0  0  0  0  0  0
  -26.9287    1.1713   29.0083 C   0  0  0  0  0  0  0  0  0  0  0  0
  -27.9560    1.7411   29.7840 C   0  0  0  0  0  0  0  0  0  0  0  0
  -29.0569   -0.3271   29.7466 C   0  0  0  0  0  0  0  0  0  0  0  0
  -28.9828    0.9722   30.1516 C   0  0  0  0  0  0  0  0  0  0  0  0
  -25.8680   -0.3972   27.8399 N   0  0  0  0  0  0  0  0  0  0  0  0
  -25.2421    0.4832   27.1754 C   0  0  0  0  0  0  0  0  0  0  0  0
  -25.1084    1.7388   27.5723 C   0  0  0  0  0  0  0  0  0  0  0  0
  -26.1219    2.1638   28.4318 C   0  0  0  0  0  0  0  0  0  0  0  0
  -24.1036    2.5931   26.9123 C   0  0  0  0  0  0  0  0  0  0  0  0
  -23.9683    3.7854   27.4190 N   0  0  0  0  0  0  0  0  0  0  0  0
  -23.1262    2.1515   26.2353 O   0  0  0  0  0  0  0  0  0  0  0  0
  -30.1042   -1.3065   30.1968 C   0  0  0  0  0  0  0  0  0  0  0  0
  -30.7239   -0.9753   31.2737 O   0  0  0  0  0  0  0  0  0  0  0  0
  -30.2912   -2.3192   29.6062 O   0  0  0  0  0  0  0  0  0  0  0  0
  -25.0647    4.4165   28.1619 C   0  0  0  0  0  0  0  0  0  0  0  0
  -26.0025    3.5905   28.7854 C   0  0  0  0  0  0  0  0  0  0  0  0
  -24.9626    5.6402   28.4338 F   0  0  0  0  0  0  0  0  0  0  0  0
  -25.3426   -1.7972   28.0800 C   0  0  0  0  0  0  0  0  0  0  0  0
  -24.0818   -1.7274   28.8269 C   0  0  0  0  0  0  0  0  0  0  0  0
  -24.1367   -1.4692   30.2318 C   0  0  0  0  0  0  0  0  0  0  0  0
  -24.9769   -1.9292   31.0162 C   0  0  0  0  0  0  0  0  0  0  0  0
  -25.0970   -1.3705   32.3860 C   0  0  0  0  0  0  0  0  0  0  0  0
  -24.1714   -0.4334   32.7267 C   0  0  0  0  0  0  0  0  0  0  0  0
  -23.1137   -0.5359   30.8571 C   0  0  0  0  0  0  0  0  0  0  0  0
  -23.2494   -0.0723   32.0427 N   0  0  0  0  0  0  0  0  0  0  0  0
  -22.1029   -0.0959   29.9924 N   0  0  0  0  0  0  0  0  0  0  0  0
  2  7  1  0
  7  8  1  0
  3 10  1  0
  9 10  1  0
  9 11  1  0
 11 12  1  0
 11 13  2  0
  5 14  1  0
 14 15  1  0
 14 16  2  0
 12 17  1  0
 10 18  1  0
 17 19  1  0
  7 20  1  0
 20 21  1  0
 21 22  1  0
 26 28  1  0
  9  8  1  0
 18 17  1  0
  1  2  2  0
  2  3  1  0
  3  4  2  0
  4  6  1  0
  6  5  2  0
  5  1  1  0
 22 23  2  0
 23 24  1  0
 24 25  2  0
 25 27  1  0
 27 26  2  0
 26 22  1  0
M  END

$$$$
