No_2426-gen_results/8p0m/2024-11-26-14-13-15/
     RDKit          3D

 26 28  0  0  0  0  0  0  0  0999 V2000
  -28.1229   -1.3353   28.4874 O   0  0  0  0  0  0  0  0  0  0  0  0
  -27.0637   -0.8242   28.8687 C   0  0  0  0  0  0  0  0  0  0  0  0
  -26.4017   -0.0623   28.6224 C   0  0  0  0  0  0  0  0  0  0  0  0
  -26.2652   -1.8674   29.7609 N   0  0  0  0  0  0  0  0  0  0  0  0
  -25.0436    0.3924   29.0662 C   0  0  0  0  0  0  0  0  0  0  0  0
  -24.4726   -0.5445   29.9870 C   0  0  0  0  0  0  0  0  0  0  0  0
  -25.1332   -1.6696   30.2893 C   0  0  0  0  0  0  0  0  0  0  0  0
  -26.9049    1.1098   27.6518 C   0  0  0  0  0  0  0  0  0  0  0  0
  -26.1345    1.7175   26.8119 C   0  0  0  0  0  0  0  0  0  0  0  0
  -26.5551    2.4858   25.8779 C   0  0  0  0  0  0  0  0  0  0  0  0
  -27.9765    2.6663   25.6429 C   0  0  0  0  0  0  0  0  0  0  0  0
  -28.8068    1.9719   26.5087 C   0  0  0  0  0  0  0  0  0  0  0  0
  -28.3111    1.1223   27.4330 C   0  0  0  0  0  0  0  0  0  0  0  0
  -27.0724   -3.0947   30.1323 C   0  0  0  0  0  0  0  0  0  0  0  0
  -23.0807   -0.2273   30.4460 C   0  0  0  0  0  0  0  0  0  0  0  0
  -22.4472    0.7700   30.0479 O   0  0  0  0  0  0  0  0  0  0  0  0
  -22.5617   -0.9517   31.4819 O   0  0  0  0  0  0  0  0  0  0  0  0
  -28.2582   -3.0008   30.8667 C   0  0  0  0  0  0  0  0  0  0  0  0
  -28.9955   -4.1924   31.0107 C   0  0  0  0  0  0  0  0  0  0  0  0
  -30.2484   -4.1148   31.6065 C   0  0  0  0  0  0  0  0  0  0  0  0
  -31.1286   -5.1848   31.4945 C   0  0  0  0  0  0  0  0  0  0  0  0
  -30.7642   -6.2936   30.7526 C   0  0  0  0  0  0  0  0  0  0  0  0
  -29.5510   -6.2787   30.0633 C   0  0  0  0  0  0  0  0  0  0  0  0
  -28.6761   -5.2314   30.1860 C   0  0  0  0  0  0  0  0  0  0  0  0
  -31.7344   -7.6932   30.5824 Cl  0  0  0  0  0  0  0  0  0  0  0  0
  -26.1568   -3.9829   30.4314 O   0  0  0  0  0  0  0  0  0  0  0  0
  1  2  2  0
  2  3  1  0
  2  4  1  0
  5  6  1  0
  4  7  1  0
  3  8  1  0
  4 14  1  0
  6 15  1  0
 15 16  2  0
 15 17  1  0
 14 18  1  0
 22 25  1  0
 14 26  2  0
 18 19  1  0
  3  5  1  0
  6  7  1  0
 19 20  2  0
 20 21  1  0
 21 22  2  0
 22 23  1  0
 23 24  2  0
 24 19  1  0
  8  9  2  0
  9 10  1  0
 10 11  2  0
 11 12  1  0
 12 13  2  0
 13  8  1  0
M  END

$$$$
