No_2693-gen_results/8p0m/2024-11-26-14-13-15/
     RDKit          3D

 25 27  0  0  0  0  0  0  0  0999 V2000
  -28.1493   -0.8198   28.9079 Cl  0  0  0  0  0  0  0  0  0  0  0  0
  -26.9116   -0.0797   28.9452 C   0  0  0  0  0  0  0  0  0  0  0  0
  -26.0490   -0.0718   27.8591 C   0  0  0  0  0  0  0  0  0  0  0  0
  -24.6574   -0.0370   27.9638 C   0  0  0  0  0  0  0  0  0  0  0  0
  -24.0330    0.3795   29.2055 C   0  0  0  0  0  0  0  0  0  0  0  0
  -24.8800    0.4305   30.3096 C   0  0  0  0  0  0  0  0  0  0  0  0
  -26.1988    0.1664   30.1892 C   0  0  0  0  0  0  0  0  0  0  0  0
  -22.6193    0.6104   29.2241 C   0  0  0  0  0  0  0  0  0  0  0  0
  -21.8026    1.4068   28.9086 N   0  0  0  0  0  0  0  0  0  0  0  0
  -21.9009   -0.6120   29.7378 N   0  0  0  0  0  0  0  0  0  0  0  0
  -20.5439    0.9547   28.5704 C   0  0  0  0  0  0  0  0  0  0  0  0
  -20.6412   -0.2621   29.1641 N   0  0  0  0  0  0  0  0  0  0  0  0
  -27.2001    0.2212   31.6326 Cl  0  0  0  0  0  0  0  0  0  0  0  0
  -26.5101   -0.4330   26.6331 O   0  0  0  0  0  0  0  0  0  0  0  0
  -26.5191    0.6493   25.7168 C   0  0  0  0  0  0  0  0  0  0  0  0
  -27.6024    0.3720   24.8275 C   0  0  0  0  0  0  0  0  0  0  0  0
  -28.5729   -0.5053   25.1502 C   0  0  0  0  0  0  0  0  0  0  0  0
  -29.7262   -0.6437   24.1532 C   0  0  0  0  0  0  0  0  0  0  0  0
  -30.7172   -0.1016   24.4234 C   0  0  0  0  0  0  0  0  0  0  0  0
  -30.8984    0.9678   25.2587 C   0  0  0  0  0  0  0  0  0  0  0  0
  -31.9926    1.8410   24.9630 C   0  0  0  0  0  0  0  0  0  0  0  0
  -33.0900    1.4093   24.2240 C   0  0  0  0  0  0  0  0  0  0  0  0
  -32.9764    0.2838   23.4281 C   0  0  0  0  0  0  0  0  0  0  0  0
  -31.8054   -0.4271   23.4341 C   0  0  0  0  0  0  0  0  0  0  0  0
  -25.6956    1.4662   25.5945 O   0  0  0  0  0  0  0  0  0  0  0  0
  1  2  1  0
  5  8  1  0
  8  9  2  0
  8 10  1  0
  9 11  1  0
 10 12  1  0
 11 12  2  0
  7 13  1  0
  3 14  1  0
 14 15  1  0
 15 16  1  0
 16 17  1  0
 17 18  2  3
 18 19  1  0
 15 25  2  0
  2  3  2  0
  3  4  1  0
  4  5  2  0
  5  6  1  0
  6  7  2  0
  7  2  1  0
 19 20  2  0
 20 21  1  0
 21 22  2  0
 22 23  1  0
 23 24  2  0
 24 19  1  0
M  END

$$$$
