No_2463-gen_results/8p0m/2024-11-26-14-13-15/
     RDKit          3D

 22 23  0  0  0  0  0  0  0  0999 V2000
  -28.0162   -0.8135   28.8779 C   0  0  0  0  0  0  0  0  0  0  0  0
  -27.0636   -0.1189   28.6079 C   0  0  0  0  0  0  0  0  0  0  0  0
  -25.7647   -0.3897   29.0360 C   0  0  0  0  0  0  0  0  0  0  0  0
  -25.5296   -1.5302   29.9014 C   0  0  0  0  0  0  0  0  0  0  0  0
  -26.6577   -2.2915   30.2035 C   0  0  0  0  0  0  0  0  0  0  0  0
  -27.8548   -1.9555   29.7630 C   0  0  0  0  0  0  0  0  0  0  0  0
  -24.5349    0.4128   28.7431 C   0  0  0  0  0  0  0  0  0  0  0  0
  -23.3062    0.0366   29.0393 C   0  0  0  0  0  0  0  0  0  0  0  0
  -22.1759    0.8277   28.6836 C   0  0  0  0  0  0  0  0  0  0  0  0
  -22.3552    1.8290   27.6875 C   0  0  0  0  0  0  0  0  0  0  0  0
  -24.5941    1.4954   27.7678 C   0  0  0  0  0  0  0  0  0  0  0  0
  -23.5500    2.1700   27.3300 C   0  0  0  0  0  0  0  0  0  0  0  0
  -29.0227   -2.7733   30.1850 C   0  0  0  0  0  0  0  0  0  0  0  0
  -30.1512   -2.3592   30.2143 N   0  0  0  0  0  0  0  0  0  0  0  0
  -28.7727   -3.9867   30.6028 O   0  0  0  0  0  0  0  0  0  0  0  0
  -31.3424   -3.1597   30.5961 C   0  0  0  0  0  0  0  0  0  0  0  0
  -31.4225   -3.9898   31.2673 C   0  0  0  0  0  0  0  0  0  0  0  0
  -32.4893   -2.5770   29.8530 C   0  0  0  0  0  0  0  0  0  0  0  0
  -32.5529   -1.3309   29.3815 C   0  0  0  0  0  0  0  0  0  0  0  0
  -33.2626   -0.9857   28.3485 C   0  0  0  0  0  0  0  0  0  0  0  0
  -34.2038   -1.8815   27.8203 C   0  0  0  0  0  0  0  0  0  0  0  0
  -34.2012   -3.1981   28.2566 C   0  0  0  0  0  0  0  0  0  0  0  0
  3  7  1  0
  6 13  1  0
 13 14  1  0
 13 15  2  0
 14 16  1  0
 16 17  1  0
 16 18  1  0
 18 19  2  3
 19 20  1  0
 20 21  2  3
 21 22  1  0
  7  8  2  0
  8  9  1  0
  9 10  2  0
 10 12  1  0
 12 11  2  0
 11  7  1  0
  1  2  2  0
  2  3  1  0
  3  4  2  0
  4  5  1  0
  5  6  2  0
  6  1  1  0
M  END

$$$$
