No_2848-gen_results/8p0m/2024-11-26-14-13-15/
     RDKit          3D

 19 20  0  0  0  0  0  0  0  0999 V2000
  -28.0162   -0.8135   28.8779 C   0  0  0  0  0  0  0  0  0  0  0  0
  -27.0636   -0.1189   28.6079 C   0  0  0  0  0  0  0  0  0  0  0  0
  -26.9716    0.7139   27.5060 C   0  0  0  0  0  0  0  0  0  0  0  0
  -28.1053    0.7744   26.6421 C   0  0  0  0  0  0  0  0  0  0  0  0
  -29.2008    0.1044   27.0527 C   0  0  0  0  0  0  0  0  0  0  0  0
  -28.0219   -1.5899   30.0879 C   0  0  0  0  0  0  0  0  0  0  0  0
  -29.1640   -0.6394   28.1484 C   0  0  0  0  0  0  0  0  0  0  0  0
  -28.8376   -1.8977   30.7662 N   0  0  0  0  0  0  0  0  0  0  0  0
  -26.7856   -1.9477   30.5474 O   0  0  0  0  0  0  0  0  0  0  0  0
  -28.8380   -2.8804   31.8973 C   0  0  0  0  0  0  0  0  0  0  0  0
  -30.3883    0.2139   26.1798 C   0  0  0  0  0  0  0  0  0  0  0  0
  -30.9482    1.1289   26.2711 F   0  0  0  0  0  0  0  0  0  0  0  0
  -31.1852   -0.8422   26.5529 F   0  0  0  0  0  0  0  0  0  0  0  0
  -30.0670   -0.1140   24.9048 F   0  0  0  0  0  0  0  0  0  0  0  0
  -25.7002    1.4018   27.0774 C   0  0  0  0  0  0  0  0  0  0  0  0
  -24.5766    0.9664   27.5728 C   0  0  0  0  0  0  0  0  0  0  0  0
  -23.3666    1.7321   27.4337 C   0  0  0  0  0  0  0  0  0  0  0  0
  -23.4727    2.6735   26.3836 C   0  0  0  0  0  0  0  0  0  0  0  0
  -25.2308    2.5563   26.2871 C   0  0  0  0  0  0  0  0  0  0  0  0
  1  6  1  0
  6  8  1  0
  6  9  2  0
  8 10  1  0
  5 11  1  0
 11 12  1  0
 11 13  1  0
 11 14  1  0
  3 15  1  0
 15 16  1  0
 16 17  2  0
 17 18  1  0
 15 19  1  0
 18 19  1  0
  1  2  2  0
  2  3  1  0
  3  4  2  0
  4  5  1  0
  5  7  2  0
  7  1  1  0
M  END

$$$$
