No_2696-gen_results/8p0m/2024-11-26-14-13-15/
     RDKit          3D

 23 23  0  0  0  0  0  0  0  0999 V2000
  -28.0162   -0.8135   28.8779 C   0  0  0  0  0  0  0  0  0  0  0  0
  -27.0636   -0.1190   28.6079 C   0  0  0  0  0  0  0  0  0  0  0  0
  -26.9287    1.1713   29.0083 C   0  0  0  0  0  0  0  0  0  0  0  0
  -25.7702    2.0341   28.6884 C   0  0  0  0  0  0  0  0  0  0  0  0
  -24.7141    1.4431   27.9188 C   0  0  0  0  0  0  0  0  0  0  0  0
  -24.8590    0.0783   27.5836 C   0  0  0  0  0  0  0  0  0  0  0  0
  -25.9647   -0.6606   27.9164 C   0  0  0  0  0  0  0  0  0  0  0  0
  -28.0422   -1.5426   30.2417 C   0  0  0  0  0  0  0  0  0  0  0  0
  -27.0190   -1.6622   30.7927 C   0  0  0  0  0  0  0  0  0  0  0  0
  -29.3225   -2.1909   30.6052 C   0  0  0  0  0  0  0  0  0  0  0  0
  -29.2121   -3.2952   30.8973 F   0  0  0  0  0  0  0  0  0  0  0  0
  -30.2347   -2.0780   29.6528 F   0  0  0  0  0  0  0  0  0  0  0  0
  -29.7283   -1.4665   31.6853 F   0  0  0  0  0  0  0  0  0  0  0  0
  -23.5302    2.1722   27.5761 C   0  0  0  0  0  0  0  0  0  0  0  0
  -23.3591    3.0023   27.0232 O   0  0  0  0  0  0  0  0  0  0  0  0
  -22.4018    1.6960   28.3143 O   0  0  0  0  0  0  0  0  0  0  0  0
  -21.7290    0.5792   27.8556 C   0  0  0  0  0  0  0  0  0  0  0  0
  -26.4492   -0.8390   31.5968 O   0  0  0  0  0  0  0  0  0  0  0  0
  -26.3335   -2.8401   30.9146 O   0  0  0  0  0  0  0  0  0  0  0  0
  -27.9614    1.9800   29.7901 C   0  0  0  0  0  0  0  0  0  0  0  0
  -27.9709    3.0082   29.6474 F   0  0  0  0  0  0  0  0  0  0  0  0
  -27.7291    1.4973   31.1221 F   0  0  0  0  0  0  0  0  0  0  0  0
  -29.1799    1.4461   29.3270 F   0  0  0  0  0  0  0  0  0  0  0  0
  1  2  1  0
  1  8  1  0
  8  9  1  0
  8 10  1  0
 10 11  1  0
 10 12  1  0
 10 13  1  0
  5 14  1  0
 14 15  2  0
 14 16  1  0
 16 17  1  0
  9 18  2  0
  9 19  1  0
  3 20  1  0
 20 21  1  0
 20 22  1  0
 20 23  1  0
  2  3  2  0
  3  4  1  0
  4  5  2  0
  5  6  1  0
  6  7  2  0
  7  2  1  0
M  END

$$$$
