No_2714-gen_results/8p0m/2024-11-26-14-13-15/
     RDKit          3D

 31 32  0  0  0  0  0  0  0  0999 V2000
  -28.1229   -1.3353   28.4874 O   0  0  0  0  0  0  0  0  0  0  0  0
  -27.0637   -0.8242   28.8687 C   0  0  0  0  0  0  0  0  0  0  0  0
  -26.9592    0.0926   29.7582 C   0  0  0  0  0  0  0  0  0  0  0  0
  -25.8472   -1.5491   28.6589 N   0  0  0  0  0  0  0  0  0  0  0  0
  -26.2626    1.1912   29.7698 P   0  0  0  0  0  0  0  0  0  0  0  0
  -26.2420    2.0393   28.6709 O   0  0  0  0  0  0  0  0  0  0  0  0
  -24.8122    1.1250   30.3748 O   0  0  0  0  0  0  0  0  0  0  0  0
  -26.8008    2.2614   30.9867 O   0  0  0  0  0  0  0  0  0  0  0  0
  -25.5501    1.6692   27.6472 C   0  0  0  0  0  0  0  0  0  0  0  0
  -24.1385    1.7824   27.6652 C   0  0  0  0  0  0  0  0  0  0  0  0
  -25.9885    2.3532   26.3495 C   0  0  0  0  0  0  0  0  0  0  0  0
  -23.3451    0.6168   27.8685 C   0  0  0  0  0  0  0  0  0  0  0  0
  -22.1435    0.8138   28.5812 C   0  0  0  0  0  0  0  0  0  0  0  0
  -21.1153    0.6539   27.8853 C   0  0  0  0  0  0  0  0  0  0  0  0
  -21.1476    1.5045   26.9641 C   0  0  0  0  0  0  0  0  0  0  0  0
  -22.3778    1.8297   26.3322 C   0  0  0  0  0  0  0  0  0  0  0  0
  -23.5469    2.3677   26.7969 C   0  0  0  0  0  0  0  0  0  0  0  0
  -26.4868    1.4338   25.4804 N   0  0  0  0  0  0  0  0  0  0  0  0
  -27.6842    1.5423   24.8210 C   0  0  0  0  0  0  0  0  0  0  0  0
  -28.6346    2.5008   25.2150 C   0  0  0  0  0  0  0  0  0  0  0  0
  -29.6635    2.2367   25.6089 C   0  0  0  0  0  0  0  0  0  0  0  0
  -30.5915    3.1828   26.2796 C   0  0  0  0  0  0  0  0  0  0  0  0
  -30.1314    4.5145   26.3645 C   0  0  0  0  0  0  0  0  0  0  0  0
  -28.8513    4.8578   25.9323 C   0  0  0  0  0  0  0  0  0  0  0  0
  -28.0644    3.8933   25.4366 C   0  0  0  0  0  0  0  0  0  0  0  0
  -25.6770    0.2986   25.0972 C   0  0  0  0  0  0  0  0  0  0  0  0
  -28.1064    0.6249   24.0897 O   0  0  0  0  0  0  0  0  0  0  0  0
  -27.8762    2.3497   31.3826 F   0  0  0  0  0  0  0  0  0  0  0  0
  -25.0877   -2.4690   29.2998 C   0  0  0  0  0  0  0  0  0  0  0  0
  -23.8376   -3.2635   28.8554 Cl  0  0  0  0  0  0  0  0  0  0  0  0
  -25.5083   -2.5880   30.5781 O   0  0  0  0  0  0  0  0  0  0  0  0
  1  2  2  0
  2  3  1  0
  2  4  1  0
  3  5  1  0
  5  6  1  0
  5  7  2  0
  5  8  1  0
  6  9  1  0
  9 10  2  3
  9 11  1  0
 10 12  1  0
 12 13  1  0
 13 14  1  0
 14 15  1  0
 15 16  2  0
 10 17  1  0
 16 17  1  0
 11 18  1  0
 18 19  1  0
 19 20  1  0
 18 26  1  0
 19 27  2  0
  8 28  1  0
  4 29  1  0
 29 30  1  0
 29 31  2  0
 20 21  2  0
 21 22  1  0
 22 23  2  0
 23 24  1  0
 24 25  2  0
 25 20  1  0
M  END

$$$$
