No_2644-gen_results/8p0m/2024-11-26-14-13-15/
     RDKit          3D

 17 18  0  0  0  0  0  0  0  0999 V2000
  -28.0162   -0.8135   28.8779 C   0  0  0  0  0  0  0  0  0  0  0  0
  -27.0636   -0.1190   28.6079 C   0  0  0  0  0  0  0  0  0  0  0  0
  -26.4071    0.8834   28.2425 C   0  0  0  0  0  0  0  0  0  0  0  0
  -25.0852    1.1714   28.3387 C   0  0  0  0  0  0  0  0  0  0  0  0
  -24.4010    2.4123   27.9044 C   0  0  0  0  0  0  0  0  0  0  0  0
  -25.1890    3.3455   27.1980 C   0  0  0  0  0  0  0  0  0  0  0  0
  -26.5281    3.0943   27.0109 C   0  0  0  0  0  0  0  0  0  0  0  0
  -27.1233    1.9875   27.4353 C   0  0  0  0  0  0  0  0  0  0  0  0
  -28.9571   -1.2032   29.7528 C   0  0  0  0  0  0  0  0  0  0  0  0
  -28.9963   -0.6613   30.7514 F   0  0  0  0  0  0  0  0  0  0  0  0
  -28.7742   -2.5174   29.9987 F   0  0  0  0  0  0  0  0  0  0  0  0
  -30.1742   -1.1209   29.1739 F   0  0  0  0  0  0  0  0  0  0  0  0
  -24.1403    0.2365   29.0039 C   0  0  0  0  0  0  0  0  0  0  0  0
  -22.8950    0.6353   29.2402 C   0  0  0  0  0  0  0  0  0  0  0  0
  -22.2497    1.6361   28.5768 C   0  0  0  0  0  0  0  0  0  0  0  0
  -22.9645    2.6105   27.9917 C   0  0  0  0  0  0  0  0  0  0  0  0
  -28.4385    1.7750   27.2610 O   0  0  0  0  0  0  0  0  0  0  0  0
  1  2  3  0
  2  3  1  0
  6  7  1  0
  3  8  1  0
  7  8  1  0
  1  9  1  0
  9 10  1  0
  9 11  1  0
  9 12  1  0
  8 17  2  0
  3  4  1  0
  5  6  1  0
  4  5  2  0
  5 16  1  0
 16 15  2  0
 15 14  1  0
 14 13  2  0
 13  4  1  0
M  END

$$$$
