No_2226-gen_results/8p0m/2024-11-26-14-13-15/
     RDKit          3D

 33 38  0  0  0  0  0  0  0  0999 V2000
  -28.0162   -0.8135   28.8779 C   0  0  0  0  0  0  0  0  0  0  0  0
  -27.0636   -0.1190   28.6079 C   0  0  0  0  0  0  0  0  0  0  0  0
  -25.7923   -0.4302   29.0761 C   0  0  0  0  0  0  0  0  0  0  0  0
  -24.5456    0.3494   28.8225 C   0  0  0  0  0  0  0  0  0  0  0  0
  -23.2409    0.0217   29.3323 C   0  0  0  0  0  0  0  0  0  0  0  0
  -27.8820   -1.8995   29.8633 C   0  0  0  0  0  0  0  0  0  0  0  0
  -26.6526   -2.3142   30.3138 C   0  0  0  0  0  0  0  0  0  0  0  0
  -25.5153   -1.5607   29.9787 C   0  0  0  0  0  0  0  0  0  0  0  0
  -22.1645    0.7936   28.9524 C   0  0  0  0  0  0  0  0  0  0  0  0
  -22.1241    1.7484   27.9889 C   0  0  0  0  0  0  0  0  0  0  0  0
  -24.5235    1.3782   27.7946 C   0  0  0  0  0  0  0  0  0  0  0  0
  -23.3387    2.0417   27.4305 C   0  0  0  0  0  0  0  0  0  0  0  0
  -29.0500   -2.7282   30.2957 C   0  0  0  0  0  0  0  0  0  0  0  0
  -28.9430   -4.0081   30.5113 N   0  0  0  0  0  0  0  0  0  0  0  0
  -29.9695   -4.8862   30.2504 C   0  0  0  0  0  0  0  0  0  0  0  0
  -31.1440   -4.5460   30.7979 C   0  0  0  0  0  0  0  0  0  0  0  0
  -31.4809   -3.1214   30.7004 C   0  0  0  0  0  0  0  0  0  0  0  0
  -30.3890   -2.1836   30.4602 C   0  0  0  0  0  0  0  0  0  0  0  0
  -32.5094   -5.5299   30.1546 Cl  0  0  0  0  0  0  0  0  0  0  0  0
  -31.0781   -5.1032   32.2453 C   0  0  0  0  0  0  0  0  0  0  0  0
  -23.4519    2.9921   26.4673 O   0  0  0  0  0  0  0  0  0  0  0  0
  -31.0173   -6.2397   32.4720 C   0  0  0  0  0  0  0  0  0  0  0  0
  -31.1393   -6.8086   33.3220 C   0  0  0  0  0  0  0  0  0  0  0  0
  -31.1446   -6.0932   34.6980 C   0  0  0  0  0  0  0  0  0  0  0  0
  -31.1527   -4.7251   34.5967 C   0  0  0  0  0  0  0  0  0  0  0  0
  -31.1368   -4.1774   33.3926 C   0  0  0  0  0  0  0  0  0  0  0  0
  -32.7453   -2.5983   31.0225 C   0  0  0  0  0  0  0  0  0  0  0  0
  -33.4439   -1.9571   30.5716 C   0  0  0  0  0  0  0  0  0  0  0  0
  -34.7567   -1.5009   31.0188 C   0  0  0  0  0  0  0  0  0  0  0  0
  -35.2102   -2.1317   32.1991 C   0  0  0  0  0  0  0  0  0  0  0  0
  -34.4117   -3.0316   32.8522 C   0  0  0  0  0  0  0  0  0  0  0  0
  -33.1440   -3.3181   32.3739 C   0  0  0  0  0  0  0  0  0  0  0  0
  -32.4147   -3.3651   33.2970 O   0  0  0  0  0  0  0  0  0  0  0  0
  3  4  1  0
  6 13  1  0
 13 14  1  0
 14 15  1  0
 15 16  1  0
 16 17  1  0
 13 18  1  0
 17 18  2  0
 16 19  1  0
 16 20  1  0
 12 21  1  0
 17 27  1  0
 26 33  1  0
 32 33  1  0
  1  2  2  0
  2  3  1  0
  3  8  2  0
  8  7  1  0
  7  6  2  0
  6  1  1  0
 20 22  2  0
 22 23  1  0
 23 24  2  0
 24 25  1  0
 25 26  2  0
 26 20  1  0
 27 28  2  0
 28 29  1  0
 29 30  2  0
 30 31  1  0
 31 32  2  0
 32 27  1  0
  4  5  2  0
  5  9  1  0
  9 10  2  0
 10 12  1  0
 12 11  2  0
 11  4  1  0
M  END

$$$$
