No_2688-gen_results/8p0m/2024-11-26-14-13-15/
     RDKit          3D

 15 15  0  0  0  0  0  0  0  0999 V2000
  -28.0162   -0.8135   28.8779 C   0  0  0  0  0  0  0  0  0  0  0  0
  -27.0636   -0.1189   28.6079 C   0  0  0  0  0  0  0  0  0  0  0  0
  -26.9287    1.1713   29.0083 C   0  0  0  0  0  0  0  0  0  0  0  0
  -27.9560    1.7411   29.7840 C   0  0  0  0  0  0  0  0  0  0  0  0
  -29.0569   -0.3271   29.7466 C   0  0  0  0  0  0  0  0  0  0  0  0
  -28.9828    0.9722   30.1516 C   0  0  0  0  0  0  0  0  0  0  0  0
  -25.8907   -0.6263   27.7857 C   0  0  0  0  0  0  0  0  0  0  0  0
  -25.5296   -1.7103   28.1045 F   0  0  0  0  0  0  0  0  0  0  0  0
  -24.7309    0.2337   27.8305 F   0  0  0  0  0  0  0  0  0  0  0  0
  -26.1889   -0.4828   26.4075 F   0  0  0  0  0  0  0  0  0  0  0  0
  -30.0343   -1.1787   30.1181 O   0  0  0  0  0  0  0  0  0  0  0  0
  -30.9421   -0.7879   30.9485 C   0  0  0  0  0  0  0  0  0  0  0  0
  -32.0208   -1.6582   31.1227 C   0  0  0  0  0  0  0  0  0  0  0  0
  -31.9925   -2.8475   30.5624 C   0  0  0  0  0  0  0  0  0  0  0  0
  -31.4237   -2.9509   29.4653 C   0  0  0  0  0  0  0  0  0  0  0  0
  2  7  1  0
  7  8  1  0
  7  9  1  0
  7 10  1  0
  5 11  1  0
 11 12  1  0
 12 13  2  3
 13 14  1  0
 14 15  2  0
  1  2  2  0
  2  3  1  0
  3  4  2  0
  4  6  1  0
  6  5  2  0
  5  1  1  0
M  END

$$$$
