No_2911-gen_results/8p0m/2024-11-26-14-13-15/
     RDKit          3D

 35 38  0  0  0  0  0  0  0  0999 V2000
  -28.0162   -0.8135   28.8779 C   0  0  0  0  0  0  0  0  0  0  0  0
  -28.4690   -0.7850   29.8287 C   0  0  0  0  0  0  0  0  0  0  0  0
  -28.1816    0.4277   28.1134 C   0  0  0  0  0  0  0  0  0  0  0  0
  -27.4498    0.6435   26.8500 C   0  0  0  0  0  0  0  0  0  0  0  0
  -26.1815    0.0357   26.7145 C   0  0  0  0  0  0  0  0  0  0  0  0
  -25.7800   -0.9326   27.6938 C   0  0  0  0  0  0  0  0  0  0  0  0
  -26.5568   -1.2134   28.7413 C   0  0  0  0  0  0  0  0  0  0  0  0
  -29.6101   -0.2783   30.1938 N   0  0  0  0  0  0  0  0  0  0  0  0
  -28.0389   -1.6599   30.8481 O   0  0  0  0  0  0  0  0  0  0  0  0
  -30.2554    0.6637   29.4565 C   0  0  0  0  0  0  0  0  0  0  0  0
  -29.5243    1.0320   28.2809 C   0  0  0  0  0  0  0  0  0  0  0  0
  -31.3130    1.2283   29.7366 O   0  0  0  0  0  0  0  0  0  0  0  0
  -29.9604    2.0087   27.3127 C   0  0  0  0  0  0  0  0  0  0  0  0
  -25.3174    0.3555   25.6031 C   0  0  0  0  0  0  0  0  0  0  0  0
  -24.3081    1.3206   25.8566 C   0  0  0  0  0  0  0  0  0  0  0  0
  -23.5996    1.6589   26.8263 C   0  0  0  0  0  0  0  0  0  0  0  0
  -24.1877    1.9828   28.1025 C   0  0  0  0  0  0  0  0  0  0  0  0
  -24.9705    2.9685   28.2799 N   0  0  0  0  0  0  0  0  0  0  0  0
  -25.3318    3.8887   27.3852 C   0  0  0  0  0  0  0  0  0  0  0  0
  -26.3598    4.8742   27.8634 C   0  0  0  0  0  0  0  0  0  0  0  0
  -25.7823    3.0117   29.5259 C   0  0  0  0  0  0  0  0  0  0  0  0
  -25.5526    2.1122   30.4270 O   0  0  0  0  0  0  0  0  0  0  0  0
  -26.7996    3.9913   29.6690 C   0  0  0  0  0  0  0  0  0  0  0  0
  -27.0467    4.9427   28.8713 C   0  0  0  0  0  0  0  0  0  0  0  0
  -23.6517    1.3109   29.0964 O   0  0  0  0  0  0  0  0  0  0  0  0
  -22.1663    1.9834   26.7128 C   0  0  0  0  0  0  0  0  0  0  0  0
  -25.7261   -0.0253   24.3490 C   0  0  0  0  0  0  0  0  0  0  0  0
  -31.1402    2.1285   26.8350 C   0  0  0  0  0  0  0  0  0  0  0  0
  -31.4880    3.0969   25.8881 C   0  0  0  0  0  0  0  0  0  0  0  0
  -30.4518    4.0423   25.4635 C   0  0  0  0  0  0  0  0  0  0  0  0
  -29.1745    3.9465   25.9917 C   0  0  0  0  0  0  0  0  0  0  0  0
  -28.8971    3.0208   26.9101 C   0  0  0  0  0  0  0  0  0  0  0  0
  -27.5789    3.8784   31.0173 C   0  0  0  0  0  0  0  0  0  0  0  0
  -28.9504    3.9969   30.9853 C   0  0  0  0  0  0  0  0  0  0  0  0
  -29.6297    4.5536   29.9305 C   0  0  0  0  0  0  0  0  0  0  0  0
  1  2  1  0
  2  8  1  0
  2  9  2  0
  8 10  1  0
  3 11  1  0
 10 11  1  0
 10 12  2  0
 11 13  1  0
  5 14  1  0
 14 15  1  0
 15 16  1  0
 16 17  1  0
 17 18  1  0
 18 19  1  0
 18 21  1  0
 21 22  2  0
 21 23  1  0
 20 24  1  0
 17 25  2  0
 16 26  1  0
 14 27  1  0
 23 33  1  0
 33 34  2  3
 34 35  1  0
 19 20  1  0
 24 23  1  0
 13 28  2  0
 28 29  1  0
 29 30  2  0
 30 31  1  0
 31 32  2  0
 32 13  1  0
  1  7  2  0
  7  6  1  0
  6  5  2  0
  5  4  1  0
  4  3  2  0
  3  1  1  0
M  END

$$$$
