No_2308-gen_results/8p0m/2024-11-26-14-13-15/
     RDKit          3D

 18 19  0  0  0  0  0  0  0  0999 V2000
  -28.0544   -1.0498   28.7246 N   0  0  0  0  0  0  0  0  0  0  0  0
  -28.6544   -0.5669   29.5076 C   0  0  0  0  0  0  0  0  0  0  0  0
  -26.7777   -0.5807   28.6029 C   0  0  0  0  0  0  0  0  0  0  0  0
  -26.3749    0.4542   29.4646 C   0  0  0  0  0  0  0  0  0  0  0  0
  -28.5139    0.4315   30.4781 C   0  0  0  0  0  0  0  0  0  0  0  0
  -27.2275    0.9697   30.4013 C   0  0  0  0  0  0  0  0  0  0  0  0
  -24.9761    0.9950   29.3451 C   0  0  0  0  0  0  0  0  0  0  0  0
  -24.0760    0.5952   28.6798 N   0  0  0  0  0  0  0  0  0  0  0  0
  -22.8212    1.0624   28.5553 C   0  0  0  0  0  0  0  0  0  0  0  0
  -21.7316    0.2344   28.3174 C   0  0  0  0  0  0  0  0  0  0  0  0
  -24.8117    2.0665   30.1884 O   0  0  0  0  0  0  0  0  0  0  0  0
  -22.7434    2.0649   27.3155 C   0  0  0  0  0  0  0  0  0  0  0  0
  -30.0099   -1.2073   29.5769 N   0  0  0  0  0  0  0  0  0  0  0  0
  -30.9147   -1.0822   30.2807 C   0  0  0  0  0  0  0  0  0  0  0  0
  -32.0739   -1.7244   30.1921 C   0  0  0  0  0  0  0  0  0  0  0  0
  -32.1878   -2.6011   29.1442 C   0  0  0  0  0  0  0  0  0  0  0  0
  -31.2454   -2.7335   28.2058 C   0  0  0  0  0  0  0  0  0  0  0  0
  -30.1158   -2.0202   28.4702 N   0  0  0  0  0  0  0  0  0  0  0  0
  4  7  1  0
  7  8  1  0
  8  9  1  0
  9 10  2  0
  7 11  2  0
  9 12  1  0
  2 13  1  0
 13 14  1  0
 15 16  1  0
 13 18  1  0
 14 15  1  0
 16 17  1  0
 17 18  1  0
  1  2  2  0
  2  5  1  0
  5  6  2  0
  6  4  1  0
  4  3  2  0
  3  1  1  0
M  END

$$$$
