No_2670-gen_results/8p0m/2024-11-26-14-13-15/
     RDKit          3D

 35 39  0  0  0  0  0  0  0  0999 V2000
  -28.0162   -0.8135   28.8779 C   0  0  0  0  0  0  0  0  0  0  0  0
  -27.0636   -0.1190   28.6079 C   0  0  0  0  0  0  0  0  0  0  0  0
  -25.7923   -0.4302   29.0761 C   0  0  0  0  0  0  0  0  0  0  0  0
  -24.5456    0.3494   28.8225 C   0  0  0  0  0  0  0  0  0  0  0  0
  -23.2409    0.0217   29.3323 C   0  0  0  0  0  0  0  0  0  0  0  0
  -27.8820   -1.8995   29.8633 C   0  0  0  0  0  0  0  0  0  0  0  0
  -26.6526   -2.3142   30.3138 C   0  0  0  0  0  0  0  0  0  0  0  0
  -25.5153   -1.5607   29.9787 C   0  0  0  0  0  0  0  0  0  0  0  0
  -23.2160   -1.2277   30.0505 C   0  0  0  0  0  0  0  0  0  0  0  0
  -24.2438   -1.9369   30.3995 C   0  0  0  0  0  0  0  0  0  0  0  0
  -24.5721    1.5640   27.9603 C   0  0  0  0  0  0  0  0  0  0  0  0
  -24.9596    1.4667   26.8127 N   0  0  0  0  0  0  0  0  0  0  0  0
  -25.1318    2.4586   25.9764 C   0  0  0  0  0  0  0  0  0  0  0  0
  -23.3666    2.3711   27.8255 C   0  0  0  0  0  0  0  0  0  0  0  0
  -25.2078    0.2502   26.0773 C   0  0  0  0  0  0  0  0  0  0  0  0
  -29.0293   -2.6007   30.1618 O   0  0  0  0  0  0  0  0  0  0  0  0
  -29.5974   -2.4082   31.4378 C   0  0  0  0  0  0  0  0  0  0  0  0
  -29.7628   -3.5200   32.1163 C   0  0  0  0  0  0  0  0  0  0  0  0
  -29.8023   -3.4215   33.5197 C   0  0  0  0  0  0  0  0  0  0  0  0
  -29.8158   -2.5327   34.0175 C   0  0  0  0  0  0  0  0  0  0  0  0
  -29.6437   -1.1813   33.4607 C   0  0  0  0  0  0  0  0  0  0  0  0
  -29.3525   -1.2239   32.0697 C   0  0  0  0  0  0  0  0  0  0  0  0
  -25.8500    0.2493   24.8297 C   0  0  0  0  0  0  0  0  0  0  0  0
  -26.1231    3.1693   26.0823 C   0  0  0  0  0  0  0  0  0  0  0  0
  -27.2302    2.6686   25.2017 C   0  0  0  0  0  0  0  0  0  0  0  0
  -27.1854    1.1644   24.9282 C   0  0  0  0  0  0  0  0  0  0  0  0
  -23.9177    2.9741   25.4642 N   0  0  0  0  0  0  0  0  0  0  0  0
  -23.1602    3.3468   26.7483 C   0  0  0  0  0  0  0  0  0  0  0  0
  -29.7783   -4.8184   31.3710 C   0  0  0  0  0  0  0  0  0  0  0  0
  -29.5076   -4.9793   30.3152 O   0  0  0  0  0  0  0  0  0  0  0  0
  -29.8941   -5.9387   32.2043 N   0  0  0  0  0  0  0  0  0  0  0  0
  -30.0090   -7.2760   31.7098 C   0  0  0  0  0  0  0  0  0  0  0  0
  -30.2828   -8.2213   32.7545 C   0  0  0  0  0  0  0  0  0  0  0  0
  -29.6544   -8.1325   33.8084 C   0  0  0  0  0  0  0  0  0  0  0  0
  -29.3067   -6.8088   34.3501 C   0  0  0  0  0  0  0  0  0  0  0  0
  4 11  1  0
 11 12  1  0
 12 13  1  0
 11 14  1  0
 12 15  1  0
  6 16  1  0
 16 17  1  0
 15 23  2  0
 13 24  1  0
 24 25  2  0
 23 26  1  0
 25 26  1  0
 27 28  1  0
 18 29  1  0
 29 30  2  0
 29 31  1  0
 31 32  1  0
 32 33  1  0
 33 34  2  3
 34 35  1  0
 14 28  1  0
 27 13  1  0
 17 18  2  0
 18 19  1  0
 19 20  2  0
 20 21  1  0
 21 22  2  0
 22 17  1  0
  1  2  2  0
  2  3  1  0
  8  7  1  0
  7  6  2  0
  6  1  1  0
  3  4  2  0
  4  5  1  0
  5  9  2  0
  9 10  1  0
 10  8  2  0
  8  3  1  0
M  END

$$$$
