No_2424-gen_results/8p0m/2024-11-26-14-13-15/
     RDKit          3D

 23 24  0  0  0  0  0  0  0  0999 V2000
  -28.0162   -0.8135   28.8779 C   0  0  0  0  0  0  0  0  0  0  0  0
  -27.0636   -0.1190   28.6079 C   0  0  0  0  0  0  0  0  0  0  0  0
  -25.7923   -0.4302   29.0761 C   0  0  0  0  0  0  0  0  0  0  0  0
  -25.5756   -1.5654   29.9363 C   0  0  0  0  0  0  0  0  0  0  0  0
  -26.7354   -2.3004   30.2173 C   0  0  0  0  0  0  0  0  0  0  0  0
  -27.9184   -1.9537   29.7629 C   0  0  0  0  0  0  0  0  0  0  0  0
  -29.0001   -2.7012   30.1151 O   0  0  0  0  0  0  0  0  0  0  0  0
  -24.5290    0.3490   28.7998 C   0  0  0  0  0  0  0  0  0  0  0  0
  -23.3442    0.0060   29.1658 C   0  0  0  0  0  0  0  0  0  0  0  0
  -22.1783    0.7811   28.7783 C   0  0  0  0  0  0  0  0  0  0  0  0
  -22.3217    1.7499   27.7727 C   0  0  0  0  0  0  0  0  0  0  0  0
  -24.6102    1.3558   27.7479 C   0  0  0  0  0  0  0  0  0  0  0  0
  -23.5148    2.0341   27.3068 C   0  0  0  0  0  0  0  0  0  0  0  0
  -23.7239    3.4302   26.0161 Br  0  0  0  0  0  0  0  0  0  0  0  0
  -30.1219   -2.1347   30.5882 C   0  0  0  0  0  0  0  0  0  0  0  0
  -30.5764   -2.8482   31.6809 C   0  0  0  0  0  0  0  0  0  0  0  0
  -30.0162   -3.7065   32.2028 O   0  0  0  0  0  0  0  0  0  0  0  0
  -32.0781   -3.3681   31.3266 C   0  0  0  0  0  0  0  0  0  0  0  0
  -32.9780   -2.5299   30.8238 C   0  0  0  0  0  0  0  0  0  0  0  0
  -32.9207   -1.2758   31.2593 C   0  0  0  0  0  0  0  0  0  0  0  0
  -33.5006   -0.2500   30.5205 C   0  0  0  0  0  0  0  0  0  0  0  0
  -33.3477    1.1136   30.8846 C   0  0  0  0  0  0  0  0  0  0  0  0
  -33.8260    2.1935   30.1197 C   0  0  0  0  0  0  0  0  0  0  0  0
  6  7  1  0
  3  8  1  0
 13 14  1  0
  7 15  1  0
 15 16  1  0
 16 17  1  0
 16 18  1  0
 18 19  1  0
 19 20  1  0
 20 21  2  3
 21 22  1  0
 22 23  2  0
  1  2  2  0
  2  3  1  0
  3  4  2  0
  4  5  1  0
  5  6  2  0
  6  1  1  0
  8  9  2  0
  9 10  1  0
 10 11  2  0
 11 13  1  0
 13 12  2  0
 12  8  1  0
M  END

$$$$
