No_2473-gen_results/8p0m/2024-11-26-14-13-15/
     RDKit          3D

  9  9  0  0  0  0  0  0  0  0999 V2000
  -28.0162   -0.8135   28.8779 C   0  0  0  0  0  0  0  0  0  0  0  0
  -27.0636   -0.1189   28.6079 C   0  0  0  0  0  0  0  0  0  0  0  0
  -27.0010    0.6913   27.4910 C   0  0  0  0  0  0  0  0  0  0  0  0
  -25.7770    1.0214   26.9135 C   0  0  0  0  0  0  0  0  0  0  0  0
  -25.5749    1.7787   25.7418 C   0  0  0  0  0  0  0  0  0  0  0  0
  -27.9716   -1.6248   30.1092 C   0  0  0  0  0  0  0  0  0  0  0  0
  -26.7490   -1.8207   30.7693 C   0  0  0  0  0  0  0  0  0  0  0  0
  -25.6191   -1.1859   30.3383 C   0  0  0  0  0  0  0  0  0  0  0  0
  -25.7359   -0.3338   29.1756 C   0  0  0  0  0  0  0  0  0  0  0  0
  2  3  1  0
  3  4  2  3
  4  5  1  0
  1  2  2  0
  2  9  1  0
  9  8  2  0
  8  7  1  0
  7  6  2  0
  6  1  1  0
M  END

$$$$
