No_2824-gen_results/8p0m/2024-11-26-14-13-15/
     RDKit          3D

 24 25  0  0  0  0  0  0  0  0999 V2000
  -28.0162   -0.8135   28.8779 C   0  0  0  0  0  0  0  0  0  0  0  0
  -27.0636   -0.1189   28.6079 C   0  0  0  0  0  0  0  0  0  0  0  0
  -25.7923   -0.4302   29.0761 C   0  0  0  0  0  0  0  0  0  0  0  0
  -24.5456    0.3494   28.8225 C   0  0  0  0  0  0  0  0  0  0  0  0
  -24.6586    1.4196   27.8878 C   0  0  0  0  0  0  0  0  0  0  0  0
  -25.9471    1.6811   27.3792 C   0  0  0  0  0  0  0  0  0  0  0  0
  -27.0439    0.9739   27.6871 C   0  0  0  0  0  0  0  0  0  0  0  0
  -27.9517   -1.7518   29.9375 N   0  0  0  0  0  0  0  0  0  0  0  0
  -29.0580   -2.4958   30.3311 C   0  0  0  0  0  0  0  0  0  0  0  0
  -23.4525    2.1575   27.5981 C   0  0  0  0  0  0  0  0  0  0  0  0
  -22.2769    1.7498   28.0673 N   0  0  0  0  0  0  0  0  0  0  0  0
  -23.5195    3.0803   26.6055 N   0  0  0  0  0  0  0  0  0  0  0  0
  -30.2384   -1.8568   30.3604 C   0  0  0  0  0  0  0  0  0  0  0  0
  -31.1610   -2.7560   30.4692 F   0  0  0  0  0  0  0  0  0  0  0  0
  -30.2566   -0.9910   31.4200 F   0  0  0  0  0  0  0  0  0  0  0  0
  -28.6245   -3.0883   31.5715 O   0  0  0  0  0  0  0  0  0  0  0  0
  -30.6201   -1.1551   29.3484 F   0  0  0  0  0  0  0  0  0  0  0  0
  -28.3344    1.3678   27.0617 C   0  0  0  0  0  0  0  0  0  0  0  0
  -28.3072    2.0912   25.9230 C   0  0  0  0  0  0  0  0  0  0  0  0
  -29.5432    1.0106   27.6218 C   0  0  0  0  0  0  0  0  0  0  0  0
  -29.4877   -0.1317   28.5539 C   0  0  0  0  0  0  0  0  0  0  0  0
  -30.6281    0.3062   28.6457 C   0  0  0  0  0  0  0  0  0  0  0  0
  -31.1221    0.5312   29.9532 O   0  0  0  0  0  0  0  0  0  0  0  0
  -31.5360   -0.1068   27.8520 F   0  0  0  0  0  0  0  0  0  0  0  0
  8  9  1  0
  5 10  1  0
 10 11  2  0
 10 12  1  0
  9 13  1  0
 13 14  1  0
 13 15  1  0
  9 16  1  0
 13 17  1  0
 18 19  1  0
 21 22  1  0
 22 23  1  0
 22 24  1  0
  8  1  1  0
  2  3  1  0
  3  4  2  0
  4  5  1  0
  5  6  2  0
  6  7  1  0
  1  2  2  0
  2  7  1  0
  7 18  2  0
 18 20  1  0
 20 21  2  0
 21  1  1  0
M  END

$$$$
