No_2983-gen_results/8p0m/2024-11-26-14-13-15/
     RDKit          3D

 25 27  0  0  0  0  0  0  0  0999 V2000
  -28.0162   -0.8135   28.8779 C   0  0  0  0  0  0  0  0  0  0  0  0
  -28.4690   -0.7850   29.8287 C   0  0  0  0  0  0  0  0  0  0  0  0
  -27.0871    0.2903   28.6377 C   0  0  0  0  0  0  0  0  0  0  0  0
  -26.2516    0.4114   27.4223 C   0  0  0  0  0  0  0  0  0  0  0  0
  -28.3913    0.1041   30.9805 C   0  0  0  0  0  0  0  0  0  0  0  0
  -27.5332    1.1666   30.7866 C   0  0  0  0  0  0  0  0  0  0  0  0
  -26.8281    1.2557   29.6454 C   0  0  0  0  0  0  0  0  0  0  0  0
  -25.7328    1.6893   27.1547 C   0  0  0  0  0  0  0  0  0  0  0  0
  -24.6744    1.7805   26.3311 C   0  0  0  0  0  0  0  0  0  0  0  0
  -23.8933    0.7473   25.9464 C   0  0  0  0  0  0  0  0  0  0  0  0
  -25.0868   -0.5647   27.3327 C   0  0  0  0  0  0  0  0  0  0  0  0
  -24.0937   -0.4278   26.4434 C   0  0  0  0  0  0  0  0  0  0  0  0
  -27.1478    0.1490   26.1463 C   0  0  0  0  0  0  0  0  0  0  0  0
  -26.8208    0.2716   24.9517 C   0  0  0  0  0  0  0  0  0  0  0  0
  -28.5886    0.0596   26.4262 C   0  0  0  0  0  0  0  0  0  0  0  0
  -29.4304    0.0674   25.2884 C   0  0  0  0  0  0  0  0  0  0  0  0
  -27.6152    0.1679   23.8537 C   0  0  0  0  0  0  0  0  0  0  0  0
  -28.9110    0.0817   24.0604 C   0  0  0  0  0  0  0  0  0  0  0  0
  -30.8810   -0.1006   25.5445 C   0  0  0  0  0  0  0  0  0  0  0  0
  -31.5659   -0.8078   24.8701 O   0  0  0  0  0  0  0  0  0  0  0  0
  -31.5834    0.7280   26.3120 O   0  0  0  0  0  0  0  0  0  0  0  0
  -26.4927    2.9345   27.5025 C   0  0  0  0  0  0  0  0  0  0  0  0
  -26.7928    3.8861   26.6036 C   0  0  0  0  0  0  0  0  0  0  0  0
  -25.7665    3.6200   28.7336 C   0  0  0  0  0  0  0  0  0  0  0  0
  -27.7751    2.5790   28.3633 C   0  0  0  0  0  0  0  0  0  0  0  0
  3  4  1  0
  4  8  1  0
  9 10  1  0
  4 11  1  0
 11 12  1  0
  4 13  1  0
 16 19  1  0
 19 20  2  0
 19 21  1  0
  8 22  1  0
 22 23  1  0
 22 24  1  0
 22 25  1  0
  8  9  1  0
 10 12  1  0
  1  2  2  0
  2  5  1  0
  5  6  2  0
  6  7  1  0
  7  3  2  0
  3  1  1  0
 13 14  2  0
 14 17  1  0
 17 18  2  0
 18 16  1  0
 16 15  2  0
 15 13  1  0
M  END

$$$$
