No_2681-gen_results/8p0m/2024-11-26-14-13-15/
     RDKit          3D

 17 18  0  0  0  0  0  0  0  0999 V2000
  -28.0162   -0.8135   28.8779 C   0  0  0  0  0  0  0  0  0  0  0  0
  -27.0636   -0.1190   28.6079 C   0  0  0  0  0  0  0  0  0  0  0  0
  -26.8756    1.1325   28.9134 C   0  0  0  0  0  0  0  0  0  0  0  0
  -25.6883    1.9515   28.5672 C   0  0  0  0  0  0  0  0  0  0  0  0
  -24.6394    1.2834   27.8753 C   0  0  0  0  0  0  0  0  0  0  0  0
  -24.8068   -0.0513   27.6040 C   0  0  0  0  0  0  0  0  0  0  0  0
  -25.9019   -0.7670   27.9511 C   0  0  0  0  0  0  0  0  0  0  0  0
  -28.6455   -0.5282   30.2428 C   0  0  0  0  0  0  0  0  0  0  0  0
  -28.9122    0.7961   30.4353 C   0  0  0  0  0  0  0  0  0  0  0  0
  -27.6444    1.6294   30.2030 C   0  0  0  0  0  0  0  0  0  0  0  0
  -23.2953    1.6344   28.2348 C   0  0  0  0  0  0  0  0  0  0  0  0
  -22.5679    1.7336   27.1232 F   0  0  0  0  0  0  0  0  0  0  0  0
  -23.1853    2.9472   28.7619 F   0  0  0  0  0  0  0  0  0  0  0  0
  -22.6706    0.8280   29.0766 F   0  0  0  0  0  0  0  0  0  0  0  0
  -27.4582    2.9480   30.7293 C   0  0  0  0  0  0  0  0  0  0  0  0
  -27.8390    4.0391   30.0450 C   0  0  0  0  0  0  0  0  0  0  0  0
  -27.4466    5.2722   30.5806 C   0  0  0  0  0  0  0  0  0  0  0  0
  3  4  1  0
  4  5  1  0
  5  6  1  0
  2  7  1  0
  6  7  1  0
  5 11  1  0
 11 12  1  0
 11 13  1  0
 11 14  1  0
 10 15  1  0
 15 16  2  3
 16 17  1  0
  1  2  2  0
  2  3  1  0
  3 10  2  0
 10  9  1  0
  9  8  2  0
  8  1  1  0
M  END

$$$$
