No_2325-gen_results/8p0m/2024-11-26-14-13-15/
     RDKit          3D

 13 14  0  0  0  0  0  0  0  0999 V2000
  -28.0162   -0.8135   28.8779 C   0  0  0  0  0  0  0  0  0  0  0  0
  -27.0636   -0.1190   28.6079 C   0  0  0  0  0  0  0  0  0  0  0  0
  -27.0010    0.6913   27.4910 C   0  0  0  0  0  0  0  0  0  0  0  0
  -25.7770    1.0214   26.9135 C   0  0  0  0  0  0  0  0  0  0  0  0
  -24.5088    0.7364   27.5686 C   0  0  0  0  0  0  0  0  0  0  0  0
  -24.5930   -0.0361   28.7390 C   0  0  0  0  0  0  0  0  0  0  0  0
  -25.8114   -0.4771   29.1584 C   0  0  0  0  0  0  0  0  0  0  0  0
  -28.0502   -1.5988   30.0545 N   0  0  0  0  0  0  0  0  0  0  0  0
  -26.9083   -2.0145   30.6539 C   0  0  0  0  0  0  0  0  0  0  0  0
  -25.7357   -1.4528   30.2595 C   0  0  0  0  0  0  0  0  0  0  0  0
  -23.2606    1.3855   27.1184 C   0  0  0  0  0  0  0  0  0  0  0  0
  -22.1949    1.4136   27.8778 N   0  0  0  0  0  0  0  0  0  0  0  0
  -23.0996    1.8530   25.8742 N   0  0  0  0  0  0  0  0  0  0  0  0
  5 11  1  0
 11 12  2  0
 11 13  1  0
  2  3  1  0
  3  4  2  0
  4  5  1  0
  5  6  2  0
  6  7  1  0
  1  2  2  0
  2  7  1  0
  7 10  2  0
 10  9  1  0
  9  8  2  0
  8  1  1  0
M  END

$$$$
