No_2326-gen_results/8p0m/2024-11-26-14-13-15/
     RDKit          3D

 35 37  0  0  0  0  0  0  0  0999 V2000
  -28.0162   -0.8135   28.8779 C   0  0  0  0  0  0  0  0  0  0  0  0
  -28.4690   -0.7850   29.8287 C   0  0  0  0  0  0  0  0  0  0  0  0
  -26.5455   -0.8762   28.8500 C   0  0  0  0  0  0  0  0  0  0  0  0
  -25.8041   -1.0324   30.0571 C   0  0  0  0  0  0  0  0  0  0  0  0
  -26.5373   -1.0386   31.2171 C   0  0  0  0  0  0  0  0  0  0  0  0
  -27.8843   -0.9532   31.1862 C   0  0  0  0  0  0  0  0  0  0  0  0
  -24.3655   -1.1134   30.0483 C   0  0  0  0  0  0  0  0  0  0  0  0
  -23.5273    0.1776   29.7881 P   0  0  0  0  0  0  0  0  0  0  0  0
  -24.1955    0.9998   28.8123 O   0  0  0  0  0  0  0  0  0  0  0  0
  -23.6583    0.9834   31.1123 O   0  0  0  0  0  0  0  0  0  0  0  0
  -22.1533    0.0424   29.5648 O   0  0  0  0  0  0  0  0  0  0  0  0
  -23.5938    2.0408   28.1704 C   0  0  0  0  0  0  0  0  0  0  0  0
  -24.4309    3.1080   27.6819 C   0  0  0  0  0  0  0  0  0  0  0  0
  -25.0414    3.7698   28.4158 O   0  0  0  0  0  0  0  0  0  0  0  0
  -24.4666    3.3529   26.3728 O   0  0  0  0  0  0  0  0  0  0  0  0
  -30.0639   -0.6400   29.9007 C   0  0  0  0  0  0  0  0  0  0  0  0
  -30.7817   -1.3459   30.4297 N   0  0  0  0  0  0  0  0  0  0  0  0
  -30.5099    0.3582   29.2283 O   0  0  0  0  0  0  0  0  0  0  0  0
  -32.2458   -1.3242   30.4071 C   0  0  0  0  0  0  0  0  0  0  0  0
  -32.8380   -2.3370   30.6436 C   0  0  0  0  0  0  0  0  0  0  0  0
  -32.2344   -3.4187   31.1261 C   0  0  0  0  0  0  0  0  0  0  0  0
  -30.8477   -3.6171   31.2090 C   0  0  0  0  0  0  0  0  0  0  0  0
  -30.1708   -2.6547   30.7846 C   0  0  0  0  0  0  0  0  0  0  0  0
  -30.3096   -4.9140   31.6977 C   0  0  0  0  0  0  0  0  0  0  0  0
  -29.2243   -5.1781   31.1968 F   0  0  0  0  0  0  0  0  0  0  0  0
  -29.9929   -4.8009   33.0312 F   0  0  0  0  0  0  0  0  0  0  0  0
  -31.1336   -5.8984   31.6051 F   0  0  0  0  0  0  0  0  0  0  0  0
  -25.8607   -0.8208   27.6511 N   0  0  0  0  0  0  0  0  0  0  0  0
  -26.2590   -0.0996   26.5811 C   0  0  0  0  0  0  0  0  0  0  0  0
  -25.4876   -0.1820   25.3838 C   0  0  0  0  0  0  0  0  0  0  0  0
  -27.2560    0.8873   26.5717 C   0  0  0  0  0  0  0  0  0  0  0  0
  -27.6074    1.6397   25.4552 C   0  0  0  0  0  0  0  0  0  0  0  0
  -26.9491    1.3869   24.2800 C   0  0  0  0  0  0  0  0  0  0  0  0
  -25.8019    0.5601   24.2813 C   0  0  0  0  0  0  0  0  0  0  0  0
  -28.7350    2.6004   25.4711 C   0  0  0  0  0  0  0  0  0  0  0  0
  4  7  1  0
  7  8  1  0
  8  9  1  0
  8 10  1  0
  8 11  2  0
  9 12  1  0
 12 13  1  0
 13 14  2  0
 13 15  1  0
  2 16  1  0
 16 17  1  0
 16 18  2  0
 17 19  1  0
 19 20  1  0
 21 22  1  0
 17 23  1  0
 22 23  1  0
 22 24  1  0
 24 25  1  0
 24 26  1  0
 24 27  1  0
  3 28  1  0
 28 29  1  0
 32 35  1  0
 20 21  1  0
  1  2  2  0
  2  6  1  0
  6  5  2  0
  5  4  1  0
  4  3  2  0
  3  1  1  0
 29 30  2  0
 30 34  1  0
 34 33  2  0
 33 32  1  0
 32 31  2  0
 31 29  1  0
M  END

$$$$
