No_2383-gen_results/8p0m/2024-11-26-14-13-15/
     RDKit          3D

 13 13  0  0  0  0  0  0  0  0999 V2000
  -28.0162   -0.8135   28.8779 C   0  0  0  0  0  0  0  0  0  0  0  0
  -27.0636   -0.1189   28.6079 C   0  0  0  0  0  0  0  0  0  0  0  0
  -26.9849    0.5972   27.5218 N   0  0  0  0  0  0  0  0  0  0  0  0
  -28.6850   -0.3903   30.0601 C   0  0  0  0  0  0  0  0  0  0  0  0
  -29.8055   -0.7528   30.2174 O   0  0  0  0  0  0  0  0  0  0  0  0
  -26.3393    1.1913   26.9425 C   0  0  0  0  0  0  0  0  0  0  0  0
  -24.8832    1.3841   27.4444 C   0  0  0  0  0  0  0  0  0  0  0  0
  -24.6809    0.6532   28.6500 C   0  0  0  0  0  0  0  0  0  0  0  0
  -25.7169   -0.1517   29.2299 C   0  0  0  0  0  0  0  0  0  0  0  0
  -28.1411    0.4627   30.8904 O   0  0  0  0  0  0  0  0  0  0  0  0
  -23.8476    2.1825   26.8823 C   0  0  0  0  0  0  0  0  0  0  0  0
  -22.5184    1.9679   27.3597 C   0  0  0  0  0  0  0  0  0  0  0  0
  -22.3279    1.1898   28.5877 C   0  0  0  0  0  0  0  0  0  0  0  0
  1  2  1  0
  1  4  1  0
  4  5  2  0
  4 10  1  0
  7 11  1  0
 11 12  2  3
 12 13  1  0
  2  3  2  0
  3  6  1  0
  6  7  2  0
  7  8  1  0
  8  9  2  0
  9  2  1  0
M  END

$$$$
