No_2110-gen_results/8p0m/2024-11-26-14-13-15/
     RDKit          3D

 13 13  0  0  0  0  0  0  0  0999 V2000
  -28.0162   -0.8135   28.8779 C   0  0  0  0  0  0  0  0  0  0  0  0
  -27.0636   -0.1189   28.6079 C   0  0  0  0  0  0  0  0  0  0  0  0
  -25.7923   -0.4302   29.0761 C   0  0  0  0  0  0  0  0  0  0  0  0
  -25.5756   -1.5654   29.9363 C   0  0  0  0  0  0  0  0  0  0  0  0
  -26.7354   -2.3004   30.2173 C   0  0  0  0  0  0  0  0  0  0  0  0
  -27.9184   -1.9537   29.7629 C   0  0  0  0  0  0  0  0  0  0  0  0
  -27.1057    1.1023   27.7593 C   0  0  0  0  0  0  0  0  0  0  0  0
  -26.3437    1.1720   26.9645 F   0  0  0  0  0  0  0  0  0  0  0  0
  -27.0574    2.2431   28.5236 F   0  0  0  0  0  0  0  0  0  0  0  0
  -28.4185    1.1780   27.2364 F   0  0  0  0  0  0  0  0  0  0  0  0
  -29.0651   -2.7677   30.2051 C   0  0  0  0  0  0  0  0  0  0  0  0
  -28.9939   -3.9937   30.3002 O   0  0  0  0  0  0  0  0  0  0  0  0
  -30.0660   -2.2021   30.8296 O   0  0  0  0  0  0  0  0  0  0  0  0
  2  7  1  0
  7  8  1  0
  7  9  1  0
  7 10  1  0
  6 11  1  0
 11 12  2  0
 11 13  1  0
  1  2  2  0
  2  3  1  0
  3  4  2  0
  4  5  1  0
  5  6  2  0
  6  1  1  0
M  END

$$$$
