No_268-gen_results/8p0m/2024-11-26-14-13-15/
     RDKit          3D

 12 12  0  0  0  0  0  0  0  0999 V2000
  -28.0162   -0.8135   28.8779 C   0  0  0  0  0  0  0  0  0  0  0  0
  -27.0636   -0.1189   28.6079 C   0  0  0  0  0  0  0  0  0  0  0  0
  -25.7923   -0.4302   29.0761 C   0  0  0  0  0  0  0  0  0  0  0  0
  -24.5456    0.3494   28.8225 C   0  0  0  0  0  0  0  0  0  0  0  0
  -24.6586    1.4196   27.8878 C   0  0  0  0  0  0  0  0  0  0  0  0
  -25.9471    1.6811   27.3792 C   0  0  0  0  0  0  0  0  0  0  0  0
  -27.0439    0.9739   27.6871 C   0  0  0  0  0  0  0  0  0  0  0  0
  -29.1882   -0.1472   29.0918 N   0  0  0  0  0  0  0  0  0  0  0  0
  -23.4493    2.1414   27.5972 C   0  0  0  0  0  0  0  0  0  0  0  0
  -22.5138    2.0017   28.2347 F   0  0  0  0  0  0  0  0  0  0  0  0
  -23.7122    3.4850   27.4799 F   0  0  0  0  0  0  0  0  0  0  0  0
  -23.0699    1.7692   26.2729 F   0  0  0  0  0  0  0  0  0  0  0  0
  1  2  1  0
  1  8  3  0
  5  9  1  0
  9 10  1  0
  9 11  1  0
  9 12  1  0
  2  3  2  0
  3  4  1  0
  4  5  2  0
  5  6  1  0
  6  7  2  0
  7  2  1  0
M  END

$$$$
