No_2408-gen_results/8p0m/2024-11-26-14-13-15/
     RDKit          3D

 31 33  0  0  0  0  0  0  0  0999 V2000
  -28.0162   -0.8135   28.8779 C   0  0  0  0  0  0  0  0  0  0  0  0
  -27.0636   -0.1190   28.6079 C   0  0  0  0  0  0  0  0  0  0  0  0
  -26.9716    0.7139   27.5060 C   0  0  0  0  0  0  0  0  0  0  0  0
  -25.8205    1.4909   27.1160 C   0  0  0  0  0  0  0  0  0  0  0  0
  -24.8579    1.3421   27.6008 C   0  0  0  0  0  0  0  0  0  0  0  0
  -24.6224    0.5295   28.8144 C   0  0  0  0  0  0  0  0  0  0  0  0
  -25.7344   -0.1811   29.1908 C   0  0  0  0  0  0  0  0  0  0  0  0
  -27.9596   -1.4412   30.2523 C   0  0  0  0  0  0  0  0  0  0  0  0
  -29.0203   -2.1885   30.6818 N   0  0  0  0  0  0  0  0  0  0  0  0
  -26.9731   -1.5643   31.0159 O   0  0  0  0  0  0  0  0  0  0  0  0
  -30.2489   -2.1892   30.0253 C   0  0  0  0  0  0  0  0  0  0  0  0
  -23.5400    2.1744   27.2830 C   0  0  0  0  0  0  0  0  0  0  0  0
  -23.4578    2.6492   26.1020 O   0  0  0  0  0  0  0  0  0  0  0  0
  -22.4548    2.1498   28.0267 O   0  0  0  0  0  0  0  0  0  0  0  0
  -28.2569    0.8365   26.7247 C   0  0  0  0  0  0  0  0  0  0  0  0
  -29.2788    1.2384   27.0921 O   0  0  0  0  0  0  0  0  0  0  0  0
  -28.1726    0.4217   25.4099 N   0  0  0  0  0  0  0  0  0  0  0  0
  -31.2656   -2.5610   30.8582 C   0  0  0  0  0  0  0  0  0  0  0  0
  -31.0310   -3.4403   31.7094 C   0  0  0  0  0  0  0  0  0  0  0  0
  -29.7609   -3.5954   32.4566 C   0  0  0  0  0  0  0  0  0  0  0  0
  -28.7554   -2.7047   31.9225 C   0  0  0  0  0  0  0  0  0  0  0  0
  -29.2470    0.3399   24.4997 C   0  0  0  0  0  0  0  0  0  0  0  0
  -26.9107   -0.0807   24.7847 C   0  0  0  0  0  0  0  0  0  0  0  0
  -32.6298   -2.0970   30.4595 C   0  0  0  0  0  0  0  0  0  0  0  0
  -33.4965   -2.2009   29.0531 Br  0  0  0  0  0  0  0  0  0  0  0  0
  -30.4159    0.1229   25.0739 C   0  0  0  0  0  0  0  0  0  0  0  0
  -31.4765   -0.4391   24.2642 C   0  0  0  0  0  0  0  0  0  0  0  0
  -32.6624   -0.9264   24.8792 C   0  0  0  0  0  0  0  0  0  0  0  0
  -32.9551   -0.5245   26.1321 C   0  0  0  0  0  0  0  0  0  0  0  0
  -32.0132    0.0992   26.9394 C   0  0  0  0  0  0  0  0  0  0  0  0
  -30.8084    0.3896   26.4424 C   0  0  0  0  0  0  0  0  0  0  0  0
  1  8  1  0
  8  9  1  0
  8 10  2  0
  9 11  1  0
  5 12  1  0
 12 13  2  0
 12 14  1  0
  3 15  1  0
 15 16  2  0
 15 17  1  0
 11 18  1  0
 18 19  1  0
  9 21  1  0
 20 21  1  0
 17 22  1  0
 17 23  1  0
 18 24  1  0
 24 25  1  0
 22 26  1  0
  1  2  1  0
 19 20  1  0
 26 27  2  0
 27 28  1  0
 28 29  2  0
 29 30  1  0
 30 31  2  0
 31 26  1  0
  2  3  1  0
  3  4  2  0
  4  5  1  0
  5  6  2  0
  6  7  1  0
  7  2  2  0
M  END

$$$$
