No_294-gen_results/8p0m/2024-11-26-14-13-15/
     RDKit          3D

 17 17  0  0  0  0  0  0  0  0999 V2000
  -28.0162   -0.8135   28.8779 C   0  0  0  0  0  0  0  0  0  0  0  0
  -27.0636   -0.1189   28.6079 C   0  0  0  0  0  0  0  0  0  0  0  0
  -25.7923   -0.4302   29.0761 C   0  0  0  0  0  0  0  0  0  0  0  0
  -24.5456    0.3494   28.8225 C   0  0  0  0  0  0  0  0  0  0  0  0
  -24.6586    1.4196   27.8878 C   0  0  0  0  0  0  0  0  0  0  0  0
  -25.9471    1.6811   27.3792 C   0  0  0  0  0  0  0  0  0  0  0  0
  -27.0439    0.9739   27.6871 C   0  0  0  0  0  0  0  0  0  0  0  0
  -28.6643   -0.5274   30.1017 N   0  0  0  0  0  0  0  0  0  0  0  0
  -29.6153   -1.2473   30.6541 C   0  0  0  0  0  0  0  0  0  0  0  0
  -30.1339   -2.2836   30.0191 C   0  0  0  0  0  0  0  0  0  0  0  0
  -30.9750   -2.2961   29.3592 O   0  0  0  0  0  0  0  0  0  0  0  0
  -29.2657   -3.4076   30.0530 O   0  0  0  0  0  0  0  0  0  0  0  0
  -30.2241   -0.8055   31.9580 C   0  0  0  0  0  0  0  0  0  0  0  0
  -23.4401    2.1436   27.5932 C   0  0  0  0  0  0  0  0  0  0  0  0
  -22.2450    1.7101   28.0801 N   0  0  0  0  0  0  0  0  0  0  0  0
  -23.4739    3.0066   26.6764 O   0  0  0  0  0  0  0  0  0  0  0  0
  -29.8735   -0.0044   32.5316 O   0  0  0  0  0  0  0  0  0  0  0  0
  1  2  1  0
  1  8  1  0
  8  9  1  0
  9 10  1  0
 10 11  2  0
 10 12  1  0
  9 13  1  0
  5 14  1  0
 14 15  1  0
 14 16  2  0
 13 17  2  0
  2  3  2  0
  3  4  1  0
  4  5  2  0
  5  6  1  0
  6  7  2  0
  7  2  1  0
M  END

$$$$
