No_2866-gen_results/8p0m/2024-11-26-14-13-15/
     RDKit          3D

 21 23  0  0  0  0  0  0  0  0999 V2000
  -28.0162   -0.8135   28.8779 C   0  0  0  0  0  0  0  0  0  0  0  0
  -27.0636   -0.1189   28.6079 C   0  0  0  0  0  0  0  0  0  0  0  0
  -26.9287    1.1713   29.0083 C   0  0  0  0  0  0  0  0  0  0  0  0
  -27.9560    1.7411   29.7840 C   0  0  0  0  0  0  0  0  0  0  0  0
  -29.0569   -0.3271   29.7466 C   0  0  0  0  0  0  0  0  0  0  0  0
  -28.9828    0.9722   30.1516 C   0  0  0  0  0  0  0  0  0  0  0  0
  -25.9911   -0.6119   27.8566 O   0  0  0  0  0  0  0  0  0  0  0  0
  -24.9038   -1.1483   28.5775 C   0  0  0  0  0  0  0  0  0  0  0  0
  -23.7733   -0.9238   28.7488 C   0  0  0  0  0  0  0  0  0  0  0  0
  -25.2670   -2.5528   29.1249 C   0  0  0  0  0  0  0  0  0  0  0  0
  -22.7926   -1.5184   29.4729 C   0  0  0  0  0  0  0  0  0  0  0  0
  -24.3845   -3.2811   29.7863 C   0  0  0  0  0  0  0  0  0  0  0  0
  -23.1235   -2.7642   30.0154 C   0  0  0  0  0  0  0  0  0  0  0  0
  -30.0728   -1.1402   30.0877 O   0  0  0  0  0  0  0  0  0  0  0  0
  -29.8343   -2.1603   30.8837 C   0  0  0  0  0  0  0  0  0  0  0  0
  -30.8539   -2.5247   31.7418 C   0  0  0  0  0  0  0  0  0  0  0  0
  -31.8945   -2.0270   31.8132 C   0  0  0  0  0  0  0  0  0  0  0  0
  -33.0009   -2.4175   32.7294 C   0  0  0  0  0  0  0  0  0  0  0  0
  -32.7137   -3.4994   33.5512 C   0  0  0  0  0  0  0  0  0  0  0  0
  -31.5140   -4.1447   33.5204 C   0  0  0  0  0  0  0  0  0  0  0  0
  -30.4884   -3.7153   32.6496 C   0  0  0  0  0  0  0  0  0  0  0  0
  2  7  1  0
  7  8  1  0
  5 14  1  0
 14 15  1  0
 15 16  1  0
  8  9  2  0
  9 11  1  0
 11 13  2  0
 13 12  1  0
 12 10  2  0
 10  8  1  0
  1  2  2  0
  2  3  1  0
  3  4  2  0
  4  6  1  0
  6  5  2  0
  5  1  1  0
 16 17  2  0
 17 18  1  0
 18 19  2  0
 19 20  1  0
 20 21  2  0
 21 16  1  0
M  END

$$$$
