No_2960-gen_results/8p0m/2024-11-26-14-13-15/
     RDKit          3D

 24 27  0  0  0  0  0  0  0  0999 V2000
  -28.0162   -0.8135   28.8779 C   0  0  0  0  0  0  0  0  0  0  0  0
  -27.0636   -0.1189   28.6079 C   0  0  0  0  0  0  0  0  0  0  0  0
  -26.9287    1.1713   29.0083 C   0  0  0  0  0  0  0  0  0  0  0  0
  -27.9560    1.7411   29.7840 C   0  0  0  0  0  0  0  0  0  0  0  0
  -29.0569   -0.3271   29.7466 C   0  0  0  0  0  0  0  0  0  0  0  0
  -30.1704   -1.1582   30.1327 C   0  0  0  0  0  0  0  0  0  0  0  0
  -28.9772    0.9577   30.1786 C   0  0  0  0  0  0  0  0  0  0  0  0
  -31.1745   -1.1215   29.5870 N   0  0  0  0  0  0  0  0  0  0  0  0
  -29.9249   -2.0982   31.0467 O   0  0  0  0  0  0  0  0  0  0  0  0
  -31.5372   -0.1601   28.5719 C   0  0  0  0  0  0  0  0  0  0  0  0
  -32.2037   -0.3471   27.6266 C   0  0  0  0  0  0  0  0  0  0  0  0
  -32.4978    0.5940   26.5594 C   0  0  0  0  0  0  0  0  0  0  0  0
  -31.9270    1.8822   26.7110 C   0  0  0  0  0  0  0  0  0  0  0  0
  -31.1257    2.1398   27.7806 C   0  0  0  0  0  0  0  0  0  0  0  0
  -30.8924    1.1695   28.6839 C   0  0  0  0  0  0  0  0  0  0  0  0
  -29.9724    1.5081   29.6410 N   0  0  0  0  0  0  0  0  0  0  0  0
  -30.5399    2.6956   30.4899 C   0  0  0  0  0  0  0  0  0  0  0  0
  -31.4225    2.5086   31.4886 C   0  0  0  0  0  0  0  0  0  0  0  0
  -32.0979    3.4270   31.8948 C   0  0  0  0  0  0  0  0  0  0  0  0
  -30.0551    3.9651   30.2072 C   0  0  0  0  0  0  0  0  0  0  0  0
  -30.6468    5.0490   30.7856 C   0  0  0  0  0  0  0  0  0  0  0  0
  -31.6962    4.8101   31.7153 C   0  0  0  0  0  0  0  0  0  0  0  0
  -32.2973   -2.0953   29.7971 C   0  0  0  0  0  0  0  0  0  0  0  0
  -32.3576   -2.6953   30.9547 C   0  0  0  0  0  0  0  0  0  0  0  0
  5  6  1  0
  6  8  1  0
  6  9  2  0
  8 10  1  0
  7 16  1  0
 15 16  1  0
 16 17  1  0
  8 23  1  0
 23 24  1  0
 17 18  2  0
 18 19  1  0
 19 22  2  0
 22 21  1  0
 21 20  2  0
 20 17  1  0
  1  2  2  0
  2  3  1  0
  3  4  2  0
  4  7  1  0
  7  5  2  0
  5  1  1  0
 10 11  2  0
 11 12  1  0
 12 13  2  0
 13 14  1  0
 14 15  2  0
 15 10  1  0
M  END

$$$$
