No_2664-gen_results/8p0m/2024-11-26-14-13-15/
     RDKit          3D

 18 17  0  0  0  0  0  0  0  0999 V2000
  -28.1229   -1.3353   28.4874 O   0  0  0  0  0  0  0  0  0  0  0  0
  -27.4806   -0.4044   28.7094 C   0  0  0  0  0  0  0  0  0  0  0  0
  -26.3804   -0.0867   27.9394 C   0  0  0  0  0  0  0  0  0  0  0  0
  -27.6665    0.4468   29.8988 N   0  0  0  0  0  0  0  0  0  0  0  0
  -26.4086    0.8567   26.8802 C   0  0  0  0  0  0  0  0  0  0  0  0
  -25.2466    1.1198   26.1102 C   0  0  0  0  0  0  0  0  0  0  0  0
  -23.9991    0.7500   26.5964 C   0  0  0  0  0  0  0  0  0  0  0  0
  -23.9411    0.0388   27.7865 C   0  0  0  0  0  0  0  0  0  0  0  0
  -25.0420   -0.3844   28.4675 C   0  0  0  0  0  0  0  0  0  0  0  0
  -22.4028   -0.3108   28.4709 Cl  0  0  0  0  0  0  0  0  0  0  0  0
  -23.5628    0.2814   28.7275 Cl  0  0  0  0  0  0  0  0  0  0  0  0
  -25.1411   -1.7787   29.2025 C   0  0  0  0  0  0  0  0  0  0  0  0
  -25.4546   -1.5597   28.9451 C   0  0  0  0  0  0  0  0  0  0  0  0
  -26.2540   -2.4904   28.1649 C   0  0  0  0  0  0  0  0  0  0  0  0
  -25.6430   -0.3001   29.2772 F   0  0  0  0  0  0  0  0  0  0  0  0
  -26.1330   -2.2952   30.0396 C   0  0  0  0  0  0  0  0  0  0  0  0
  -24.5853   -1.9214   28.1190 F   0  0  0  0  0  0  0  0  0  0  0  0
  -25.9338   -2.3944   29.2924 F   0  0  0  0  0  0  0  0  0  0  0  0
  1  2  2  0
  2  3  1  0
  2  4  1  0
  3  5  2  3
  5  6  1  0
  6  7  2  3
  7  8  1  0
  3  9  1  0
  8 10  1  0
  8 11  1  0
  9 12  1  0
 12 13  1  0
 13 14  1  0
  9 15  1  0
 12 16  1  0
 12 17  1  0
 16 18  1  0
M  END

$$$$
