No_2597-gen_results/8p0m/2024-11-26-14-13-15/
     RDKit          3D

 12 13  0  0  0  0  0  0  0  0999 V2000
  -28.0162   -0.8135   28.8779 C   0  0  0  0  0  0  0  0  0  0  0  0
  -28.4690   -0.7850   29.8287 C   0  0  0  0  0  0  0  0  0  0  0  0
  -27.1356    0.2359   28.5352 C   0  0  0  0  0  0  0  0  0  0  0  0
  -26.8745    1.2825   29.3982 C   0  0  0  0  0  0  0  0  0  0  0  0
  -27.5070    1.2380   30.6295 C   0  0  0  0  0  0  0  0  0  0  0  0
  -28.3293    0.1745   30.9350 C   0  0  0  0  0  0  0  0  0  0  0  0
  -26.3848    0.5209   27.2533 C   0  0  0  0  0  0  0  0  0  0  0  0
  -26.1694    1.4950   26.7677 C   0  0  0  0  0  0  0  0  0  0  0  0
  -25.7859    2.3501   27.1319 C   0  0  0  0  0  0  0  0  0  0  0  0
  -25.9014    3.1382   28.3792 C   0  0  0  0  0  0  0  0  0  0  0  0
  -26.3096    2.6247   29.2594 C   0  0  0  0  0  0  0  0  0  0  0  0
  -26.2156    3.4705   30.8140 Cl  0  0  0  0  0  0  0  0  0  0  0  0
  3  7  1  0
  7  8  2  0
  8  9  1  0
  9 10  2  0
  4 11  1  0
 10 11  1  0
 11 12  1  0
  1  2  2  0
  2  6  1  0
  6  5  2  0
  5  4  1  0
  4  3  2  0
  3  1  1  0
M  END

$$$$
