No_27-gen_results/8p0m/2024-11-26-14-13-15/
     RDKit          3D

 24 26  0  0  0  0  0  0  0  0999 V2000
  -28.1493   -0.8198   28.9079 Cl  0  0  0  0  0  0  0  0  0  0  0  0
  -28.5324   -0.0471   29.7727 C   0  0  0  0  0  0  0  0  0  0  0  0
  -27.6024    0.7852   30.3185 C   0  0  0  0  0  0  0  0  0  0  0  0
  -27.9263    1.8091   31.3693 C   0  0  0  0  0  0  0  0  0  0  0  0
  -29.2820    1.8300   31.7435 C   0  0  0  0  0  0  0  0  0  0  0  0
  -30.1642    1.0016   31.2423 C   0  0  0  0  0  0  0  0  0  0  0  0
  -29.8161    0.0491   30.2948 C   0  0  0  0  0  0  0  0  0  0  0  0
  -31.4232    1.0170   31.6693 F   0  0  0  0  0  0  0  0  0  0  0  0
  -26.1638    0.8029   29.9500 C   0  0  0  0  0  0  0  0  0  0  0  0
  -25.5764    1.0099   28.8954 C   0  0  0  0  0  0  0  0  0  0  0  0
  -24.1356    0.9574   28.6743 C   0  0  0  0  0  0  0  0  0  0  0  0
  -23.3079    0.6398   29.7750 C   0  0  0  0  0  0  0  0  0  0  0  0
  -23.9442    0.3226   30.9900 C   0  0  0  0  0  0  0  0  0  0  0  0
  -25.3484    0.3941   31.1617 C   0  0  0  0  0  0  0  0  0  0  0  0
  -23.4426    1.2336   27.4371 C   0  0  0  0  0  0  0  0  0  0  0  0
  -23.2467    2.3124   27.0637 N   0  0  0  0  0  0  0  0  0  0  0  0
  -23.7973    3.3361   27.7240 N   0  0  0  0  0  0  0  0  0  0  0  0
  -24.4345    4.3638   26.8671 C   0  0  0  0  0  0  0  0  0  0  0  0
  -25.0097    5.4738   27.5308 C   0  0  0  0  0  0  0  0  0  0  0  0
  -25.6706    5.4200   28.5923 C   0  0  0  0  0  0  0  0  0  0  0  0
  -26.1923    6.6030   29.2512 C   0  0  0  0  0  0  0  0  0  0  0  0
  -26.0538    7.7810   28.5601 C   0  0  0  0  0  0  0  0  0  0  0  0
  -24.8593    6.8047   26.9127 C   0  0  0  0  0  0  0  0  0  0  0  0
  -25.3485    7.9335   27.4447 C   0  0  0  0  0  0  0  0  0  0  0  0
  1  2  1  0
  6  8  1  0
  3  9  1  0
 11 15  1  0
 15 16  1  0
 16 17  1  0
 17 18  2  3
 18 19  1  0
  2  3  2  0
  3  4  1  0
  4  5  2  0
  5  6  1  0
  6  7  2  0
  7  2  1  0
  9 10  2  0
 10 11  1  0
 11 12  2  0
 12 13  1  0
 13 14  2  0
 14  9  1  0
 19 20  2  0
 20 21  1  0
 21 22  2  0
 22 24  1  0
 24 23  2  0
 23 19  1  0
M  END

$$$$
