No_2354-gen_results/8p0m/2024-11-26-14-13-15/
     RDKit          3D

 22 24  0  0  0  0  0  0  0  0999 V2000
  -28.0162   -0.8135   28.8779 C   0  0  0  0  0  0  0  0  0  0  0  0
  -27.0636   -0.1190   28.6079 C   0  0  0  0  0  0  0  0  0  0  0  0
  -25.8176   -0.3427   29.0488 N   0  0  0  0  0  0  0  0  0  0  0  0
  -24.6506    0.4444   28.7649 C   0  0  0  0  0  0  0  0  0  0  0  0
  -24.7153    1.3122   27.7191 C   0  0  0  0  0  0  0  0  0  0  0  0
  -23.6123    2.0895   27.3593 C   0  0  0  0  0  0  0  0  0  0  0  0
  -22.3656    1.7793   27.9567 C   0  0  0  0  0  0  0  0  0  0  0  0
  -22.2742    0.8511   28.9741 C   0  0  0  0  0  0  0  0  0  0  0  0
  -23.4448    0.1138   29.3645 C   0  0  0  0  0  0  0  0  0  0  0  0
  -29.3280   -0.3069   28.7603 C   0  0  0  0  0  0  0  0  0  0  0  0
  -29.5487    0.7198   27.8743 C   0  0  0  0  0  0  0  0  0  0  0  0
  -28.4515    1.4052   27.3709 C   0  0  0  0  0  0  0  0  0  0  0  0
  -27.1562    1.1077   27.7795 C   0  0  0  0  0  0  0  0  0  0  0  0
  -25.9969    1.7781   27.3218 C   0  0  0  0  0  0  0  0  0  0  0  0
  -26.1210    2.8861   26.3999 C   0  0  0  0  0  0  0  0  0  0  0  0
  -30.9215    1.1321   27.7544 C   0  0  0  0  0  0  0  0  0  0  0  0
  -31.3560    2.0699   27.4243 O   0  0  0  0  0  0  0  0  0  0  0  0
  -31.7923    0.0261   27.6604 O   0  0  0  0  0  0  0  0  0  0  0  0
  -27.8871   -1.8596   29.7576 O   0  0  0  0  0  0  0  0  0  0  0  0
  -32.9336    0.1131   26.9595 C   0  0  0  0  0  0  0  0  0  0  0  0
  -33.8206    0.6201   27.1431 C   0  0  0  0  0  0  0  0  0  0  0  0
  -35.0601    0.6007   26.3613 C   0  0  0  0  0  0  0  0  0  0  0  0
 14 15  1  0
 11 16  1  0
 16 17  2  0
 16 18  1  0
  1 19  1  0
 18 20  1  0
 20 21  2  3
 21 22  1  0
  2  3  1  0
  3  4  2  0
  5 14  2  0
 14 13  1  0
  4  5  1  0
  5  6  1  0
  6  7  2  0
  7  8  1  0
  8  9  2  0
  9  4  1  0
  1  2  2  0
  2 13  1  0
 13 12  2  0
 12 11  1  0
 11 10  2  0
 10  1  1  0
M  END

$$$$
