No_2775-gen_results/8p0m/2024-11-26-14-13-15/
     RDKit          3D

 18 20  0  0  0  0  0  0  0  0999 V2000
  -28.0162   -0.8135   28.8779 C   0  0  0  0  0  0  0  0  0  0  0  0
  -28.4690   -0.7850   29.8287 C   0  0  0  0  0  0  0  0  0  0  0  0
  -26.5455   -0.8762   28.8500 C   0  0  0  0  0  0  0  0  0  0  0  0
  -25.8041   -1.0324   30.0571 C   0  0  0  0  0  0  0  0  0  0  0  0
  -27.9437   -0.9869   31.2075 C   0  0  0  0  0  0  0  0  0  0  0  0
  -26.5825   -1.0386   31.2231 C   0  0  0  0  0  0  0  0  0  0  0  0
  -29.9648   -0.7353   29.8902 N   0  0  0  0  0  0  0  0  0  0  0  0
  -30.7710   -1.5353   30.3549 C   0  0  0  0  0  0  0  0  0  0  0  0
  -31.4273   -2.2155   29.9981 C   0  0  0  0  0  0  0  0  0  0  0  0
  -31.7666   -2.1391   28.5335 C   0  0  0  0  0  0  0  0  0  0  0  0
  -31.5017   -0.8946   27.9737 C   0  0  0  0  0  0  0  0  0  0  0  0
  -30.4061   -0.1830   28.6260 C   0  0  0  0  0  0  0  0  0  0  0  0
  -24.3639   -1.0771   30.0484 C   0  0  0  0  0  0  0  0  0  0  0  0
  -23.6709   -1.6850   30.4866 C   0  0  0  0  0  0  0  0  0  0  0  0
  -23.7751    0.0468   29.1571 C   0  0  0  0  0  0  0  0  0  0  0  0
  -22.3565    0.1040   29.0520 C   0  0  0  0  0  0  0  0  0  0  0  0
  -22.2292   -1.7207   30.5760 C   0  0  0  0  0  0  0  0  0  0  0  0
  -21.6283   -0.7767   29.7414 C   0  0  0  0  0  0  0  0  0  0  0  0
  2  7  1  0
  7  8  1  0
  9 10  1  0
  7 12  1  0
 11 12  1  0
  4 13  1  0
  8  9  1  0
 10 11  1  0
  1  2  2  0
  2  5  1  0
  5  6  2  0
  6  4  1  0
  4  3  2  0
  3  1  1  0
 13 14  2  0
 14 17  1  0
 17 18  2  0
 18 16  1  0
 16 15  2  0
 15 13  1  0
M  END

$$$$
