No_2934-gen_results/8p0m/2024-11-26-14-13-15/
     RDKit          3D

 22 25  0  0  0  0  0  0  0  0999 V2000
  -28.0162   -0.8135   28.8779 C   0  0  0  0  0  0  0  0  0  0  0  0
  -28.6208   -1.1855   29.7353 Cl  0  0  0  0  0  0  0  0  0  0  0  0
  -26.5231   -0.7877   28.9754 C   0  0  0  0  0  0  0  0  0  0  0  0
  -25.6303   -0.0854   28.1406 C   0  0  0  0  0  0  0  0  0  0  0  0
  -26.1635    0.5836   26.9835 C   0  0  0  0  0  0  0  0  0  0  0  0
  -27.5170    0.5354   26.8440 C   0  0  0  0  0  0  0  0  0  0  0  0
  -28.3193   -0.0336   27.6731 C   0  0  0  0  0  0  0  0  0  0  0  0
  -25.1561    1.1923   26.1017 C   0  0  0  0  0  0  0  0  0  0  0  0
  -24.1057    1.9323   26.6893 C   0  0  0  0  0  0  0  0  0  0  0  0
  -23.4994    1.2763   27.8354 C   0  0  0  0  0  0  0  0  0  0  0  0
  -22.3039    1.7548   28.4290 C   0  0  0  0  0  0  0  0  0  0  0  0
  -24.3688    0.3188   28.5634 C   0  0  0  0  0  0  0  0  0  0  0  0
  -21.7446    2.6704   27.8829 O   0  0  0  0  0  0  0  0  0  0  0  0
  -21.8761    1.1717   29.4891 O   0  0  0  0  0  0  0  0  0  0  0  0
  -28.0462    1.1622   25.5597 C   0  0  0  0  0  0  0  0  0  0  0  0
  -28.8197    2.1666   25.6645 C   0  0  0  0  0  0  0  0  0  0  0  0
  -28.4415    0.0637   24.5829 C   0  0  0  0  0  0  0  0  0  0  0  0
  -26.8809    1.9357   24.7263 C   0  0  0  0  0  0  0  0  0  0  0  0
  -25.8957    2.2248   25.2812 O   0  0  0  0  0  0  0  0  0  0  0  0
  -30.2090    2.1621   25.4290 C   0  0  0  0  0  0  0  0  0  0  0  0
  -29.7888   -0.0481   24.2711 C   0  0  0  0  0  0  0  0  0  0  0  0
  -30.6071    1.0983   24.6043 C   0  0  0  0  0  0  0  0  0  0  0  0
  1  2  1  0
 10 11  1  0
 11 13  1  0
 11 14  2  0
  6 15  1  0
 15 16  1  0
 15 17  1  0
 15 18  1  0
  8 19  1  0
 18 19  1  0
 20 22  1  0
 21 22  1  0
 16 20  1  0
 21 17  1  0
  5  8  2  0
  8  9  1  0
  9 10  2  0
 10 12  1  0
 12  4  2  0
  1  3  2  0
  3  4  1  0
  4  5  1  0
  5  6  1  0
  6  7  2  0
  7  1  1  0
M  END

$$$$
