No_2217-gen_results/8p0m/2024-11-26-14-13-15/
     RDKit          3D

 17 18  0  0  0  0  0  0  0  0999 V2000
  -28.0162   -0.8135   28.8779 C   0  0  0  0  0  0  0  0  0  0  0  0
  -27.1876   -0.3590   28.4524 N   0  0  0  0  0  0  0  0  0  0  0  0
  -29.1992    0.0398   28.9632 C   0  0  0  0  0  0  0  0  0  0  0  0
  -25.7733   -0.8543   28.4719 C   0  0  0  0  0  0  0  0  0  0  0  0
  -24.6424   -0.1185   27.9429 C   0  0  0  0  0  0  0  0  0  0  0  0
  -23.3576   -0.1844   28.5417 C   0  0  0  0  0  0  0  0  0  0  0  0
  -22.2964    0.6712   28.0863 C   0  0  0  0  0  0  0  0  0  0  0  0
  -22.6078    1.6054   27.0564 C   0  0  0  0  0  0  0  0  0  0  0  0
  -23.8886    1.7247   26.5420 C   0  0  0  0  0  0  0  0  0  0  0  0
  -24.9632    0.8823   26.9628 C   0  0  0  0  0  0  0  0  0  0  0  0
  -28.9687    1.0702   28.1328 C   0  0  0  0  0  0  0  0  0  0  0  0
  -27.5655    0.9005   27.7555 C   0  0  0  0  0  0  0  0  0  0  0  0
  -25.5456   -1.9819   28.8922 O   0  0  0  0  0  0  0  0  0  0  0  0
  -29.7496    2.1355   27.7208 C   0  0  0  0  0  0  0  0  0  0  0  0
  -30.7525    2.3985   28.1766 O   0  0  0  0  0  0  0  0  0  0  0  0
  -29.2048    2.8841   26.7359 O   0  0  0  0  0  0  0  0  0  0  0  0
  -20.7619    0.5180   28.7556 Cl  0  0  0  0  0  0  0  0  0  0  0  0
  1  2  1  0
  1  3  2  0
  2  4  1  0
  4  5  1  0
  3 11  1  0
  2 12  1  0
 11 12  1  0
  4 13  2  0
 11 14  1  0
 14 15  2  0
 14 16  1  0
  7 17  1  0
  5  6  2  0
  6  7  1  0
  7  8  2  0
  8  9  1  0
  9 10  2  0
 10  5  1  0
M  END

$$$$
