No_2239-gen_results/8p0m/2024-11-26-14-13-15/
     RDKit          3D

 11 11  0  0  0  0  0  0  0  0999 V2000
  -28.0162   -0.8135   28.8779 C   0  0  0  0  0  0  0  0  0  0  0  0
  -27.0636   -0.1189   28.6079 C   0  0  0  0  0  0  0  0  0  0  0  0
  -26.9287    1.1713   29.0083 C   0  0  0  0  0  0  0  0  0  0  0  0
  -27.9560    1.7411   29.7840 C   0  0  0  0  0  0  0  0  0  0  0  0
  -29.0569   -0.3271   29.7466 C   0  0  0  0  0  0  0  0  0  0  0  0
  -30.1704   -1.1582   30.1327 C   0  0  0  0  0  0  0  0  0  0  0  0
  -28.9772    0.9577   30.1786 C   0  0  0  0  0  0  0  0  0  0  0  0
  -31.2739   -1.0414   29.5689 C   0  0  0  0  0  0  0  0  0  0  0  0
  -31.4591   -0.0172   28.5872 C   0  0  0  0  0  0  0  0  0  0  0  0
  -32.7594    0.0453   27.8717 C   0  0  0  0  0  0  0  0  0  0  0  0
  -33.7032   -0.9276   28.2325 C   0  0  0  0  0  0  0  0  0  0  0  0
  5  6  1  0
  6  8  2  3
  8  9  1  0
  9 10  2  3
 10 11  1  0
  1  2  2  0
  2  3  1  0
  3  4  2  0
  4  7  1  0
  7  5  2  0
  5  1  1  0
M  END

$$$$
