No_2931-gen_results/8p0m/2024-11-26-14-13-15/
     RDKit          3D

 30 32  0  0  0  0  0  0  0  0999 V2000
  -28.0162   -0.8135   28.8779 C   0  0  0  0  0  0  0  0  0  0  0  0
  -28.4690   -0.7850   29.8287 C   0  0  0  0  0  0  0  0  0  0  0  0
  -26.5455   -0.8762   28.8500 C   0  0  0  0  0  0  0  0  0  0  0  0
  -25.8041   -1.0324   30.0571 C   0  0  0  0  0  0  0  0  0  0  0  0
  -27.9437   -0.9869   31.2075 C   0  0  0  0  0  0  0  0  0  0  0  0
  -26.5825   -1.0386   31.2231 C   0  0  0  0  0  0  0  0  0  0  0  0
  -30.0606   -0.7371   29.9024 C   0  0  0  0  0  0  0  0  0  0  0  0
  -30.4503   -0.4333   28.9129 F   0  0  0  0  0  0  0  0  0  0  0  0
  -30.5760   -1.9496   30.3154 F   0  0  0  0  0  0  0  0  0  0  0  0
  -30.4585    0.1649   30.8374 F   0  0  0  0  0  0  0  0  0  0  0  0
  -25.6623   -0.7799   27.6308 C   0  0  0  0  0  0  0  0  0  0  0  0
  -24.4302   -0.0983   27.7879 C   0  0  0  0  0  0  0  0  0  0  0  0
  -23.9893    0.9647   26.9342 C   0  0  0  0  0  0  0  0  0  0  0  0
  -22.7050    1.5620   27.1863 C   0  0  0  0  0  0  0  0  0  0  0  0
  -21.9048    1.0634   28.2209 C   0  0  0  0  0  0  0  0  0  0  0  0
  -23.4495   -0.4415   28.8174 C   0  0  0  0  0  0  0  0  0  0  0  0
  -22.2253    0.0957   28.9559 C   0  0  0  0  0  0  0  0  0  0  0  0
  -24.8361    1.5439   25.9710 C   0  0  0  0  0  0  0  0  0  0  0  0
  -25.5515    2.7216   26.2391 C   0  0  0  0  0  0  0  0  0  0  0  0
  -26.9235    2.8808   26.0643 C   0  0  0  0  0  0  0  0  0  0  0  0
  -27.5157    4.0899   26.4276 C   0  0  0  0  0  0  0  0  0  0  0  0
  -26.8087    5.0566   27.1437 C   0  0  0  0  0  0  0  0  0  0  0  0
  -25.4250    4.9135   27.3760 C   0  0  0  0  0  0  0  0  0  0  0  0
  -24.7971    3.7624   26.9858 C   0  0  0  0  0  0  0  0  0  0  0  0
  -25.0708    0.7838   24.8223 C   0  0  0  0  0  0  0  0  0  0  0  0
  -24.5765    6.1630   28.1900 Cl  0  0  0  0  0  0  0  0  0  0  0  0
  -27.5613    1.9801   25.5078 O   0  0  0  0  0  0  0  0  0  0  0  0
  -28.6827    1.4325   26.1125 C   0  0  0  0  0  0  0  0  0  0  0  0
  -29.8393    1.3294   25.3358 C   0  0  0  0  0  0  0  0  0  0  0  0
  -30.9399    0.8805   25.9637 C   0  0  0  0  0  0  0  0  0  0  0  0
  2  7  1  0
  7  8  1  0
  7  9  1  0
  7 10  1  0
  3 11  1  0
 11 12  1  0
 13 18  1  0
 18 19  1  0
 18 25  1  0
 23 26  1  0
 20 27  1  0
 27 28  1  0
 28 29  2  3
 29 30  1  0
 12 13  1  0
 13 14  2  0
 14 15  1  0
 15 17  2  0
 17 16  1  0
 16 12  2  0
  1  2  2  0
  2  5  1  0
  5  6  2  0
  6  4  1  0
  4  3  2  0
  3  1  1  0
 19 20  2  0
 20 21  1  0
 21 22  2  0
 22 23  1  0
 23 24  2  0
 24 19  1  0
M  END

$$$$
