No_263-gen_results/8p0m/2024-11-26-14-13-15/
     RDKit          3D

 13 14  0  0  0  0  0  0  0  0999 V2000
  -28.0162   -0.8135   28.8779 C   0  0  0  0  0  0  0  0  0  0  0  0
  -28.4690   -0.7850   29.8287 C   0  0  0  0  0  0  0  0  0  0  0  0
  -27.1356    0.2359   28.5352 C   0  0  0  0  0  0  0  0  0  0  0  0
  -26.8745    1.2825   29.3982 C   0  0  0  0  0  0  0  0  0  0  0  0
  -28.3613    0.1987   30.9244 C   0  0  0  0  0  0  0  0  0  0  0  0
  -27.5277    1.2234   30.6356 C   0  0  0  0  0  0  0  0  0  0  0  0
  -26.3879    0.2914   27.2334 C   0  0  0  0  0  0  0  0  0  0  0  0
  -25.3397    0.0456   27.1371 N   0  0  0  0  0  0  0  0  0  0  0  0
  -27.1702    0.6456   26.0418 C   0  0  0  0  0  0  0  0  0  0  0  0
  -26.9367    0.6652   25.0556 C   0  0  0  0  0  0  0  0  0  0  0  0
  -24.6494    0.1565   25.8902 C   0  0  0  0  0  0  0  0  0  0  0  0
  -25.4384    0.4229   24.8077 N   0  0  0  0  0  0  0  0  0  0  0  0
  -28.6097    0.6913   26.4188 F   0  0  0  0  0  0  0  0  0  0  0  0
  3  7  1  0
  9 13  1  0
  7  8  2  0
  8 11  1  0
 11 12  2  0
 12 10  1  0
 10  9  2  0
  9  7  1  0
  1  2  2  0
  2  5  1  0
  5  6  2  0
  6  4  1  0
  4  3  2  0
  3  1  1  0
M  END

$$$$
