No_2699-gen_results/8p0m/2024-11-26-14-13-15/
     RDKit          3D

 35 36  0  0  0  0  0  0  0  0999 V2000
  -28.0162   -0.8135   28.8779 C   0  0  0  0  0  0  0  0  0  0  0  0
  -28.4690   -0.7850   29.8287 C   0  0  0  0  0  0  0  0  0  0  0  0
  -26.5041   -0.7777   28.8766 C   0  0  0  0  0  0  0  0  0  0  0  0
  -25.6540   -0.6597   27.7191 C   0  0  0  0  0  0  0  0  0  0  0  0
  -27.9180   -0.9374   31.1824 C   0  0  0  0  0  0  0  0  0  0  0  0
  -26.5423   -0.9399   31.2606 C   0  0  0  0  0  0  0  0  0  0  0  0
  -25.7832   -0.8935   30.1201 C   0  0  0  0  0  0  0  0  0  0  0  0
  -26.1493   -0.9221   26.6964 F   0  0  0  0  0  0  0  0  0  0  0  0
  -24.4712   -1.4359   27.8608 F   0  0  0  0  0  0  0  0  0  0  0  0
  -25.0850    0.6517   27.6455 F   0  0  0  0  0  0  0  0  0  0  0  0
  -30.0541   -0.7985   29.8757 C   0  0  0  0  0  0  0  0  0  0  0  0
  -30.4701   -0.2495   28.9599 O   0  0  0  0  0  0  0  0  0  0  0  0
  -30.7196   -1.2765   30.8258 O   0  0  0  0  0  0  0  0  0  0  0  0
  -31.8221   -0.4809   28.4203 C   0  0  0  0  0  0  0  0  0  0  0  0
  -32.2712    0.7120   27.7425 C   0  0  0  0  0  0  0  0  0  0  0  0
  -31.8236    1.8090   28.0005 F   0  0  0  0  0  0  0  0  0  0  0  0
  -33.6590    0.7800   27.9644 F   0  0  0  0  0  0  0  0  0  0  0  0
  -32.1665    0.4443   26.3881 F   0  0  0  0  0  0  0  0  0  0  0  0
  -31.7939   -1.6780   27.6833 N   0  0  0  0  0  0  0  0  0  0  0  0
  -32.2606   -2.8707   28.2039 C   0  0  0  0  0  0  0  0  0  0  0  0
  -32.5541   -2.8950   29.3351 O   0  0  0  0  0  0  0  0  0  0  0  0
  -32.1177   -4.0316   27.2346 C   0  0  0  0  0  0  0  0  0  0  0  0
  -32.3784   -3.8831   26.1337 O   0  0  0  0  0  0  0  0  0  0  0  0
  -31.8145   -5.1500   27.7527 O   0  0  0  0  0  0  0  0  0  0  0  0
  -31.2048   -5.2841   28.9497 C   0  0  0  0  0  0  0  0  0  0  0  0
  -31.7309   -6.3047   29.8525 C   0  0  0  0  0  0  0  0  0  0  0  0
  -32.3787   -7.2847   29.4356 C   0  0  0  0  0  0  0  0  0  0  0  0
  -32.8389   -8.3622   30.2818 C   0  0  0  0  0  0  0  0  0  0  0  0
  -32.5043   -8.2795   31.6498 C   0  0  0  0  0  0  0  0  0  0  0  0
  -31.6984   -7.2380   32.1293 C   0  0  0  0  0  0  0  0  0  0  0  0
  -31.2674   -6.2405   31.3016 C   0  0  0  0  0  0  0  0  0  0  0  0
  -33.6254   -9.4342   29.8034 C   0  0  0  0  0  0  0  0  0  0  0  0
  -33.7713   -9.6103   28.6489 C   0  0  0  0  0  0  0  0  0  0  0  0
  -34.5602  -10.6600   28.0463 C   0  0  0  0  0  0  0  0  0  0  0  0
  -35.1101  -11.5336   28.9728 C   0  0  0  0  0  0  0  0  0  0  0  0
  3  4  1  0
  4  8  1  0
  4  9  1  0
  4 10  1  0
  2 11  1  0
 11 12  1  0
 11 13  2  0
 12 14  1  0
 14 15  1  0
 15 16  1  0
 15 17  1  0
 15 18  1  0
 14 19  1  0
 19 20  1  0
 20 21  2  0
 20 22  1  0
 22 23  2  0
 22 24  1  0
 24 25  1  0
 28 32  1  0
 32 33  2  3
 33 34  1  0
 34 35  2  0
 25 26  1  0
 26 27  2  0
 27 28  1  0
 28 29  2  0
 29 30  1  0
 30 31  2  0
 31 26  1  0
  1  2  2  0
  2  5  1  0
  5  6  2  0
  6  7  1  0
  7  3  2  0
  3  1  1  0
M  END

$$$$
