No_2844-gen_results/8p0m/2024-11-26-14-13-15/
     RDKit          3D

 34 36  0  0  0  0  0  0  0  0999 V2000
  -28.0162   -0.8135   28.8779 C   0  0  0  0  0  0  0  0  0  0  0  0
  -28.4690   -0.7850   29.8287 C   0  0  0  0  0  0  0  0  0  0  0  0
  -28.1816    0.4277   28.1134 C   0  0  0  0  0  0  0  0  0  0  0  0
  -27.4498    0.6435   26.8500 C   0  0  0  0  0  0  0  0  0  0  0  0
  -26.1815    0.0357   26.7145 C   0  0  0  0  0  0  0  0  0  0  0  0
  -25.7800   -0.9326   27.6938 C   0  0  0  0  0  0  0  0  0  0  0  0
  -26.5568   -1.2134   28.7413 C   0  0  0  0  0  0  0  0  0  0  0  0
  -28.4904   -1.9180   30.6356 O   0  0  0  0  0  0  0  0  0  0  0  0
  -29.4439    0.0156   30.3409 O   0  0  0  0  0  0  0  0  0  0  0  0
  -25.1520    0.3462   25.4126 Cl  0  0  0  0  0  0  0  0  0  0  0  0
  -25.9502   -2.2713   29.5924 C   0  0  0  0  0  0  0  0  0  0  0  0
  -24.9115   -3.0589   29.0918 C   0  0  0  0  0  0  0  0  0  0  0  0
  -23.6508   -2.4947   29.0313 C   0  0  0  0  0  0  0  0  0  0  0  0
  -25.1465   -4.4274   28.8433 C   0  0  0  0  0  0  0  0  0  0  0  0
  -24.1671   -5.1495   28.4995 F   0  0  0  0  0  0  0  0  0  0  0  0
  -26.1514   -5.0362   29.1720 F   0  0  0  0  0  0  0  0  0  0  0  0
  -27.8255    1.6954   26.1411 F   0  0  0  0  0  0  0  0  0  0  0  0
  -29.0351   -2.2744   31.4992 C   0  0  0  0  0  0  0  0  0  0  0  0
  -29.3732   -3.7442   31.5218 C   0  0  0  0  0  0  0  0  0  0  0  0
  -29.0375   -4.4252   30.6604 O   0  0  0  0  0  0  0  0  0  0  0  0
  -30.0482   -4.2938   32.4889 O   0  0  0  0  0  0  0  0  0  0  0  0
  -31.0112   -5.1819   32.3310 C   0  0  0  0  0  0  0  0  0  0  0  0
  -32.0061   -5.0933   31.5354 C   0  0  0  0  0  0  0  0  0  0  0  0
  -32.6936   -6.1420   31.1798 C   0  0  0  0  0  0  0  0  0  0  0  0
  -32.4949   -7.4165   31.7861 C   0  0  0  0  0  0  0  0  0  0  0  0
  -31.4029   -7.5843   32.6558 C   0  0  0  0  0  0  0  0  0  0  0  0
  -30.5471   -6.4730   32.9555 C   0  0  0  0  0  0  0  0  0  0  0  0
  -29.2350   -6.6275   33.9579 Cl  0  0  0  0  0  0  0  0  0  0  0  0
  -33.9683   -6.0386   30.3588 C   0  0  0  0  0  0  0  0  0  0  0  0
  -34.7250   -5.1592   30.5311 C   0  0  0  0  0  0  0  0  0  0  0  0
  -35.9083   -4.9343   29.6619 C   0  0  0  0  0  0  0  0  0  0  0  0
  -36.0809   -5.8737   28.6656 C   0  0  0  0  0  0  0  0  0  0  0  0
  -35.1910   -6.8759   28.4571 C   0  0  0  0  0  0  0  0  0  0  0  0
  -34.0918   -6.9753   29.2745 C   0  0  0  0  0  0  0  0  0  0  0  0
  1  2  1  0
  2  8  1  0
  2  9  2  0
  5 10  1  0
  7 11  1  0
 11 12  1  0
 12 13  2  0
 12 14  1  0
 14 15  1  0
 14 16  1  0
  4 17  1  0
  8 18  1  0
 18 19  1  0
 19 20  2  0
 19 21  1  0
 21 22  1  0
 27 28  1  0
 24 29  1  0
 29 30  2  0
 30 31  1  0
 31 32  2  0
 32 33  1  0
 33 34  2  0
 34 29  1  0
 22 23  2  0
 23 24  1  0
 24 25  2  0
 25 26  1  0
 26 27  2  0
 27 22  1  0
  1  3  2  0
  3  4  1  0
  4  5  2  0
  5  6  1  0
  6  7  2  0
  7  1  1  0
M  END

$$$$
