No_2377-gen_results/8p0m/2024-11-26-14-13-15/
     RDKit          3D

 21 22  0  0  0  0  0  0  0  0999 V2000
  -28.0162   -0.8135   28.8779 C   0  0  0  0  0  0  0  0  0  0  0  0
  -27.0636   -0.1189   28.6079 C   0  0  0  0  0  0  0  0  0  0  0  0
  -25.7647   -0.3897   29.0360 C   0  0  0  0  0  0  0  0  0  0  0  0
  -25.4887   -1.1536   29.7171 C   0  0  0  0  0  0  0  0  0  0  0  0
  -27.7606   -1.9034   29.8572 C   0  0  0  0  0  0  0  0  0  0  0  0
  -26.4781   -2.1057   30.2362 C   0  0  0  0  0  0  0  0  0  0  0  0
  -28.7676   -2.8171   30.3438 C   0  0  0  0  0  0  0  0  0  0  0  0
  -29.8193   -2.6275   30.3438 O   0  0  0  0  0  0  0  0  0  0  0  0
  -28.2827   -4.0011   30.8131 O   0  0  0  0  0  0  0  0  0  0  0  0
  -27.0817    1.0934   27.5974 C   0  0  0  0  0  0  0  0  0  0  0  0
  -28.1249    1.4900   27.2184 C   0  0  0  0  0  0  0  0  0  0  0  0
  -25.8715    1.6557   27.1275 C   0  0  0  0  0  0  0  0  0  0  0  0
  -24.7056    1.2196   27.2285 C   0  0  0  0  0  0  0  0  0  0  0  0
  -24.4914    0.1909   28.3208 C   0  0  0  0  0  0  0  0  0  0  0  0
  -29.1805    1.3016   27.5156 O   0  0  0  0  0  0  0  0  0  0  0  0
  -28.1326    2.6973   26.4450 N   0  0  0  0  0  0  0  0  0  0  0  0
  -23.1979   -0.2515   28.6972 C   0  0  0  0  0  0  0  0  0  0  0  0
  -22.1004    0.7071   29.0233 C   0  0  0  0  0  0  0  0  0  0  0  0
  -22.2659    2.0058   28.7728 C   0  0  0  0  0  0  0  0  0  0  0  0
  -29.2902    3.4796   26.1771 C   0  0  0  0  0  0  0  0  0  0  0  0
  -26.8817    3.1306   25.9029 C   0  0  0  0  0  0  0  0  0  0  0  0
  5  7  1  0
  7  8  2  0
  7  9  1  0
 10 11  1  0
 11 15  2  0
 11 16  1  0
 14 17  1  0
 17 18  2  3
 18 19  1  0
 16 20  1  0
 16 21  1  0
  3 14  1  0
 14 13  2  0
 13 12  1  0
 12 10  2  0
 10  2  1  0
  1  2  2  0
  2  3  1  0
  3  4  2  0
  4  6  1  0
  6  5  2  0
  5  1  1  0
M  END

$$$$
