No_2722-gen_results/8p0m/2024-11-26-14-13-15/
     RDKit          3D

 35 38  0  0  0  0  0  0  0  0999 V2000
  -28.0162   -0.8135   28.8779 C   0  0  0  0  0  0  0  0  0  0  0  0
  -27.0636   -0.1189   28.6079 C   0  0  0  0  0  0  0  0  0  0  0  0
  -26.8756    1.1325   28.9134 C   0  0  0  0  0  0  0  0  0  0  0  0
  -27.9014    1.8066   29.6436 C   0  0  0  0  0  0  0  0  0  0  0  0
  -29.0458   -0.2316   29.7181 C   0  0  0  0  0  0  0  0  0  0  0  0
  -28.9402    1.0517   30.0597 C   0  0  0  0  0  0  0  0  0  0  0  0
  -25.8732   -0.7125   27.8045 C   0  0  0  0  0  0  0  0  0  0  0  0
  -25.2858    0.0505   26.8000 C   0  0  0  0  0  0  0  0  0  0  0  0
  -25.2235    1.4625   27.0117 C   0  0  0  0  0  0  0  0  0  0  0  0
  -26.1409    2.0494   27.9719 C   0  0  0  0  0  0  0  0  0  0  0  0
  -24.3998    2.1470   26.3108 F   0  0  0  0  0  0  0  0  0  0  0  0
  -26.0806    3.5347   28.0734 C   0  0  0  0  0  0  0  0  0  0  0  0
  -27.1400    4.2545   28.4067 C   0  0  0  0  0  0  0  0  0  0  0  0
  -24.7663    4.1568   27.9514 C   0  0  0  0  0  0  0  0  0  0  0  0
  -27.3593    5.4548   27.7663 C   0  0  0  0  0  0  0  0  0  0  0  0
  -24.8957    5.5525   27.6257 C   0  0  0  0  0  0  0  0  0  0  0  0
  -26.1122    6.2454   27.6432 C   0  0  0  0  0  0  0  0  0  0  0  0
  -29.9551    1.6351   31.0002 C   0  0  0  0  0  0  0  0  0  0  0  0
  -30.3063    3.3017   31.3867 Br  0  0  0  0  0  0  0  0  0  0  0  0
  -31.2258    1.0214   30.7741 F   0  0  0  0  0  0  0  0  0  0  0  0
  -29.5857    1.1700   32.2554 F   0  0  0  0  0  0  0  0  0  0  0  0
  -26.1466    7.6684   27.3124 C   0  0  0  0  0  0  0  0  0  0  0  0
  -26.9535    8.2421   27.1586 N   0  0  0  0  0  0  0  0  0  0  0  0
  -24.9009    8.2192   27.3868 O   0  0  0  0  0  0  0  0  0  0  0  0
  -27.0020    9.7791   26.7984 C   0  0  0  0  0  0  0  0  0  0  0  0
  -28.0712   10.3652   27.4331 C   0  0  0  0  0  0  0  0  0  0  0  0
  -29.2360   10.2628   26.8694 C   0  0  0  0  0  0  0  0  0  0  0  0
  -30.0263    9.2006   27.3601 C   0  0  0  0  0  0  0  0  0  0  0  0
  -31.0801    8.6878   26.6153 C   0  0  0  0  0  0  0  0  0  0  0  0
  -31.6537    9.5364   25.6381 C   0  0  0  0  0  0  0  0  0  0  0  0
  -30.9867   10.6540   25.1653 C   0  0  0  0  0  0  0  0  0  0  0  0
  -29.7259   10.9838   25.7610 C   0  0  0  0  0  0  0  0  0  0  0  0
  -29.0122   12.1613   25.3027 C   0  0  0  0  0  0  0  0  0  0  0  0
  -28.3502   12.0540   24.2041 C   0  0  0  0  0  0  0  0  0  0  0  0
  -28.2257   11.1059   23.4466 C   0  0  0  0  0  0  0  0  0  0  0  0
  9 11  1  0
 10 12  1  0
  6 18  1  0
 18 19  1  0
 18 20  1  0
 18 21  1  0
 17 22  1  0
 22 23  1  0
 22 24  2  0
 23 25  1  0
 25 26  1  0
 26 27  1  0
 32 33  1  0
 33 34  1  0
 34 35  2  0
 27 28  2  0
 28 29  1  0
 29 30  2  0
 30 31  1  0
 31 32  2  0
 32 27  1  0
  1  2  2  0
  3  4  2  0
  4  6  1  0
  6  5  2  0
  5  1  1  0
  2  3  1  0
  3 10  1  0
 10  9  2  0
  9  8  1  0
  8  7  2  0
  7  2  1  0
 12 13  2  0
 13 15  1  0
 15 17  2  0
 17 16  1  0
 16 14  2  0
 14 12  1  0
M  END

$$$$
