No_2739-gen_results/8p0m/2024-11-26-14-13-15/
     RDKit          3D

 15 16  0  0  0  0  0  0  0  0999 V2000
  -28.0162   -0.8135   28.8779 C   0  0  0  0  0  0  0  0  0  0  0  0
  -28.4690   -0.7850   29.8287 C   0  0  0  0  0  0  0  0  0  0  0  0
  -28.1960    0.3478   28.0550 C   0  0  0  0  0  0  0  0  0  0  0  0
  -29.0191    1.3501   28.3782 C   0  0  0  0  0  0  0  0  0  0  0  0
  -28.3170   -1.9812   30.8560 C   0  0  0  0  0  0  0  0  0  0  0  0
  -29.5950    1.2859   29.6049 C   0  0  0  0  0  0  0  0  0  0  0  0
  -29.3465    0.2093   30.3749 C   0  0  0  0  0  0  0  0  0  0  0  0
  -29.2620   -2.7236   31.0107 O   0  0  0  0  0  0  0  0  0  0  0  0
  -27.3179   -2.0203   31.6157 O   0  0  0  0  0  0  0  0  0  0  0  0
  -27.4502    0.3706   26.6869 C   0  0  0  0  0  0  0  0  0  0  0  0
  -26.0538    0.3457   26.7025 C   0  0  0  0  0  0  0  0  0  0  0  0
  -25.3122    0.7083   25.5846 C   0  0  0  0  0  0  0  0  0  0  0  0
  -28.1127    0.3897   25.5245 C   0  0  0  0  0  0  0  0  0  0  0  0
  -27.3895    0.5411   24.2929 C   0  0  0  0  0  0  0  0  0  0  0  0
  -25.9999    0.6574   24.3144 C   0  0  0  0  0  0  0  0  0  0  0  0
  2  5  1  0
  5  8  2  0
  5  9  1  0
  3 10  1  0
 10 11  2  0
 11 12  1  0
 12 15  2  0
 15 14  1  0
 14 13  2  0
 13 10  1  0
  1  2  2  0
  2  7  1  0
  7  6  2  0
  6  4  1  0
  4  3  2  0
  3  1  1  0
M  END

$$$$
