No_2468-gen_results/8p0m/2024-11-26-14-13-15/
     RDKit          3D

 11 11  0  0  0  0  0  0  0  0999 V2000
  -28.1229   -1.3353   28.4874 O   0  0  0  0  0  0  0  0  0  0  0  0
  -27.4806   -0.4044   28.7094 C   0  0  0  0  0  0  0  0  0  0  0  0
  -26.3804   -0.0867   27.9394 C   0  0  0  0  0  0  0  0  0  0  0  0
  -27.6664    0.4468   29.8988 N   0  0  0  0  0  0  0  0  0  0  0  0
  -25.1773   -0.4388   28.3946 C   0  0  0  0  0  0  0  0  0  0  0  0
  -23.9281   -0.2469   27.6677 C   0  0  0  0  0  0  0  0  0  0  0  0
  -22.6980   -0.4046   28.4363 C   0  0  0  0  0  0  0  0  0  0  0  0
  -22.7797   -1.1458   29.6708 C   0  0  0  0  0  0  0  0  0  0  0  0
  -23.9693   -1.4630   30.2503 C   0  0  0  0  0  0  0  0  0  0  0  0
  -25.1522   -1.1248   29.6547 C   0  0  0  0  0  0  0  0  0  0  0  0
  -28.7600    0.1972   30.7703 C   0  0  0  0  0  0  0  0  0  0  0  0
  1  2  2  0
  2  3  1  0
  2  4  1  0
  4 11  1  0
  3  5  1  0
  5  6  2  0
  6  7  1  0
  7  8  2  0
  8  9  1  0
  9 10  2  0
 10  5  1  0
M  END

$$$$
