No_2204-gen_results/8p0m/2024-11-26-14-13-15/
     RDKit          3D

 31 33  0  0  0  0  0  0  0  0999 V2000
  -28.0162   -0.8135   28.8779 C   0  0  0  0  0  0  0  0  0  0  0  0
  -28.4690   -0.7850   29.8287 C   0  0  0  0  0  0  0  0  0  0  0  0
  -26.5042   -0.7777   28.8766 C   0  0  0  0  0  0  0  0  0  0  0  0
  -25.8103   -0.8531   30.1028 C   0  0  0  0  0  0  0  0  0  0  0  0
  -27.9906   -0.8916   31.2257 C   0  0  0  0  0  0  0  0  0  0  0  0
  -26.6042   -0.8676   31.2652 C   0  0  0  0  0  0  0  0  0  0  0  0
  -29.9385   -0.8194   29.8358 O   0  0  0  0  0  0  0  0  0  0  0  0
  -30.5356   -0.1119   28.9448 C   0  0  0  0  0  0  0  0  0  0  0  0
  -31.4501   -0.5433   28.1111 C   0  0  0  0  0  0  0  0  0  0  0  0
  -31.8584    0.0716   26.9300 C   0  0  0  0  0  0  0  0  0  0  0  0
  -31.3692    1.3873   26.7278 C   0  0  0  0  0  0  0  0  0  0  0  0
  -30.4136    1.9203   27.5319 C   0  0  0  0  0  0  0  0  0  0  0  0
  -29.9035    1.1621   28.6113 C   0  0  0  0  0  0  0  0  0  0  0  0
  -25.5116   -0.6923   27.4657 Cl  0  0  0  0  0  0  0  0  0  0  0  0
  -31.9186   -1.8155   28.2962 O   0  0  0  0  0  0  0  0  0  0  0  0
  -32.1588   -2.3212   29.5118 C   0  0  0  0  0  0  0  0  0  0  0  0
  -33.3741   -2.0613   29.9827 C   0  0  0  0  0  0  0  0  0  0  0  0
  -34.4278   -1.5723   29.0403 Cl  0  0  0  0  0  0  0  0  0  0  0  0
  -33.8625   -3.1300   30.8866 N   0  0  0  0  0  0  0  0  0  0  0  0
  -31.8039   -3.8510   29.5434 C   0  0  0  0  0  0  0  0  0  0  0  0
  -30.6418   -4.2336   29.0600 C   0  0  0  0  0  0  0  0  0  0  0  0
  -32.4442   -4.0915   30.7591 N   0  0  0  0  0  0  0  0  0  0  0  0
  -30.2991   -5.6491   29.6074 C   0  0  0  0  0  0  0  0  0  0  0  0
  -31.7146   -4.0243   32.0127 C   0  0  0  0  0  0  0  0  0  0  0  0
  -34.1707   -2.9101   32.2195 C   0  0  0  0  0  0  0  0  0  0  0  0
  -32.3802   -4.0966   33.2248 C   0  0  0  0  0  0  0  0  0  0  0  0
  -33.5884   -3.3565   33.3485 C   0  0  0  0  0  0  0  0  0  0  0  0
  -31.6714   -4.5731   34.3638 C   0  0  0  0  0  0  0  0  0  0  0  0
  -32.8190   -5.2490   32.9455 F   0  0  0  0  0  0  0  0  0  0  0  0
  -34.4933   -3.7920   34.3365 N   0  0  0  0  0  0  0  0  0  0  0  0
  -32.8003   -1.9741   33.9212 C   0  0  0  0  0  0  0  0  0  0  0  0
  2  7  1  0
  7  8  1  0
  3 14  1  0
  9 15  1  0
 15 16  1  0
 16 17  1  0
 17 18  1  0
 17 19  1  0
 16 20  1  0
 20 21  1  0
 19 22  1  0
 20 22  1  0
 21 23  1  0
 22 24  1  0
 19 25  1  0
 24 26  2  3
 25 27  2  3
 26 28  1  0
 26 29  1  0
 27 30  1  0
 27 31  1  0
  8  9  1  0
  9 10  2  0
 10 11  1  0
 11 12  2  0
 12 13  1  0
 13  8  2  0
  1  2  2  0
  2  5  1  0
  5  6  2  0
  6  4  1  0
  4  3  2  0
  3  1  1  0
M  END

$$$$
