No_2306-gen_results/8p0m/2024-11-26-14-13-15/
     RDKit          3D

 12 13  0  0  0  0  0  0  0  0999 V2000
  -28.0162   -0.8135   28.8779 C   0  0  0  0  0  0  0  0  0  0  0  0
  -27.0636   -0.1189   28.6079 C   0  0  0  0  0  0  0  0  0  0  0  0
  -25.7647   -0.3897   29.0360 C   0  0  0  0  0  0  0  0  0  0  0  0
  -25.5296   -1.5302   29.9014 C   0  0  0  0  0  0  0  0  0  0  0  0
  -26.6888   -2.2893   30.1810 C   0  0  0  0  0  0  0  0  0  0  0  0
  -27.8727   -1.9508   29.7373 C   0  0  0  0  0  0  0  0  0  0  0  0
  -24.5486    0.4144   28.7309 C   0  0  0  0  0  0  0  0  0  0  0  0
  -23.1239    0.0705   29.2578 S   0  0  0  0  0  0  0  0  0  0  0  0
  -22.3108    1.2556   28.3534 C   0  0  0  0  0  0  0  0  0  0  0  0
  -24.6751    1.5492   27.8502 C   0  0  0  0  0  0  0  0  0  0  0  0
  -25.7200    2.1116   27.2547 C   0  0  0  0  0  0  0  0  0  0  0  0
  -23.2622    2.0792   27.6661 C   0  0  0  0  0  0  0  0  0  0  0  0
  3  7  1  0
  7  8  1  0
  8  9  1  0
  7 10  1  0
 10 11  1  0
  9 12  2  0
 10 12  1  0
  1  2  2  0
  2  3  1  0
  3  4  2  0
  4  5  1  0
  5  6  2  0
  6  1  1  0
M  END

$$$$
