No_2945-gen_results/8p0m/2024-11-26-14-13-15/
     RDKit          3D

 19 21  0  0  0  0  0  0  0  0999 V2000
  -28.0162   -0.8135   28.8779 C   0  0  0  0  0  0  0  0  0  0  0  0
  -27.0636   -0.1189   28.6079 C   0  0  0  0  0  0  0  0  0  0  0  0
  -25.8176   -0.3427   29.0487 N   0  0  0  0  0  0  0  0  0  0  0  0
  -24.6757    0.3814   28.7496 C   0  0  0  0  0  0  0  0  0  0  0  0
  -23.4276    0.0095   29.2601 C   0  0  0  0  0  0  0  0  0  0  0  0
  -23.3998   -1.3166   29.7293 C   0  0  0  0  0  0  0  0  0  0  0  0
  -24.4611   -2.1027   29.9302 C   0  0  0  0  0  0  0  0  0  0  0  0
  -25.6815   -1.6129   29.4685 C   0  0  0  0  0  0  0  0  0  0  0  0
  -29.3178   -0.1600   29.0133 C   0  0  0  0  0  0  0  0  0  0  0  0
  -30.4120   -0.8628   29.5919 C   0  0  0  0  0  0  0  0  0  0  0  0
  -30.1482   -2.0876   30.1816 C   0  0  0  0  0  0  0  0  0  0  0  0
  -28.9211   -2.6577   30.2748 C   0  0  0  0  0  0  0  0  0  0  0  0
  -27.8401   -1.9659   29.7634 C   0  0  0  0  0  0  0  0  0  0  0  0
  -26.7614   -2.3277   29.9253 C   0  0  0  0  0  0  0  0  0  0  0  0
  -27.1169    0.8878   27.6997 O   0  0  0  0  0  0  0  0  0  0  0  0
  -32.1330   -0.2013   29.4099 Br  0  0  0  0  0  0  0  0  0  0  0  0
  -22.2260    0.7381   28.9354 C   0  0  0  0  0  0  0  0  0  0  0  0
  -21.0916    0.0170   28.8251 N   0  0  0  0  0  0  0  0  0  0  0  0
  -22.2641    1.9124   28.6281 O   0  0  0  0  0  0  0  0  0  0  0  0
  1  2  1  0
  2  3  1  0
  3  4  1  0
  5  6  1  0
  3  8  1  0
  7  8  1  0
  8 14  1  0
 13 14  1  0
  2 15  2  0
 10 16  1  0
  5 17  1  0
 17 18  1  0
 17 19  2  0
  4  5  1  0
  6  7  1  0
  1  9  2  0
  9 10  1  0
 10 11  2  0
 11 12  1  0
 12 13  2  0
 13  1  1  0
M  END

$$$$
