No_2037-gen_results/8p0m/2024-11-26-14-13-15/
     RDKit          3D

 15 16  0  0  0  0  0  0  0  0999 V2000
  -28.0162   -0.8135   28.8779 C   0  0  0  0  0  0  0  0  0  0  0  0
  -27.0636   -0.1189   28.6079 C   0  0  0  0  0  0  0  0  0  0  0  0
  -26.9287    1.1713   29.0083 C   0  0  0  0  0  0  0  0  0  0  0  0
  -27.9560    1.7411   29.7840 C   0  0  0  0  0  0  0  0  0  0  0  0
  -29.0569   -0.3271   29.7466 C   0  0  0  0  0  0  0  0  0  0  0  0
  -28.9828    0.9722   30.1516 C   0  0  0  0  0  0  0  0  0  0  0  0
  -25.8907   -0.6263   27.7857 C   0  0  0  0  0  0  0  0  0  0  0  0
  -24.7183   -1.0610   28.6129 C   0  0  0  0  0  0  0  0  0  0  0  0
  -23.5950   -0.2827   28.8125 C   0  0  0  0  0  0  0  0  0  0  0  0
  -22.5044   -0.8064   29.5509 C   0  0  0  0  0  0  0  0  0  0  0  0
  -24.5481   -2.4308   28.9357 C   0  0  0  0  0  0  0  0  0  0  0  0
  -23.4521   -2.9200   29.5715 C   0  0  0  0  0  0  0  0  0  0  0  0
  -22.4239   -2.0479   29.8652 N   0  0  0  0  0  0  0  0  0  0  0  0
  -30.0459   -1.1385   30.0807 F   0  0  0  0  0  0  0  0  0  0  0  0
  -25.7834   -0.3883   26.4561 C   0  0  0  0  0  0  0  0  0  0  0  0
  2  7  1  0
  7  8  1  0
  5 14  1  0
  7 15  1  0
  8  9  2  0
  9 10  1  0
 10 13  2  0
 13 12  1  0
 12 11  2  0
 11  8  1  0
  1  2  2  0
  2  3  1  0
  3  4  2  0
  4  6  1  0
  6  5  2  0
  5  1  1  0
M  END

$$$$
