No_2151-gen_results/8p0m/2024-11-26-14-13-15/
     RDKit          3D

 14 14  0  0  0  0  0  0  0  0999 V2000
  -28.0162   -0.8135   28.8779 C   0  0  0  0  0  0  0  0  0  0  0  0
  -27.0636   -0.1189   28.6079 C   0  0  0  0  0  0  0  0  0  0  0  0
  -26.9716    0.7139   27.5060 C   0  0  0  0  0  0  0  0  0  0  0  0
  -28.1053    0.7744   26.6421 C   0  0  0  0  0  0  0  0  0  0  0  0
  -29.2008    0.1044   27.0527 C   0  0  0  0  0  0  0  0  0  0  0  0
  -29.2096   -0.6029   28.1853 C   0  0  0  0  0  0  0  0  0  0  0  0
  -30.3749    0.2232   26.1670 C   0  0  0  0  0  0  0  0  0  0  0  0
  -31.2461   -0.4191   26.3596 O   0  0  0  0  0  0  0  0  0  0  0  0
  -30.2724    1.0304   25.0166 N   0  0  0  0  0  0  0  0  0  0  0  0
  -25.7036   -0.2293   29.4308 C   0  0  0  0  0  0  0  0  0  0  0  0
  -24.6640   -0.5110   28.8934 O   0  0  0  0  0  0  0  0  0  0  0  0
  -25.6082    0.4163   30.6367 N   0  0  0  0  0  0  0  0  0  0  0  0
  -24.7994    0.7184   31.2203 C   0  0  0  0  0  0  0  0  0  0  0  0
  -23.4828    0.2429   30.9438 C   0  0  0  0  0  0  0  0  0  0  0  0
  5  7  1  0
  7  8  2  0
  7  9  1  0
  2 10  1  0
 10 11  2  0
 10 12  1  0
 12 13  2  3
 13 14  1  0
  1  2  2  0
  2  3  1  0
  3  4  2  0
  4  5  1  0
  5  6  2  0
  6  1  1  0
M  END

$$$$
