No_2139-gen_results/8p0m/2024-11-26-14-13-15/
     RDKit          3D

 35 37  0  0  0  0  0  0  0  0999 V2000
  -28.0162   -0.8135   28.8779 C   0  0  0  0  0  0  0  0  0  0  0  0
  -28.4690   -0.7850   29.8287 C   0  0  0  0  0  0  0  0  0  0  0  0
  -26.5042   -0.7777   28.8766 C   0  0  0  0  0  0  0  0  0  0  0  0
  -25.8103   -0.8531   30.1028 C   0  0  0  0  0  0  0  0  0  0  0  0
  -27.9906   -0.8916   31.2257 C   0  0  0  0  0  0  0  0  0  0  0  0
  -26.6042   -0.8676   31.2652 C   0  0  0  0  0  0  0  0  0  0  0  0
  -24.3894   -0.8049   30.1638 C   0  0  0  0  0  0  0  0  0  0  0  0
  -23.8172    0.4762   29.9118 C   0  0  0  0  0  0  0  0  0  0  0  0
  -22.5010    0.5449   29.4097 C   0  0  0  0  0  0  0  0  0  0  0  0
  -21.7696   -0.6524   29.2129 C   0  0  0  0  0  0  0  0  0  0  0  0
  -23.6939   -1.8206   29.2518 C   0  0  0  0  0  0  0  0  0  0  0  0
  -24.2572   -3.0571   29.3479 N   0  0  0  0  0  0  0  0  0  0  0  0
  -22.4527   -1.7137   28.9682 N   0  0  0  0  0  0  0  0  0  0  0  0
  -24.4181    1.7344   30.3785 C   0  0  0  0  0  0  0  0  0  0  0  0
  -24.4322    2.0818   31.5355 O   0  0  0  0  0  0  0  0  0  0  0  0
  -25.0687    2.4256   29.4616 O   0  0  0  0  0  0  0  0  0  0  0  0
  -30.0689   -0.9097   29.9904 C   0  0  0  0  0  0  0  0  0  0  0  0
  -30.5622   -1.9598   30.0693 O   0  0  0  0  0  0  0  0  0  0  0  0
  -30.7860    0.2312   29.8132 N   0  0  0  0  0  0  0  0  0  0  0  0
  -32.2268    0.1830   29.7708 C   0  0  0  0  0  0  0  0  0  0  0  0
  -30.1713    1.5731   29.7125 C   0  0  0  0  0  0  0  0  0  0  0  0
  -30.3729    2.3916   30.8656 C   0  0  0  0  0  0  0  0  0  0  0  0
  -30.1617    3.3732   30.9853 C   0  0  0  0  0  0  0  0  0  0  0  0
  -30.3623    4.2440   32.2565 C   0  0  0  0  0  0  0  0  0  0  0  0
  -30.9540    3.5617   33.2921 C   0  0  0  0  0  0  0  0  0  0  0  0
  -31.2456    2.2288   33.1525 C   0  0  0  0  0  0  0  0  0  0  0  0
  -30.9375    1.5809   32.0073 C   0  0  0  0  0  0  0  0  0  0  0  0
  -30.6955    2.4201   28.2933 P   0  0  0  0  0  0  0  0  0  0  0  0
  -30.8578    3.6543   28.5824 O   0  0  0  0  0  0  0  0  0  0  0  0
  -29.5297    2.1360   27.3713 O   0  0  0  0  0  0  0  0  0  0  0  0
  -31.8435    1.6620   27.7096 O   0  0  0  0  0  0  0  0  0  0  0  0
  -31.8584    1.4871   34.3061 C   0  0  0  0  0  0  0  0  0  0  0  0
  -32.4451    0.5472   34.2395 O   0  0  0  0  0  0  0  0  0  0  0  0
  -31.2139    1.6964   35.4580 F   0  0  0  0  0  0  0  0  0  0  0  0
  -25.8574    3.4939   29.8300 C   0  0  0  0  0  0  0  0  0  0  0  0
  4  7  1  0
 11 12  1  0
  8 14  1  0
 14 15  2  0
 14 16  1  0
  2 17  1  0
 17 18  2  0
 17 19  1  0
 19 20  1  0
 19 21  1  0
 21 22  1  0
 21 28  1  0
 28 29  1  0
 28 30  2  0
 28 31  1  0
 26 32  1  0
 32 33  2  0
 32 34  1  0
 16 35  1  0
 22 23  2  0
 23 24  1  0
 24 25  2  0
 25 26  1  0
 26 27  2  0
 27 22  1  0
  7  8  2  0
  8  9  1  0
  9 10  2  0
 10 13  1  0
 13 11  2  0
 11  7  1  0
  1  2  2  0
  2  5  1  0
  5  6  2  0
  6  4  1  0
  4  3  2  0
  3  1  1  0
M  END

$$$$
