No_213-gen_results/8p0m/2024-11-26-14-13-15/
     RDKit          3D

 17 18  0  0  0  0  0  0  0  0999 V2000
  -28.0162   -0.8135   28.8779 C   0  0  0  0  0  0  0  0  0  0  0  0
  -27.0636   -0.1190   28.6079 C   0  0  0  0  0  0  0  0  0  0  0  0
  -25.7647   -0.3897   29.0360 C   0  0  0  0  0  0  0  0  0  0  0  0
  -25.5296   -1.5302   29.9014 C   0  0  0  0  0  0  0  0  0  0  0  0
  -26.6888   -2.2893   30.1810 C   0  0  0  0  0  0  0  0  0  0  0  0
  -27.8727   -1.9508   29.7373 C   0  0  0  0  0  0  0  0  0  0  0  0
  -28.9304   -2.7298   30.1154 O   0  0  0  0  0  0  0  0  0  0  0  0
  -24.5394    0.4211   28.7421 C   0  0  0  0  0  0  0  0  0  0  0  0
  -24.5259    1.2743   27.7265 C   0  0  0  0  0  0  0  0  0  0  0  0
  -23.5071    1.9288   27.3653 C   0  0  0  0  0  0  0  0  0  0  0  0
  -22.2254    1.7877   27.9565 C   0  0  0  0  0  0  0  0  0  0  0  0
  -23.3867    0.3100   29.5882 C   0  0  0  0  0  0  0  0  0  0  0  0
  -22.1900    0.9691   29.1216 C   0  0  0  0  0  0  0  0  0  0  0  0
  -30.0649   -2.2188   30.5701 C   0  0  0  0  0  0  0  0  0  0  0  0
  -31.1045   -2.9223   30.2171 C   0  0  0  0  0  0  0  0  0  0  0  0
  -31.9777   -2.4829   29.5669 O   0  0  0  0  0  0  0  0  0  0  0  0
  -31.0997   -4.3255   30.2792 O   0  0  0  0  0  0  0  0  0  0  0  0
  6  7  1  0
  3  8  1  0
  7 14  1  0
 14 15  1  0
 15 16  2  0
 15 17  1  0
  1  2  2  0
  2  3  1  0
  3  4  2  0
  4  5  1  0
  5  6  2  0
  6  1  1  0
  8  9  2  0
  9 10  1  0
 10 11  2  0
 11 13  1  0
 13 12  2  0
 12  8  1  0
M  END

$$$$
