No_2636-gen_results/8p0m/2024-11-26-14-13-15/
     RDKit          3D

 16 17  0  0  0  0  0  0  0  0999 V2000
  -28.1229   -1.3353   28.4874 O   0  0  0  0  0  0  0  0  0  0  0  0
  -27.0637   -0.8242   28.8687 C   0  0  0  0  0  0  0  0  0  0  0  0
  -26.4446   -0.0097   28.8266 N   0  0  0  0  0  0  0  0  0  0  0  0
  -26.0398   -2.0777   29.4173 C   0  0  0  0  0  0  0  0  0  0  0  0
  -27.0671    1.2974   28.3900 C   0  0  0  0  0  0  0  0  0  0  0  0
  -26.3537    2.0179   27.5228 C   0  0  0  0  0  0  0  0  0  0  0  0
  -25.0125    1.9317   27.5179 C   0  0  0  0  0  0  0  0  0  0  0  0
  -24.3480    0.8428   28.1787 C   0  0  0  0  0  0  0  0  0  0  0  0
  -25.0630   -0.0265   28.6924 C   0  0  0  0  0  0  0  0  0  0  0  0
  -24.6721   -1.3593   29.0996 C   0  0  0  0  0  0  0  0  0  0  0  0
  -22.8117    0.7499   28.0727 C   0  0  0  0  0  0  0  0  0  0  0  0
  -22.2430   -0.1558   28.6104 F   0  0  0  0  0  0  0  0  0  0  0  0
  -22.1525    1.7103   27.5617 F   0  0  0  0  0  0  0  0  0  0  0  0
  -26.2192   -3.1816   29.7710 F   0  0  0  0  0  0  0  0  0  0  0  0
  -28.2446    1.6525   29.0035 C   0  0  0  0  0  0  0  0  0  0  0  0
  -28.4634    1.9480   30.1166 O   0  0  0  0  0  0  0  0  0  0  0  0
  1  2  2  0
  2  3  1  0
  2  4  1  0
  3  5  1  0
  5  6  1  0
  7  8  1  0
  3  9  1  0
  4 10  1  0
  9 10  1  0
  8 11  1  0
 11 12  1  0
 11 13  1  0
  4 14  1  0
  5 15  1  0
 15 16  2  0
  6  7  1  0
  8  9  1  0
M  END

$$$$
