No_2489-gen_results/8p0m/2024-11-26-14-13-15/
     RDKit          3D

 23 25  0  0  0  0  0  0  0  0999 V2000
  -28.0162   -0.8135   28.8779 C   0  0  0  0  0  0  0  0  0  0  0  0
  -27.0636   -0.1190   28.6079 C   0  0  0  0  0  0  0  0  0  0  0  0
  -25.7647   -0.3897   29.0360 C   0  0  0  0  0  0  0  0  0  0  0  0
  -25.5296   -1.5302   29.9014 C   0  0  0  0  0  0  0  0  0  0  0  0
  -24.2910   -1.8751   30.3797 C   0  0  0  0  0  0  0  0  0  0  0  0
  -27.9084   -1.9224   29.8277 C   0  0  0  0  0  0  0  0  0  0  0  0
  -26.6512   -2.2902   30.3071 C   0  0  0  0  0  0  0  0  0  0  0  0
  -23.6310   -0.8511   31.1806 C   0  0  0  0  0  0  0  0  0  0  0  0
  -26.9299    1.0761   27.6775 C   0  0  0  0  0  0  0  0  0  0  0  0
  -26.4788    1.9988   27.5434 C   0  0  0  0  0  0  0  0  0  0  0  0
  -25.4753    2.3341   28.7044 C   0  0  0  0  0  0  0  0  0  0  0  0
  -25.3002    3.2169   29.3813 C   0  0  0  0  0  0  0  0  0  0  0  0
  -26.4492    4.1485   29.4576 C   0  0  0  0  0  0  0  0  0  0  0  0
  -26.5294    5.0107   30.5158 C   0  0  0  0  0  0  0  0  0  0  0  0
  -27.0872    4.6075   31.5615 C   0  0  0  0  0  0  0  0  0  0  0  0
  -27.9089    3.5999   31.6065 C   0  0  0  0  0  0  0  0  0  0  0  0
  -28.4299    3.0117   32.7811 C   0  0  0  0  0  0  0  0  0  0  0  0
  -24.8540    0.9483   29.2022 C   0  0  0  0  0  0  0  0  0  0  0  0
  -28.0519    3.5943   33.9667 C   0  0  0  0  0  0  0  0  0  0  0  0
  -27.2183    4.6490   34.0974 C   0  0  0  0  0  0  0  0  0  0  0  0
  -26.6845    5.1564   32.9195 C   0  0  0  0  0  0  0  0  0  0  0  0
  -26.0474    6.4044   30.3427 C   0  0  0  0  0  0  0  0  0  0  0  0
  -25.0648    6.8243   30.9932 O   0  0  0  0  0  0  0  0  0  0  0  0
  4  5  1  0
  5  8  1  0
 12 13  1  0
 13 14  1  0
 14 15  1  0
 14 22  1  0
 22 23  2  0
 12 11  1  0
  3 18  1  0
 18 11  2  0
 11 10  1  0
 10  9  2  0
  9  2  1  0
 15 16  2  0
 16 17  1  0
 17 19  2  0
 19 20  1  0
 20 21  2  0
 21 15  1  0
  1  2  2  0
  2  3  1  0
  3  4  2  0
  4  7  1  0
  7  6  2  0
  6  1  1  0
M  END

$$$$
