No_2309-gen_results/8p0m/2024-11-26-14-13-15/
     RDKit          3D

 12 12  0  0  0  0  0  0  0  0999 V2000
  -28.0162   -0.8135   28.8779 C   0  0  0  0  0  0  0  0  0  0  0  0
  -27.0636   -0.1190   28.6079 C   0  0  0  0  0  0  0  0  0  0  0  0
  -26.9716    0.7139   27.5060 C   0  0  0  0  0  0  0  0  0  0  0  0
  -25.8205    1.4909   27.1160 C   0  0  0  0  0  0  0  0  0  0  0  0
  -24.6562    1.4242   27.9180 C   0  0  0  0  0  0  0  0  0  0  0  0
  -24.6847    0.5901   29.0659 C   0  0  0  0  0  0  0  0  0  0  0  0
  -25.8099   -0.1266   29.3338 C   0  0  0  0  0  0  0  0  0  0  0  0
  -27.8678   -1.9973   29.2855 F   0  0  0  0  0  0  0  0  0  0  0  0
  -28.8029   -0.1899   29.8735 F   0  0  0  0  0  0  0  0  0  0  0  0
  -23.4731    2.2179   27.6148 C   0  0  0  0  0  0  0  0  0  0  0  0
  -23.5163    3.2429   27.1105 O   0  0  0  0  0  0  0  0  0  0  0  0
  -22.1897    1.6640   27.8174 O   0  0  0  0  0  0  0  0  0  0  0  0
  1  2  2  3
  2  3  1  0
  3  4  1  0
  4  5  1  0
  5  6  1  0
  2  7  1  0
  6  7  1  0
  1  8  1  0
  1  9  1  0
  5 10  1  0
 10 11  2  0
 10 12  1  0
M  END

$$$$
