No_2271-gen_results/8p0m/2024-11-26-14-13-15/
     RDKit          3D

 14 14  0  0  0  0  0  0  0  0999 V2000
  -28.1493   -0.8198   28.9079 Cl  0  0  0  0  0  0  0  0  0  0  0  0
  -26.9116   -0.0797   28.9452 C   0  0  0  0  0  0  0  0  0  0  0  0
  -26.7384    1.0439   29.2534 C   0  0  0  0  0  0  0  0  0  0  0  0
  -25.4392    1.7115   29.2755 C   0  0  0  0  0  0  0  0  0  0  0  0
  -24.2813    0.9888   28.8542 C   0  0  0  0  0  0  0  0  0  0  0  0
  -24.4869   -0.3041   28.4957 C   0  0  0  0  0  0  0  0  0  0  0  0
  -25.7046   -0.8667   28.5244 C   0  0  0  0  0  0  0  0  0  0  0  0
  -22.9690    1.6346   28.7977 C   0  0  0  0  0  0  0  0  0  0  0  0
  -21.9160    1.0426   28.7571 O   0  0  0  0  0  0  0  0  0  0  0  0
  -22.9930    2.9440   28.3935 O   0  0  0  0  0  0  0  0  0  0  0  0
  -27.8147    1.9695   29.7406 C   0  0  0  0  0  0  0  0  0  0  0  0
  -28.4979    1.7838   30.6792 F   0  0  0  0  0  0  0  0  0  0  0  0
  -27.2419    3.2437   29.9177 F   0  0  0  0  0  0  0  0  0  0  0  0
  -28.5556    2.2715   28.5340 F   0  0  0  0  0  0  0  0  0  0  0  0
  1  2  1  0
  5  8  1  0
  8  9  2  0
  8 10  1  0
  3 11  1  0
 11 12  1  0
 11 13  1  0
 11 14  1  0
  2  3  2  0
  3  4  1  0
  4  5  2  0
  5  6  1  0
  6  7  2  0
  7  2  1  0
M  END

$$$$
