No_2613-gen_results/8p0m/2024-11-26-14-13-15/
     RDKit          3D

 18 20  0  0  0  0  0  0  0  0999 V2000
  -28.0162   -0.8135   28.8779 C   0  0  0  0  0  0  0  0  0  0  0  0
  -27.0636   -0.1189   28.6079 C   0  0  0  0  0  0  0  0  0  0  0  0
  -26.9716    0.7139   27.5060 C   0  0  0  0  0  0  0  0  0  0  0  0
  -25.8206    1.4910   27.1160 C   0  0  0  0  0  0  0  0  0  0  0  0
  -25.7505    2.3193   26.0233 C   0  0  0  0  0  0  0  0  0  0  0  0
  -24.6040    3.1169   25.8773 C   0  0  0  0  0  0  0  0  0  0  0  0
  -23.4495    2.9057   26.6706 C   0  0  0  0  0  0  0  0  0  0  0  0
  -23.5070    2.0166   27.6858 C   0  0  0  0  0  0  0  0  0  0  0  0
  -24.6299    1.2559   27.9411 C   0  0  0  0  0  0  0  0  0  0  0  0
  -27.9866   -1.5823   30.1485 C   0  0  0  0  0  0  0  0  0  0  0  0
  -26.7741   -1.8074   30.7851 C   0  0  0  0  0  0  0  0  0  0  0  0
  -25.6121   -1.2224   30.3408 C   0  0  0  0  0  0  0  0  0  0  0  0
  -25.6764   -0.3714   29.2589 C   0  0  0  0  0  0  0  0  0  0  0  0
  -24.5589    0.3809   28.8492 C   0  0  0  0  0  0  0  0  0  0  0  0
  -28.1775    0.9184   26.6925 C   0  0  0  0  0  0  0  0  0  0  0  0
  -28.2955    1.7985   25.9514 O   0  0  0  0  0  0  0  0  0  0  0  0
  -29.1246    0.0936   26.9322 O   0  0  0  0  0  0  0  0  0  0  0  0
  -23.4777    0.1713   29.5670 O   0  0  0  0  0  0  0  0  0  0  0  0
  2  3  1  0
  3  4  1  0
  9 14  1  0
 13 14  1  0
  3 15  1  0
 15 16  2  0
 15 17  1  0
 14 18  2  0
  4  5  2  0
  5  6  1  0
  6  7  2  0
  7  8  1  0
  8  9  2  0
  9  4  1  0
  1  2  2  0
  2 13  1  0
 13 12  2  0
 12 11  1  0
 11 10  2  0
 10  1  1  0
M  END

$$$$
