No_2419-gen_results/8p0m/2024-11-26-14-13-15/
     RDKit          3D

 25 27  0  0  0  0  0  0  0  0999 V2000
  -28.0162   -0.8135   28.8779 C   0  0  0  0  0  0  0  0  0  0  0  0
  -28.4690   -0.7850   29.8287 C   0  0  0  0  0  0  0  0  0  0  0  0
  -26.5042   -0.7777   28.8766 C   0  0  0  0  0  0  0  0  0  0  0  0
  -25.8103   -0.8531   30.1028 C   0  0  0  0  0  0  0  0  0  0  0  0
  -27.9906   -0.8916   31.2257 C   0  0  0  0  0  0  0  0  0  0  0  0
  -26.6042   -0.8676   31.2652 C   0  0  0  0  0  0  0  0  0  0  0  0
  -24.3894   -0.8049   30.1638 C   0  0  0  0  0  0  0  0  0  0  0  0
  -23.7660   -0.9500   31.0679 C   0  0  0  0  0  0  0  0  0  0  0  0
  -22.2665   -0.8379   31.2250 C   0  0  0  0  0  0  0  0  0  0  0  0
  -21.6700   -0.5264   30.0648 C   0  0  0  0  0  0  0  0  0  0  0  0
  -23.6437   -0.4433   28.9621 C   0  0  0  0  0  0  0  0  0  0  0  0
  -22.3479   -0.3035   28.9177 C   0  0  0  0  0  0  0  0  0  0  0  0
  -30.0865   -0.8367   30.0156 C   0  0  0  0  0  0  0  0  0  0  0  0
  -30.6715   -1.8362   30.1178 O   0  0  0  0  0  0  0  0  0  0  0  0
  -30.7292    0.2860   29.4110 N   0  0  0  0  0  0  0  0  0  0  0  0
  -32.1246    0.2860   29.2653 C   0  0  0  0  0  0  0  0  0  0  0  0
  -30.0165    1.5479   29.1903 C   0  0  0  0  0  0  0  0  0  0  0  0
  -29.8950    1.8827   27.9766 C   0  0  0  0  0  0  0  0  0  0  0  0
  -30.2063    2.9707   27.6062 C   0  0  0  0  0  0  0  0  0  0  0  0
  -30.1484    4.1571   28.4835 C   0  0  0  0  0  0  0  0  0  0  0  0
  -30.1324    3.7743   29.8598 C   0  0  0  0  0  0  0  0  0  0  0  0
  -29.9721    2.4055   30.3093 C   0  0  0  0  0  0  0  0  0  0  0  0
  -30.0791    4.8403   30.9226 C   0  0  0  0  0  0  0  0  0  0  0  0
  -29.5738    5.8834   30.8047 N   0  0  0  0  0  0  0  0  0  0  0  0
  -29.5218    6.7982   31.8232 C   0  0  0  0  0  0  0  0  0  0  0  0
  4  7  1  0
  2 13  1  0
 13 14  2  0
 13 15  1  0
 15 16  1  0
 15 17  1  0
 21 23  1  0
 23 24  2  3
 24 25  1  0
  7  8  2  0
  8  9  1  0
  9 10  2  0
 10 12  1  0
 12 11  2  0
 11  7  1  0
 17 18  2  0
 18 19  1  0
 19 20  2  0
 20 21  1  0
 21 22  2  0
 22 17  1  0
  1  2  2  0
  2  5  1  0
  5  6  2  0
  6  4  1  0
  4  3  2  0
  3  1  1  0
M  END

$$$$
