No_2951-gen_results/8p0m/2024-11-26-14-13-15/
     RDKit          3D

 12 12  0  0  0  0  0  0  0  0999 V2000
  -28.0162   -0.8135   28.8779 C   0  0  0  0  0  0  0  0  0  0  0  0
  -27.0636   -0.1190   28.6079 C   0  0  0  0  0  0  0  0  0  0  0  0
  -26.9528    1.3495   28.8384 Cl  0  0  0  0  0  0  0  0  0  0  0  0
  -28.3373   -0.6768   30.3443 C   0  0  0  0  0  0  0  0  0  0  0  0
  -28.5503    0.6365   30.7411 C   0  0  0  0  0  0  0  0  0  0  0  0
  -27.3418    1.4988   30.4368 C   0  0  0  0  0  0  0  0  0  0  0  0
  -26.1301    1.1851   31.2819 C   0  0  0  0  0  0  0  0  0  0  0  0
  -27.6671    2.9999   30.7610 C   0  0  0  0  0  0  0  0  0  0  0  0
  -28.3815    3.6854   30.0635 C   0  0  0  0  0  0  0  0  0  0  0  0
  -26.9644    3.4977   31.9659 C   0  0  0  0  0  0  0  0  0  0  0  0
  -25.9383    3.0115   32.6905 C   0  0  0  0  0  0  0  0  0  0  0  0
  -25.5565    1.7383   32.3971 C   0  0  0  0  0  0  0  0  0  0  0  0
  1  2  1  0
  2  3  1  0
  1  4  1  0
  4  5  1  0
  5  6  1  0
  8  9  1  0
  6  7  2  0
  7 12  1  0
 12 11  2  0
 11 10  1  0
 10  8  2  0
  8  6  1  0
M  END

$$$$
