No_2994-gen_results/8p0m/2024-11-26-14-13-15/
     RDKit          3D

 20 22  0  0  0  0  0  0  0  0999 V2000
  -28.0162   -0.8135   28.8779 C   0  0  0  0  0  0  0  0  0  0  0  0
  -28.4690   -0.7850   29.8287 C   0  0  0  0  0  0  0  0  0  0  0  0
  -26.5455   -0.8762   28.8500 C   0  0  0  0  0  0  0  0  0  0  0  0
  -25.8041   -1.0324   30.0571 C   0  0  0  0  0  0  0  0  0  0  0  0
  -27.9437   -0.9869   31.2075 C   0  0  0  0  0  0  0  0  0  0  0  0
  -26.5825   -1.0386   31.2231 C   0  0  0  0  0  0  0  0  0  0  0  0
  -24.3810   -1.1082   30.0855 C   0  0  0  0  0  0  0  0  0  0  0  0
  -23.7590   -1.1322   30.8961 C   0  0  0  0  0  0  0  0  0  0  0  0
  -24.3562   -0.7699   32.2492 C   0  0  0  0  0  0  0  0  0  0  0  0
  -25.7653   -0.8949   32.4030 C   0  0  0  0  0  0  0  0  0  0  0  0
  -30.0762   -0.8305   30.0226 C   0  0  0  0  0  0  0  0  0  0  0  0
  -30.6975   -0.0730   29.4035 O   0  0  0  0  0  0  0  0  0  0  0  0
  -30.6618   -1.6589   30.8178 O   0  0  0  0  0  0  0  0  0  0  0  0
  -25.7851   -0.8313   27.5622 C   0  0  0  0  0  0  0  0  0  0  0  0
  -25.6001    0.5193   27.0275 C   0  0  0  0  0  0  0  0  0  0  0  0
  -24.5078    1.0767   27.3266 C   0  0  0  0  0  0  0  0  0  0  0  0
  -24.0416    2.1028   27.3081 C   0  0  0  0  0  0  0  0  0  0  0  0
  -24.7042    3.0849   26.3879 C   0  0  0  0  0  0  0  0  0  0  0  0
  -26.5139    1.0825   26.1617 C   0  0  0  0  0  0  0  0  0  0  0  0
  -25.9542    2.7412   26.0292 C   0  0  0  0  0  0  0  0  0  0  0  0
  2 11  1  0
 11 12  1  0
 11 13  2  0
  3 14  1  0
 14 15  1  0
  6 10  1  0
 10  9  2  0
  9  8  1  0
  8  7  2  0
  7  4  1  0
  1  2  2  0
  2  5  1  0
  5  6  2  0
  6  4  1  0
  4  3  2  0
  3  1  1  0
 15 16  2  0
 16 17  1  0
 17 18  2  0
 18 20  1  0
 20 19  2  0
 19 15  1  0
M  END

$$$$
