No_205-gen_results/8p0m/2024-11-26-14-13-15/
     RDKit          3D

 18 19  0  0  0  0  0  0  0  0999 V2000
  -28.0162   -0.8135   28.8779 C   0  0  0  0  0  0  0  0  0  0  0  0
  -27.0636   -0.1189   28.6079 C   0  0  0  0  0  0  0  0  0  0  0  0
  -25.7647   -0.3897   29.0360 C   0  0  0  0  0  0  0  0  0  0  0  0
  -25.5296   -1.5302   29.9014 C   0  0  0  0  0  0  0  0  0  0  0  0
  -26.6888   -2.2893   30.1810 C   0  0  0  0  0  0  0  0  0  0  0  0
  -27.8727   -1.9508   29.7373 C   0  0  0  0  0  0  0  0  0  0  0  0
  -24.6274    0.3693   28.7540 N   0  0  0  0  0  0  0  0  0  0  0  0
  -24.0465    1.2310   29.5023 C   0  0  0  0  0  0  0  0  0  0  0  0
  -22.8434    1.8801   29.0241 C   0  0  0  0  0  0  0  0  0  0  0  0
  -24.1186    0.3776   27.4341 C   0  0  0  0  0  0  0  0  0  0  0  0
  -23.0393    1.0587   26.9722 C   0  0  0  0  0  0  0  0  0  0  0  0
  -22.3805    1.9186   27.8661 C   0  0  0  0  0  0  0  0  0  0  0  0
  -24.4421    1.2981   30.9511 C   0  0  0  0  0  0  0  0  0  0  0  0
  -24.5097    0.4714   31.7299 O   0  0  0  0  0  0  0  0  0  0  0  0
  -24.7404    2.6857   31.3371 N   0  0  0  0  0  0  0  0  0  0  0  0
  -25.2123    2.9714   32.6795 C   0  0  0  0  0  0  0  0  0  0  0  0
  -26.5579    3.6228   32.6295 C   0  0  0  0  0  0  0  0  0  0  0  0
  -27.2203    3.5226   33.6114 C   0  0  0  0  0  0  0  0  0  0  0  0
  3  7  1  0
  7  8  1  0
  7 10  1  0
  9 12  1  0
 11 12  1  0
  8 13  1  0
 13 14  2  0
 13 15  1  0
 15 16  1  0
 16 17  1  0
 17 18  3  0
  8  9  1  0
 11 10  1  0
  1  2  2  0
  2  3  1  0
  3  4  2  0
  4  5  1  0
  5  6  2  0
  6  1  1  0
M  END

$$$$
