No_2027-gen_results/8p0m/2024-11-26-14-13-15/
     RDKit          3D

 12 12  0  0  0  0  0  0  0  0999 V2000
  -28.0544   -1.0498   28.7246 N   0  0  0  0  0  0  0  0  0  0  0  0
  -28.6544   -0.5669   29.5076 C   0  0  0  0  0  0  0  0  0  0  0  0
  -30.0039   -0.7251   29.6776 C   0  0  0  0  0  0  0  0  0  0  0  0
  -30.6756   -1.1882   28.7795 C   0  0  0  0  0  0  0  0  0  0  0  0
  -32.0729   -1.4212   28.9722 C   0  0  0  0  0  0  0  0  0  0  0  0
  -32.8588   -1.9794   27.8981 C   0  0  0  0  0  0  0  0  0  0  0  0
  -32.2178   -2.1318   26.6133 C   0  0  0  0  0  0  0  0  0  0  0  0
  -30.9667   -1.6047   26.3950 C   0  0  0  0  0  0  0  0  0  0  0  0
  -30.2134   -1.1187   27.4528 C   0  0  0  0  0  0  0  0  0  0  0  0
  -26.6028   -0.8606   28.5734 C   0  0  0  0  0  0  0  0  0  0  0  0
  -25.8361   -1.0256   27.5696 C   0  0  0  0  0  0  0  0  0  0  0  0
  -24.3971   -0.7283   27.6557 C   0  0  0  0  0  0  0  0  0  0  0  0
  1  2  2  3
  2  3  1  0
  3  4  1  0
  1 10  1  0
 10 11  2  3
 11 12  1  0
  4  5  2  0
  5  6  1  0
  6  7  2  0
  7  8  1  0
  8  9  2  0
  9  4  1  0
M  END

$$$$
