No_2673-gen_results/8p0m/2024-11-26-14-13-15/
     RDKit          3D

 24 26  0  0  0  0  0  0  0  0999 V2000
  -28.0162   -0.8135   28.8779 C   0  0  0  0  0  0  0  0  0  0  0  0
  -27.0636   -0.1189   28.6079 C   0  0  0  0  0  0  0  0  0  0  0  0
  -25.7923   -0.4302   29.0761 C   0  0  0  0  0  0  0  0  0  0  0  0
  -25.5756   -1.5654   29.9363 C   0  0  0  0  0  0  0  0  0  0  0  0
  -26.7354   -2.3004   30.2173 C   0  0  0  0  0  0  0  0  0  0  0  0
  -27.9184   -1.9537   29.7629 C   0  0  0  0  0  0  0  0  0  0  0  0
  -29.2678   -2.8890   30.2152 Cl  0  0  0  0  0  0  0  0  0  0  0  0
  -26.8758    1.0992   27.7123 C   0  0  0  0  0  0  0  0  0  0  0  0
  -26.5175    2.1227   27.8059 C   0  0  0  0  0  0  0  0  0  0  0  0
  -25.8888    2.4417   29.1898 C   0  0  0  0  0  0  0  0  0  0  0  0
  -24.4890    2.3095   29.1290 C   0  0  0  0  0  0  0  0  0  0  0  0
  -23.9718    1.0626   29.7723 C   0  0  0  0  0  0  0  0  0  0  0  0
  -22.6077    0.9852   30.1495 C   0  0  0  0  0  0  0  0  0  0  0  0
  -24.7460    0.4201   29.2304 N   0  0  0  0  0  0  0  0  0  0  0  0
  -23.8382    0.2439   27.8017 C   0  0  0  0  0  0  0  0  0  0  0  0
  -26.1710    4.0372   29.5688 C   0  0  0  0  0  0  0  0  0  0  0  0
  -26.7396    4.2580   30.8263 C   0  0  0  0  0  0  0  0  0  0  0  0
  -27.2449    3.2664   31.5374 C   0  0  0  0  0  0  0  0  0  0  0  0
  -27.1832    1.9306   31.1286 C   0  0  0  0  0  0  0  0  0  0  0  0
  -26.4839    1.5411   30.0185 C   0  0  0  0  0  0  0  0  0  0  0  0
  -25.9622    1.7085   31.0398 C   0  0  0  0  0  0  0  0  0  0  0  0
  -25.7367    0.7309   32.1772 C   0  0  0  0  0  0  0  0  0  0  0  0
  -24.8821    2.6898   31.5427 C   0  0  0  0  0  0  0  0  0  0  0  0
  -26.0564    0.9806   33.5679 C   0  0  0  0  0  0  0  0  0  0  0  0
  6  7  1  0
  2  8  1  0
  8  9  2  3
  9 10  1  0
 10 11  1  0
 11 12  1  0
 12 13  2  0
  3 14  1  0
 12 14  1  0
 14 15  1  0
 10 16  1  0
 16 17  1  0
 18 19  1  0
 10 20  1  0
 19 20  1  0
 20 21  1  0
 21 22  1  0
 21 23  1  0
 22 24  1  0
 17 18  1  0
  1  2  2  0
  2  3  1  0
  3  4  2  0
  4  5  1  0
  5  6  2  0
  6  1  1  0
M  END

$$$$
