No_2251-gen_results/8p0m/2024-11-26-14-13-15/
     RDKit          3D

 35 37  0  0  0  0  0  0  0  0999 V2000
  -28.0162   -0.8135   28.8779 C   0  0  0  0  0  0  0  0  0  0  0  0
  -28.4690   -0.7850   29.8287 C   0  0  0  0  0  0  0  0  0  0  0  0
  -26.5042   -0.7777   28.8766 C   0  0  0  0  0  0  0  0  0  0  0  0
  -25.8103   -0.8531   30.1028 C   0  0  0  0  0  0  0  0  0  0  0  0
  -27.9864   -0.8420   31.0657 C   0  0  0  0  0  0  0  0  0  0  0  0
  -26.6147   -0.8427   31.2304 C   0  0  0  0  0  0  0  0  0  0  0  0
  -24.3918   -0.7954   30.1617 C   0  0  0  0  0  0  0  0  0  0  0  0
  -23.8376   -1.6463   29.4561 F   0  0  0  0  0  0  0  0  0  0  0  0
  -23.7490   -1.0229   31.2852 F   0  0  0  0  0  0  0  0  0  0  0  0
  -23.9243    0.4291   29.7196 F   0  0  0  0  0  0  0  0  0  0  0  0
  -29.9761   -0.7961   29.7519 N   0  0  0  0  0  0  0  0  0  0  0  0
  -30.6966    0.2765   30.0838 C   0  0  0  0  0  0  0  0  0  0  0  0
  -30.0363    1.3479   30.3841 C   0  0  0  0  0  0  0  0  0  0  0  0
  -30.8334    2.5881   30.6971 C   0  0  0  0  0  0  0  0  0  0  0  0
  -32.1133    2.5293   30.5406 C   0  0  0  0  0  0  0  0  0  0  0  0
  -32.0803    0.2079   29.9608 C   0  0  0  0  0  0  0  0  0  0  0  0
  -32.7919    1.3850   30.2350 C   0  0  0  0  0  0  0  0  0  0  0  0
  -30.5882   -2.0292   29.4547 C   0  0  0  0  0  0  0  0  0  0  0  0
  -31.6395   -2.0862   28.9742 O   0  0  0  0  0  0  0  0  0  0  0  0
  -29.9433   -3.0760   29.8621 O   0  0  0  0  0  0  0  0  0  0  0  0
  -34.2754    1.3577   30.1320 C   0  0  0  0  0  0  0  0  0  0  0  0
  -35.0300    2.1900   30.4668 N   0  0  0  0  0  0  0  0  0  0  0  0
  -34.7888    0.1675   29.9564 O   0  0  0  0  0  0  0  0  0  0  0  0
  -36.4630    2.1857   30.4377 C   0  0  0  0  0  0  0  0  0  0  0  0
  -37.0389    3.2888   30.3958 C   0  0  0  0  0  0  0  0  0  0  0  0
  -38.4038    3.4430   30.4031 C   0  0  0  0  0  0  0  0  0  0  0  0
  -39.1554    2.2087   30.4007 C   0  0  0  0  0  0  0  0  0  0  0  0
  -38.4983    1.0200   30.4098 C   0  0  0  0  0  0  0  0  0  0  0  0
  -37.1296    0.9749   30.4724 C   0  0  0  0  0  0  0  0  0  0  0  0
  -40.6225    2.2588   30.3754 C   0  0  0  0  0  0  0  0  0  0  0  0
  -41.2052    3.2654   30.7999 N   0  0  0  0  0  0  0  0  0  0  0  0
  -41.2031    1.2569   29.9430 O   0  0  0  0  0  0  0  0  0  0  0  0
  -42.6631    3.3851   30.8161 C   0  0  0  0  0  0  0  0  0  0  0  0
  -43.4889    2.7642   30.9754 C   0  0  0  0  0  0  0  0  0  0  0  0
  -44.8860    3.0178   30.9679 C   0  0  0  0  0  0  0  0  0  0  0  0
  4  7  1  0
  7  8  1  0
  7  9  1  0
  7 10  1  0
  2 11  1  0
 11 12  1  0
 11 18  1  0
 18 19  2  0
 18 20  1  0
 17 21  1  0
 21 22  1  0
 21 23  2  0
 22 24  1  0
 27 30  1  0
 30 31  1  0
 30 32  2  0
 31 33  1  0
 33 34  2  3
 34 35  1  0
 12 13  2  0
 13 14  1  0
 14 15  2  0
 15 17  1  0
 17 16  2  0
 16 12  1  0
 24 25  2  0
 25 26  1  0
 26 27  2  0
 27 28  1  0
 28 29  2  0
 29 24  1  0
  1  2  2  0
  2  5  1  0
  5  6  2  0
  6  4  1  0
  4  3  2  0
  3  1  1  0
M  END

$$$$
