No_232-gen_results/8p0m/2024-11-26-14-13-15/
     RDKit          3D

 27 29  0  0  0  0  0  0  0  0999 V2000
  -28.0162   -0.8135   28.8779 C   0  0  0  0  0  0  0  0  0  0  0  0
  -28.4690   -0.7850   29.8287 C   0  0  0  0  0  0  0  0  0  0  0  0
  -27.0871    0.2903   28.6377 C   0  0  0  0  0  0  0  0  0  0  0  0
  -26.2516    0.4114   27.4223 C   0  0  0  0  0  0  0  0  0  0  0  0
  -28.3913    0.1041   30.9805 C   0  0  0  0  0  0  0  0  0  0  0  0
  -27.5332    1.1666   30.7866 C   0  0  0  0  0  0  0  0  0  0  0  0
  -26.8281    1.2557   29.6454 C   0  0  0  0  0  0  0  0  0  0  0  0
  -24.9667    0.4106   27.5253 C   0  0  0  0  0  0  0  0  0  0  0  0
  -24.2606    0.1649   28.7212 C   0  0  0  0  0  0  0  0  0  0  0  0
  -22.8025    0.3414   28.7028 C   0  0  0  0  0  0  0  0  0  0  0  0
  -22.2129    1.1393   27.7295 C   0  0  0  0  0  0  0  0  0  0  0  0
  -22.9457    1.6504   26.6540 C   0  0  0  0  0  0  0  0  0  0  0  0
  -24.3178    1.3047   26.5367 C   0  0  0  0  0  0  0  0  0  0  0  0
  -26.9341    0.2181   26.1895 C   0  0  0  0  0  0  0  0  0  0  0  0
  -27.6272    1.2007   25.9033 O   0  0  0  0  0  0  0  0  0  0  0  0
  -26.9704   -0.8287   25.5787 O   0  0  0  0  0  0  0  0  0  0  0  0
  -20.9194    1.4927   27.8613 O   0  0  0  0  0  0  0  0  0  0  0  0
  -27.3359    2.1838   31.8558 C   0  0  0  0  0  0  0  0  0  0  0  0
  -27.9421    3.3872   31.7423 C   0  0  0  0  0  0  0  0  0  0  0  0
  -28.6577    3.8421   31.1154 C   0  0  0  0  0  0  0  0  0  0  0  0
  -29.1551    5.2348   31.0696 C   0  0  0  0  0  0  0  0  0  0  0  0
  -28.6580    6.0739   32.0331 C   0  0  0  0  0  0  0  0  0  0  0  0
  -27.7120    5.6385   32.9263 C   0  0  0  0  0  0  0  0  0  0  0  0
  -27.2481    4.3354   32.8720 C   0  0  0  0  0  0  0  0  0  0  0  0
  -26.4327    1.6773   32.9582 C   0  0  0  0  0  0  0  0  0  0  0  0
  -25.2034    1.2034   32.5363 C   0  0  0  0  0  0  0  0  0  0  0  0
  -27.2200    0.8038   33.9021 C   0  0  0  0  0  0  0  0  0  0  0  0
  3  4  1  0
  4 14  1  0
 14 15  2  0
 14 16  1  0
 11 17  1  0
  6 18  1  0
 18 19  1  0
 18 25  1  0
 25 26  1  0
 25 27  1  0
  4  8  1  0
  8  9  2  0
  9 10  1  0
 10 11  2  0
 11 12  1  0
 12 13  2  0
 13  8  1  0
  1  2  2  0
  2  5  1  0
  5  6  2  0
  6  7  1  0
  7  3  2  0
  3  1  1  0
 19 20  2  0
 20 21  1  0
 21 22  2  0
 22 23  1  0
 23 24  2  0
 24 19  1  0
M  END

$$$$
