No_2048-gen_results/8p0m/2024-11-26-14-13-15/
     RDKit          3D

 14 15  0  0  0  0  0  0  0  0999 V2000
  -28.0162   -0.8135   28.8779 C   0  0  0  0  0  0  0  0  0  0  0  0
  -27.0636   -0.1189   28.6079 C   0  0  0  0  0  0  0  0  0  0  0  0
  -26.9716    0.7139   27.5060 C   0  0  0  0  0  0  0  0  0  0  0  0
  -28.1053    0.7744   26.6421 C   0  0  0  0  0  0  0  0  0  0  0  0
  -29.2041    0.1179   27.0477 C   0  0  0  0  0  0  0  0  0  0  0  0
  -29.2127   -0.6088   28.1281 C   0  0  0  0  0  0  0  0  0  0  0  0
  -25.7106    1.4518   27.1380 C   0  0  0  0  0  0  0  0  0  0  0  0
  -25.2074    2.4128   27.9320 C   0  0  0  0  0  0  0  0  0  0  0  0
  -25.7865    2.9013   29.1063 C   0  0  0  0  0  0  0  0  0  0  0  0
  -25.3934    2.2363   30.1592 C   0  0  0  0  0  0  0  0  0  0  0  0
  -24.2046    1.5238   30.2163 C   0  0  0  0  0  0  0  0  0  0  0  0
  -23.3511    1.5311   29.1120 C   0  0  0  0  0  0  0  0  0  0  0  0
  -23.6210    2.0239   28.2626 C   0  0  0  0  0  0  0  0  0  0  0  0
  -24.8557    0.7804   26.0098 Cl  0  0  0  0  0  0  0  0  0  0  0  0
  3  7  1  0
  7 14  1  0
  7  8  1  0
  1  2  2  0
  2  3  1  0
  3  4  2  0
  4  5  1  0
  5  6  2  0
  6  1  1  0
  8  9  2  0
  9 10  1  0
 10 11  2  0
 11 12  1  0
 12 13  2  0
 13  8  1  0
M  END

$$$$
