No_2285-gen_results/8p0m/2024-11-26-14-13-15/
     RDKit          3D

 19 21  0  0  0  0  0  0  0  0999 V2000
  -28.0162   -0.8135   28.8779 C   0  0  0  0  0  0  0  0  0  0  0  0
  -27.0636   -0.1189   28.6079 C   0  0  0  0  0  0  0  0  0  0  0  0
  -26.9716    0.7139   27.5060 C   0  0  0  0  0  0  0  0  0  0  0  0
  -28.1053    0.7744   26.6421 C   0  0  0  0  0  0  0  0  0  0  0  0
  -29.2041    0.1179   27.0477 C   0  0  0  0  0  0  0  0  0  0  0  0
  -29.2127   -0.6088   28.1281 C   0  0  0  0  0  0  0  0  0  0  0  0
  -25.7106    1.4518   27.1380 C   0  0  0  0  0  0  0  0  0  0  0  0
  -24.6052    0.9253   27.6902 C   0  0  0  0  0  0  0  0  0  0  0  0
  -24.6227    0.0600   28.8225 C   0  0  0  0  0  0  0  0  0  0  0  0
  -25.7269   -0.4734   29.2409 C   0  0  0  0  0  0  0  0  0  0  0  0
  -23.2721    1.6772   27.4377 C   0  0  0  0  0  0  0  0  0  0  0  0
  -22.3871    1.8817   27.9488 N   0  0  0  0  0  0  0  0  0  0  0  0
  -23.2667    2.2319   26.0636 N   0  0  0  0  0  0  0  0  0  0  0  0
  -30.4212    0.3315   26.2224 C   0  0  0  0  0  0  0  0  0  0  0  0
  -30.3296   -0.3221   25.1110 F   0  0  0  0  0  0  0  0  0  0  0  0
  -30.6354    1.6097   25.9346 F   0  0  0  0  0  0  0  0  0  0  0  0
  -31.5420   -0.1150   26.7996 F   0  0  0  0  0  0  0  0  0  0  0  0
  -22.0633    1.2317   29.1381 C   0  0  0  0  0  0  0  0  0  0  0  0
  -23.4059   -0.1318   29.6464 C   0  0  0  0  0  0  0  0  0  0  0  0
 11 13  1  0
  5 14  1  0
 14 15  1  0
 14 16  1  0
 14 17  1  0
  1  2  2  0
  3  4  2  0
  4  5  1  0
  5  6  2  0
  6  1  1  0
  9 19  1  0
 19 18  2  0
 18 12  1  0
 12 11  2  0
 11  8  1  0
  2  3  1  0
  3  7  1  0
  7  8  2  0
  8  9  1  0
  9 10  2  0
 10  2  1  0
M  END

$$$$
