No_2516-gen_results/8p0m/2024-11-26-14-13-15/
     RDKit          3D

 22 24  0  0  0  0  0  0  0  0999 V2000
  -28.0162   -0.8135   28.8779 C   0  0  0  0  0  0  0  0  0  0  0  0
  -27.0636   -0.1189   28.6079 C   0  0  0  0  0  0  0  0  0  0  0  0
  -25.7647   -0.3897   29.0360 C   0  0  0  0  0  0  0  0  0  0  0  0
  -25.5296   -1.5302   29.9014 C   0  0  0  0  0  0  0  0  0  0  0  0
  -26.6888   -2.2893   30.1810 C   0  0  0  0  0  0  0  0  0  0  0  0
  -27.8727   -1.9508   29.7373 C   0  0  0  0  0  0  0  0  0  0  0  0
  -28.9304   -2.7298   30.1154 O   0  0  0  0  0  0  0  0  0  0  0  0
  -24.5394    0.4211   28.7421 C   0  0  0  0  0  0  0  0  0  0  0  0
  -24.5259    1.2743   27.7265 C   0  0  0  0  0  0  0  0  0  0  0  0
  -23.3174    1.9856   27.4033 C   0  0  0  0  0  0  0  0  0  0  0  0
  -22.1311    1.7374   28.0503 C   0  0  0  0  0  0  0  0  0  0  0  0
  -23.2983    0.1369   29.3770 C   0  0  0  0  0  0  0  0  0  0  0  0
  -22.1005    0.8185   29.0410 C   0  0  0  0  0  0  0  0  0  0  0  0
  -29.3101   -2.7539   31.4531 C   0  0  0  0  0  0  0  0  0  0  0  0
  -29.7956   -4.0479   31.8129 C   0  0  0  0  0  0  0  0  0  0  0  0
  -30.0403   -4.2275   33.1303 C   0  0  0  0  0  0  0  0  0  0  0  0
  -29.9430   -3.1491   34.0615 C   0  0  0  0  0  0  0  0  0  0  0  0
  -29.4237   -1.9487   33.6511 C   0  0  0  0  0  0  0  0  0  0  0  0
  -29.0562   -1.7504   32.3291 C   0  0  0  0  0  0  0  0  0  0  0  0
  -29.8897   -5.1399   30.8932 C   0  0  0  0  0  0  0  0  0  0  0  0
  -30.9169   -5.3654   30.5383 O   0  0  0  0  0  0  0  0  0  0  0  0
  -28.7709   -5.6447   30.4371 O   0  0  0  0  0  0  0  0  0  0  0  0
  6  7  1  0
  3  8  1  0
  7 14  1  0
 15 20  1  0
 20 21  1  0
 20 22  2  0
  1  2  2  0
  2  3  1  0
  3  4  2  0
  4  5  1  0
  5  6  2  0
  6  1  1  0
 14 15  2  0
 15 16  1  0
 16 17  2  0
 17 18  1  0
 18 19  2  0
 19 14  1  0
  8  9  2  0
  9 10  1  0
 10 11  2  0
 11 13  1  0
 13 12  2  0
 12  8  1  0
M  END

$$$$
