No_2353-gen_results/8p0m/2024-11-26-14-13-15/
     RDKit          3D

 24 26  0  0  0  0  0  0  0  0999 V2000
  -28.0162   -0.8135   28.8779 C   0  0  0  0  0  0  0  0  0  0  0  0
  -28.4690   -0.7850   29.8287 C   0  0  0  0  0  0  0  0  0  0  0  0
  -28.1960    0.3478   28.0550 C   0  0  0  0  0  0  0  0  0  0  0  0
  -27.4421    0.5100   26.7946 C   0  0  0  0  0  0  0  0  0  0  0  0
  -26.4394    0.8329   26.6142 C   0  0  0  0  0  0  0  0  0  0  0  0
  -25.3280    0.8299   26.6309 C   0  0  0  0  0  0  0  0  0  0  0  0
  -24.0748    1.2813   27.0970 C   0  0  0  0  0  0  0  0  0  0  0  0
  -23.0034    1.5265   27.4729 C   0  0  0  0  0  0  0  0  0  0  0  0
  -29.5315    0.0456   30.3313 C   0  0  0  0  0  0  0  0  0  0  0  0
  -29.1550    1.2464   28.4159 C   0  0  0  0  0  0  0  0  0  0  0  0
  -29.8069    1.1097   29.5595 C   0  0  0  0  0  0  0  0  0  0  0  0
  -21.8168    1.6731   28.1355 C   0  0  0  0  0  0  0  0  0  0  0  0
  -28.4734    0.6659   25.7464 C   0  0  0  0  0  0  0  0  0  0  0  0
  -29.4791    0.1041   25.4615 C   0  0  0  0  0  0  0  0  0  0  0  0
  -30.1570    0.3465   24.1668 C   0  0  0  0  0  0  0  0  0  0  0  0
  -31.4488   -0.1278   23.9250 C   0  0  0  0  0  0  0  0  0  0  0  0
  -27.9728    1.4430   24.5779 C   0  0  0  0  0  0  0  0  0  0  0  0
  -28.8398    1.4351   23.5512 C   0  0  0  0  0  0  0  0  0  0  0  0
  -32.3498    0.1694   24.7884 C   0  0  0  0  0  0  0  0  0  0  0  0
  -33.6832   -0.4024   24.6406 C   0  0  0  0  0  0  0  0  0  0  0  0
  -33.8907   -1.1172   23.5069 C   0  0  0  0  0  0  0  0  0  0  0  0
  -32.8691   -1.3125   22.6129 C   0  0  0  0  0  0  0  0  0  0  0  0
  -31.6440   -0.8893   22.7964 C   0  0  0  0  0  0  0  0  0  0  0  0
  -21.7655    2.0084   29.2741 F   0  0  0  0  0  0  0  0  0  0  0  0
  3  4  1  0
  4  5  2  3
  5  6  1  0
  6  7  2  3
  7  8  1  0
  8 12  3  0
  4 13  1  0
 13 14  2  0
 14 15  1  0
 13 17  1  0
 15 18  1  0
 17 18  2  0
 12 24  1  0
 15 16  1  0
 16 19  2  0
 19 20  1  0
 20 21  2  0
 21 22  1  0
 22 23  2  0
 23 16  1  0
  1  2  2  0
  2  9  1  0
  9 11  2  0
 11 10  1  0
 10  3  2  0
  3  1  1  0
M  END

$$$$
