No_2741-gen_results/8p0m/2024-11-26-14-13-15/
     RDKit          3D

 32 35  0  0  0  0  0  0  0  0999 V2000
  -28.0162   -0.8135   28.8779 C   0  0  0  0  0  0  0  0  0  0  0  0
  -28.4690   -0.7850   29.8287 C   0  0  0  0  0  0  0  0  0  0  0  0
  -27.0871    0.2903   28.6377 C   0  0  0  0  0  0  0  0  0  0  0  0
  -26.8317    1.2487   29.5869 C   0  0  0  0  0  0  0  0  0  0  0  0
  -28.3914    0.0801   31.0065 C   0  0  0  0  0  0  0  0  0  0  0  0
  -27.4940    1.1521   30.7841 C   0  0  0  0  0  0  0  0  0  0  0  0
  -26.3172    0.3994   27.3653 C   0  0  0  0  0  0  0  0  0  0  0  0
  -26.8815    0.9711   26.3721 C   0  0  0  0  0  0  0  0  0  0  0  0
  -26.1465    0.9703   25.0973 C   0  0  0  0  0  0  0  0  0  0  0  0
  -24.7793    0.5609   25.1117 C   0  0  0  0  0  0  0  0  0  0  0  0
  -25.0074   -0.1159   27.2986 C   0  0  0  0  0  0  0  0  0  0  0  0
  -24.2881    0.0057   26.2234 C   0  0  0  0  0  0  0  0  0  0  0  0
  -24.4406   -0.6792   28.4569 N   0  0  0  0  0  0  0  0  0  0  0  0
  -23.3879   -0.1094   29.1495 C   0  0  0  0  0  0  0  0  0  0  0  0
  -24.8236   -1.9836   28.8918 C   0  0  0  0  0  0  0  0  0  0  0  0
  -24.0605   -2.7173   29.7802 C   0  0  0  0  0  0  0  0  0  0  0  0
  -22.6611   -0.7378   30.1229 C   0  0  0  0  0  0  0  0  0  0  0  0
  -23.0731   -1.9732   30.5529 C   0  0  0  0  0  0  0  0  0  0  0  0
  -22.9773    1.1402   28.7729 N   0  0  0  0  0  0  0  0  0  0  0  0
  -28.3133    1.3036   26.3588 C   0  0  0  0  0  0  0  0  0  0  0  0
  -29.1166    1.0960   27.1358 O   0  0  0  0  0  0  0  0  0  0  0  0
  -28.6913    2.0426   25.1977 N   0  0  0  0  0  0  0  0  0  0  0  0
  -30.0352    2.5227   24.9500 C   0  0  0  0  0  0  0  0  0  0  0  0
  -30.2504    3.6468   25.5184 C   0  0  0  0  0  0  0  0  0  0  0  0
  -31.6229    4.2588   25.3540 C   0  0  0  0  0  0  0  0  0  0  0  0
  -32.4994    3.6646   24.4849 C   0  0  0  0  0  0  0  0  0  0  0  0
  -32.0972    2.4542   23.8565 C   0  0  0  0  0  0  0  0  0  0  0  0
  -30.8456    1.9072   24.0794 C   0  0  0  0  0  0  0  0  0  0  0  0
  -33.8263    4.2219   24.2195 C   0  0  0  0  0  0  0  0  0  0  0  0
  -34.4145    4.9475   25.0401 N   0  0  0  0  0  0  0  0  0  0  0  0
  -35.1662    5.5328   25.3622 C   0  0  0  0  0  0  0  0  0  0  0  0
  -35.4974    6.3603   26.5467 C   0  0  0  0  0  0  0  0  0  0  0  0
  3  7  1  0
 11 13  1  0
 13 14  1  0
 13 15  1  0
 16 18  1  0
 17 18  1  0
 14 19  1  0
  8 20  1  0
 20 21  2  0
 20 22  1  0
 22 23  1  0
 26 29  1  0
 29 30  1  0
 30 31  1  0
 31 32  2  0
 14 17  1  0
 16 15  1  0
  7  8  1  0
  8  9  2  0
  9 10  1  0
 10 12  2  0
 12 11  1  0
 11  7  2  0
 23 24  2  0
 24 25  1  0
 25 26  2  0
 26 27  1  0
 27 28  2  0
 28 23  1  0
  1  2  2  0
  2  5  1  0
  5  6  2  0
  6  4  1  0
  4  3  2  0
  3  1  1  0
M  END

$$$$
