No_2627-gen_results/8p0m/2024-11-26-14-13-15/
     RDKit          3D

 17 19  0  0  0  0  0  0  0  0999 V2000
  -28.0162   -0.8135   28.8779 C   0  0  0  0  0  0  0  0  0  0  0  0
  -27.0636   -0.1189   28.6079 C   0  0  0  0  0  0  0  0  0  0  0  0
  -25.7923   -0.4302   29.0761 C   0  0  0  0  0  0  0  0  0  0  0  0
  -24.5456    0.3494   28.8225 C   0  0  0  0  0  0  0  0  0  0  0  0
  -24.6586    1.4196   27.8878 C   0  0  0  0  0  0  0  0  0  0  0  0
  -25.9471    1.6811   27.3792 C   0  0  0  0  0  0  0  0  0  0  0  0
  -27.0439    0.9739   27.6871 C   0  0  0  0  0  0  0  0  0  0  0  0
  -29.1882   -0.1472   29.0918 N   0  0  0  0  0  0  0  0  0  0  0  0
  -30.2017   -0.7833   29.7303 C   0  0  0  0  0  0  0  0  0  0  0  0
  -23.4507    2.1524   27.6005 C   0  0  0  0  0  0  0  0  0  0  0  0
  -22.2617    1.7464   28.0912 N   0  0  0  0  0  0  0  0  0  0  0  0
  -23.5272    2.9973   26.6826 F   0  0  0  0  0  0  0  0  0  0  0  0
  -29.9448   -2.0186   30.2980 C   0  0  0  0  0  0  0  0  0  0  0  0
  -28.7216   -2.6236   30.2916 C   0  0  0  0  0  0  0  0  0  0  0  0
  -27.6963   -1.9378   29.7603 C   0  0  0  0  0  0  0  0  0  0  0  0
  -26.2705   -2.1704   29.7894 C   0  0  0  0  0  0  0  0  0  0  0  0
  -25.1221   -1.9922   29.2153 C   0  0  0  0  0  0  0  0  0  0  0  0
  5 10  1  0
 10 11  2  0
 10 12  1  0
  1  8  2  0
  8  9  1  0
  9 13  2  0
 13 14  1  0
 14 15  2  0
  1  2  1  0
  3 17  1  0
 17 16  2  0
 16 15  1  0
 15  1  1  0
  2  3  1  0
  3  4  2  0
  4  5  1  0
  5  6  2  0
  6  7  1  0
  7  2  2  0
M  END

$$$$
