No_2545-gen_results/8p0m/2024-11-26-14-13-15/
     RDKit          3D

 27 29  0  0  0  0  0  0  0  0999 V2000
  -28.0162   -0.8135   28.8779 C   0  0  0  0  0  0  0  0  0  0  0  0
  -27.0636   -0.1190   28.6079 C   0  0  0  0  0  0  0  0  0  0  0  0
  -27.0010    0.6913   27.4910 C   0  0  0  0  0  0  0  0  0  0  0  0
  -25.8548    1.4825   27.0830 C   0  0  0  0  0  0  0  0  0  0  0  0
  -24.6901    1.4526   27.8807 C   0  0  0  0  0  0  0  0  0  0  0  0
  -24.7379    0.6010   29.0416 C   0  0  0  0  0  0  0  0  0  0  0  0
  -25.8234   -0.1688   29.3887 C   0  0  0  0  0  0  0  0  0  0  0  0
  -29.2075   -0.1514   29.0660 N   0  0  0  0  0  0  0  0  0  0  0  0
  -30.2318   -0.7607   29.6957 C   0  0  0  0  0  0  0  0  0  0  0  0
  -23.5223    2.2141   27.5499 C   0  0  0  0  0  0  0  0  0  0  0  0
  -23.4475    2.8032   26.4394 O   0  0  0  0  0  0  0  0  0  0  0  0
  -22.3742    1.9957   28.1596 O   0  0  0  0  0  0  0  0  0  0  0  0
  -30.4361   -0.7168   30.9457 C   0  0  0  0  0  0  0  0  0  0  0  0
  -29.9276    0.3749   31.5706 C   0  0  0  0  0  0  0  0  0  0  0  0
  -29.6899    1.4658   30.9326 C   0  0  0  0  0  0  0  0  0  0  0  0
  -29.2876    1.2499   29.3028 C   0  0  0  0  0  0  0  0  0  0  0  0
  -25.7332   -0.9555   30.5859 C   0  0  0  0  0  0  0  0  0  0  0  0
  -31.0820   -1.8070   31.6969 C   0  0  0  0  0  0  0  0  0  0  0  0
  -30.7523   -2.9990   31.5728 C   0  0  0  0  0  0  0  0  0  0  0  0
  -31.4068   -3.9860   32.1103 C   0  0  0  0  0  0  0  0  0  0  0  0
  -32.5600   -1.7110   31.6484 C   0  0  0  0  0  0  0  0  0  0  0  0
  -33.3342   -2.6401   32.3482 C   0  0  0  0  0  0  0  0  0  0  0  0
  -32.7830   -3.9465   32.2747 C   0  0  0  0  0  0  0  0  0  0  0  0
  -33.4448   -4.7602   31.6178 O   0  0  0  0  0  0  0  0  0  0  0  0
  -25.8960   -1.4382   31.5077 P   0  0  0  0  0  0  0  0  0  0  0  0
  -27.0205   -2.2827   31.5951 O   0  0  0  0  0  0  0  0  0  0  0  0
  -26.3568   -0.2818   32.7219 O   0  0  0  0  0  0  0  0  0  0  0  0
  1  2  1  0
  1  8  1  0
  8  9  1  0
  5 10  1  0
 10 11  2  0
 10 12  1  0
  9 13  1  0
 13 14  1  0
  8 16  1  0
 15 16  1  0
  7 17  1  0
 13 18  1  0
 23 24  1  0
 17 25  3  0
 25 26  1  0
 25 27  1  0
 14 15  1  0
  2  3  2  0
  3  4  1  0
  4  5  2  0
  5  6  1  0
  6  7  2  0
  7  2  1  0
 18 19  2  0
 19 20  1  0
 20 23  2  0
 23 22  1  0
 22 21  2  0
 21 18  1  0
M  END

$$$$
