No_2076-gen_results/8p0m/2024-11-26-14-13-15/
     RDKit          3D

 21 22  0  0  0  0  0  0  0  0999 V2000
  -28.1229   -1.3353   28.4874 O   0  0  0  0  0  0  0  0  0  0  0  0
  -27.0637   -0.8242   28.8687 C   0  0  0  0  0  0  0  0  0  0  0  0
  -26.9592    0.0926   29.7582 C   0  0  0  0  0  0  0  0  0  0  0  0
  -25.8472   -1.5491   28.6589 N   0  0  0  0  0  0  0  0  0  0  0  0
  -27.8673    0.9590   30.1109 C   0  0  0  0  0  0  0  0  0  0  0  0
  -24.6693   -1.1847   28.9782 C   0  0  0  0  0  0  0  0  0  0  0  0
  -24.4807   -0.0529   29.7207 C   0  0  0  0  0  0  0  0  0  0  0  0
  -25.5750    0.6619   30.1337 C   0  0  0  0  0  0  0  0  0  0  0  0
  -28.7202    1.3487   29.5057 O   0  0  0  0  0  0  0  0  0  0  0  0
  -28.0742    1.0934   31.5544 O   0  0  0  0  0  0  0  0  0  0  0  0
  -23.0751    0.3469   30.0767 C   0  0  0  0  0  0  0  0  0  0  0  0
  -22.9067    1.4902   30.5280 N   0  0  0  0  0  0  0  0  0  0  0  0
  -22.0661   -0.3837   29.8668 O   0  0  0  0  0  0  0  0  0  0  0  0
  -29.0737    1.6275   32.1062 C   0  0  0  0  0  0  0  0  0  0  0  0
  -29.1798    1.3647   33.4851 C   0  0  0  0  0  0  0  0  0  0  0  0
  -28.0688    0.8985   34.0922 C   0  0  0  0  0  0  0  0  0  0  0  0
  -27.3783    1.0171   34.8096 C   0  0  0  0  0  0  0  0  0  0  0  0
  -26.1690    0.2373   35.2426 C   0  0  0  0  0  0  0  0  0  0  0  0
  -25.7376   -0.7002   34.2861 C   0  0  0  0  0  0  0  0  0  0  0  0
  -26.4402   -0.8701   33.1364 C   0  0  0  0  0  0  0  0  0  0  0  0
  -27.5822   -0.1761   33.0309 C   0  0  0  0  0  0  0  0  0  0  0  0
  1  2  2  0
  2  3  1  0
  2  4  1  0
  3  5  1  0
  6  7  1  0
  3  8  1  0
  5  9  2  0
  5 10  1  0
  7 11  1  0
 11 12  1  0
 11 13  2  0
 10 14  1  0
 14 15  1  0
 15 16  1  0
  8  7  1  0
  6  4  1  0
 16 17  2  0
 17 18  1  0
 18 19  2  0
 19 20  1  0
 20 21  2  0
 21 16  1  0
M  END

$$$$
