No_2698-gen_results/8p0m/2024-11-26-14-13-15/
     RDKit          3D

 33 34  0  0  0  0  0  0  0  0999 V2000
  -28.0162   -0.8135   28.8779 C   0  0  0  0  0  0  0  0  0  0  0  0
  -27.0636   -0.1189   28.6079 C   0  0  0  0  0  0  0  0  0  0  0  0
  -27.0010    0.6913   27.4910 C   0  0  0  0  0  0  0  0  0  0  0  0
  -25.8548    1.4825   27.0830 C   0  0  0  0  0  0  0  0  0  0  0  0
  -24.6901    1.4526   27.8807 C   0  0  0  0  0  0  0  0  0  0  0  0
  -24.7379    0.6010   29.0416 C   0  0  0  0  0  0  0  0  0  0  0  0
  -25.8234   -0.1688   29.3887 C   0  0  0  0  0  0  0  0  0  0  0  0
  -28.7300   -0.5298   30.0429 N   0  0  0  0  0  0  0  0  0  0  0  0
  -28.9322    0.3226   30.5381 C   0  0  0  0  0  0  0  0  0  0  0  0
  -29.3038    1.0059   31.2658 C   0  0  0  0  0  0  0  0  0  0  0  0
  -29.7293    2.1285   31.9743 C   0  0  0  0  0  0  0  0  0  0  0  0
  -23.5223    2.2331   27.5849 C   0  0  0  0  0  0  0  0  0  0  0  0
  -22.8702    2.1513   26.1027 Cl  0  0  0  0  0  0  0  0  0  0  0  0
  -29.9372    3.0685   32.6885 C   0  0  0  0  0  0  0  0  0  0  0  0
  -30.8399    3.5708   32.5697 F   0  0  0  0  0  0  0  0  0  0  0  0
  -29.7605    2.6107   33.9717 F   0  0  0  0  0  0  0  0  0  0  0  0
  -30.6944    2.4331   31.1941 F   0  0  0  0  0  0  0  0  0  0  0  0
  -28.6783    3.7033   32.6508 F   0  0  0  0  0  0  0  0  0  0  0  0
  -29.2945   -1.8282   30.6692 C   0  0  0  0  0  0  0  0  0  0  0  0
  -22.6709    2.3909   28.6061 O   0  0  0  0  0  0  0  0  0  0  0  0
  -29.3227   -1.8789   32.0564 C   0  0  0  0  0  0  0  0  0  0  0  0
  -28.6286   -2.7430   32.4445 O   0  0  0  0  0  0  0  0  0  0  0  0
  -28.1638    0.8594   26.6280 C   0  0  0  0  0  0  0  0  0  0  0  0
  -28.2630    0.4791   25.5335 O   0  0  0  0  0  0  0  0  0  0  0  0
  -29.2978    1.4361   27.2333 N   0  0  0  0  0  0  0  0  0  0  0  0
  -30.5533    1.5780   26.5823 C   0  0  0  0  0  0  0  0  0  0  0  0
  -29.9100   -0.0014   32.5457 C   0  0  0  0  0  0  0  0  0  0  0  0
  -30.4871   -2.7508   32.1719 C   0  0  0  0  0  0  0  0  0  0  0  0
  -30.3952   -0.0412   33.7873 C   0  0  0  0  0  0  0  0  0  0  0  0
  -31.0287   -0.4187   32.1914 O   0  0  0  0  0  0  0  0  0  0  0  0
  -31.8640   -1.1887   32.4783 C   0  0  0  0  0  0  0  0  0  0  0  0
  -31.8043   -2.3648   32.2163 C   0  0  0  0  0  0  0  0  0  0  0  0
  -30.2935   -4.1948   32.1390 C   0  0  0  0  0  0  0  0  0  0  0  0
  1  2  1  0
  1  8  1  0
  8  9  1  0
  9 10  1  0
 10 11  2  3
  5 12  1  0
 12 13  1  0
 11 14  1  0
 14 15  1  0
 14 16  1  0
 11 17  1  0
 14 18  1  0
  8 19  1  0
 12 20  2  0
 19 21  1  0
 21 22  1  0
  3 23  1  0
 23 24  2  0
 23 25  1  0
 25 26  1  0
 10 27  1  0
 21 28  1  0
 27 29  1  0
 27 30  1  0
 30 31  1  0
 28 32  2  0
 31 32  2  0
 28 33  1  0
  2  3  2  0
  3  4  1  0
  4  5  2  0
  5  6  1  0
  6  7  2  0
  7  2  1  0
M  END

$$$$
