No_2036-gen_results/8p0m/2024-11-26-14-13-15/
     RDKit          3D

 25 26  0  0  0  0  0  0  0  0999 V2000
  -28.0162   -0.8135   28.8779 C   0  0  0  0  0  0  0  0  0  0  0  0
  -28.4690   -0.7850   29.8287 C   0  0  0  0  0  0  0  0  0  0  0  0
  -26.5042   -0.7777   28.8766 C   0  0  0  0  0  0  0  0  0  0  0  0
  -25.8103   -0.8531   30.1028 C   0  0  0  0  0  0  0  0  0  0  0  0
  -27.9906   -0.8916   31.2257 C   0  0  0  0  0  0  0  0  0  0  0  0
  -24.3976   -0.8364   30.1775 C   0  0  0  0  0  0  0  0  0  0  0  0
  -26.5754   -0.8899   31.2661 C   0  0  0  0  0  0  0  0  0  0  0  0
  -23.7708   -0.9176   31.0960 C   0  0  0  0  0  0  0  0  0  0  0  0
  -22.3018   -0.8444   31.2151 C   0  0  0  0  0  0  0  0  0  0  0  0
  -21.6829   -0.5879   30.0577 C   0  0  0  0  0  0  0  0  0  0  0  0
  -23.6382   -0.6309   28.9339 C   0  0  0  0  0  0  0  0  0  0  0  0
  -22.3460   -0.4649   28.8964 C   0  0  0  0  0  0  0  0  0  0  0  0
  -30.0872   -0.7699   29.8523 C   0  0  0  0  0  0  0  0  0  0  0  0
  -30.7677   -1.5824   30.3042 O   0  0  0  0  0  0  0  0  0  0  0  0
  -30.5952    0.2336   29.2043 O   0  0  0  0  0  0  0  0  0  0  0  0
  -31.8394    0.2717   28.7014 C   0  0  0  0  0  0  0  0  0  0  0  0
  -32.0112   -0.1265   27.4394 C   0  0  0  0  0  0  0  0  0  0  0  0
  -31.0415    0.2761   26.4909 C   0  0  0  0  0  0  0  0  0  0  0  0
  -30.0107    0.5825   26.9983 F   0  0  0  0  0  0  0  0  0  0  0  0
  -30.8158   -0.7494   25.5275 F   0  0  0  0  0  0  0  0  0  0  0  0
  -31.7419    1.0011   25.4772 F   0  0  0  0  0  0  0  0  0  0  0  0
  -33.2460    0.1912   27.0011 F   0  0  0  0  0  0  0  0  0  0  0  0
  -31.9442   -1.5401   27.5335 F   0  0  0  0  0  0  0  0  0  0  0  0
  -32.1281    1.6558   28.8519 F   0  0  0  0  0  0  0  0  0  0  0  0
  -32.7614   -0.1381   29.6303 F   0  0  0  0  0  0  0  0  0  0  0  0
  4  6  1  0
  2 13  1  0
 13 14  2  0
 13 15  1  0
 15 16  1  0
 16 17  1  0
 17 18  1  0
 18 19  1  0
 18 20  1  0
 18 21  1  0
 17 22  1  0
 17 23  1  0
 16 24  1  0
 16 25  1  0
  6  8  2  0
  8  9  1  0
  9 10  2  0
 10 12  1  0
 12 11  2  0
 11  6  1  0
  1  2  2  0
  2  5  1  0
  5  7  2  0
  7  4  1  0
  4  3  2  0
  3  1  1  0
M  END

$$$$
