No_2907-gen_results/8p0m/2024-11-26-14-13-15/
     RDKit          3D

 15 16  0  0  0  0  0  0  0  0999 V2000
  -28.0162   -0.8135   28.8779 C   0  0  0  0  0  0  0  0  0  0  0  0
  -28.4690   -0.7850   29.8287 C   0  0  0  0  0  0  0  0  0  0  0  0
  -27.0871    0.2903   28.6377 C   0  0  0  0  0  0  0  0  0  0  0  0
  -26.7676    1.0274   29.4716 C   0  0  0  0  0  0  0  0  0  0  0  0
  -28.2764    0.0268   31.0145 C   0  0  0  0  0  0  0  0  0  0  0  0
  -27.3287    1.0538   30.7535 C   0  0  0  0  0  0  0  0  0  0  0  0
  -25.7516    2.1742   29.2499 C   0  0  0  0  0  0  0  0  0  0  0  0
  -25.3424    2.8864   29.9134 C   0  0  0  0  0  0  0  0  0  0  0  0
  -25.2136    2.1538   27.8073 C   0  0  0  0  0  0  0  0  0  0  0  0
  -24.1949    3.1155   27.4760 C   0  0  0  0  0  0  0  0  0  0  0  0
  -24.3423    4.0236   29.7083 C   0  0  0  0  0  0  0  0  0  0  0  0
  -23.8139    4.0276   28.4302 C   0  0  0  0  0  0  0  0  0  0  0  0
  -29.5343   -1.8940   30.4272 C   0  0  0  0  0  0  0  0  0  0  0  0
  -29.4013   -2.5959   31.2251 O   0  0  0  0  0  0  0  0  0  0  0  0
  -30.5873   -1.9693   29.5907 O   0  0  0  0  0  0  0  0  0  0  0  0
  4  7  1  0
  2 13  1  0
 13 14  2  0
 13 15  1  0
  7  8  2  0
  8 11  1  0
 11 12  2  0
 12 10  1  0
 10  9  2  0
  9  7  1  0
  1  2  2  0
  2  5  1  0
  5  6  2  0
  6  4  1  0
  4  3  2  0
  3  1  1  0
M  END

$$$$
