No_211-gen_results/8p0m/2024-11-26-14-13-15/
     RDKit          3D

 18 19  0  0  0  0  0  0  0  0999 V2000
  -28.0162   -0.8135   28.8779 C   0  0  0  0  0  0  0  0  0  0  0  0
  -28.4690   -0.7850   29.8287 C   0  0  0  0  0  0  0  0  0  0  0  0
  -26.5042   -0.7777   28.8766 C   0  0  0  0  0  0  0  0  0  0  0  0
  -25.8103   -0.8531   30.1028 C   0  0  0  0  0  0  0  0  0  0  0  0
  -27.9906   -0.8916   31.2257 C   0  0  0  0  0  0  0  0  0  0  0  0
  -26.6042   -0.8676   31.2652 C   0  0  0  0  0  0  0  0  0  0  0  0
  -30.0739   -0.8360   29.8615 C   0  0  0  0  0  0  0  0  0  0  0  0
  -30.5608   -0.4417   28.9417 O   0  0  0  0  0  0  0  0  0  0  0  0
  -30.7428   -1.0431   31.0560 N   0  0  0  0  0  0  0  0  0  0  0  0
  -32.1782   -1.0348   31.0369 C   0  0  0  0  0  0  0  0  0  0  0  0
  -32.7161   -1.5278   32.0196 C   0  0  0  0  0  0  0  0  0  0  0  0
  -34.0379   -1.6002   32.2164 C   0  0  0  0  0  0  0  0  0  0  0  0
  -34.8407   -1.0301   31.1335 C   0  0  0  0  0  0  0  0  0  0  0  0
  -34.2208   -0.5063   30.0470 C   0  0  0  0  0  0  0  0  0  0  0  0
  -32.8570   -0.4560   29.9727 C   0  0  0  0  0  0  0  0  0  0  0  0
  -36.3090   -1.0518   31.2200 C   0  0  0  0  0  0  0  0  0  0  0  0
  -37.0829   -1.1613   30.5093 O   0  0  0  0  0  0  0  0  0  0  0  0
  -36.7358   -0.9179   32.5540 O   0  0  0  0  0  0  0  0  0  0  0  0
  2  7  1  0
  7  8  2  0
  7  9  1  0
  9 10  1  0
 13 16  1  0
 16 17  2  0
 16 18  1  0
  1  2  2  0
  2  5  1  0
  5  6  2  0
  6  4  1  0
  4  3  2  0
  3  1  1  0
 10 11  2  0
 11 12  1  0
 12 13  2  0
 13 14  1  0
 14 15  2  0
 15 10  1  0
M  END

$$$$
