No_2067-gen_results/8p0m/2024-11-26-14-13-15/
     RDKit          3D

 15 16  0  0  0  0  0  0  0  0999 V2000
  -28.0162   -0.8135   28.8779 C   0  0  0  0  0  0  0  0  0  0  0  0
  -28.4690   -0.7850   29.8287 C   0  0  0  0  0  0  0  0  0  0  0  0
  -26.5455   -0.8762   28.8500 C   0  0  0  0  0  0  0  0  0  0  0  0
  -25.8041   -1.0324   30.0571 C   0  0  0  0  0  0  0  0  0  0  0  0
  -26.5373   -1.0386   31.2171 C   0  0  0  0  0  0  0  0  0  0  0  0
  -27.8929   -0.9601   31.1743 C   0  0  0  0  0  0  0  0  0  0  0  0
  -25.8001   -0.8259   27.7108 O   0  0  0  0  0  0  0  0  0  0  0  0
  -25.7838    0.3630   27.0424 C   0  0  0  0  0  0  0  0  0  0  0  0
  -24.5590    0.8791   26.9823 C   0  0  0  0  0  0  0  0  0  0  0  0
  -24.2281    1.8214   27.5279 C   0  0  0  0  0  0  0  0  0  0  0  0
  -22.7980    2.4384   27.4412 C   0  0  0  0  0  0  0  0  0  0  0  0
  -21.9724    1.7822   26.5702 C   0  0  0  0  0  0  0  0  0  0  0  0
  -22.5059    0.9306   25.7697 C   0  0  0  0  0  0  0  0  0  0  0  0
  -23.8175    0.5159   25.8013 C   0  0  0  0  0  0  0  0  0  0  0  0
  -26.8667    0.7753   26.5694 O   0  0  0  0  0  0  0  0  0  0  0  0
  3  7  1  0
  7  8  1  0
  8  9  1  0
  8 15  2  0
  1  2  2  0
  2  6  1  0
  6  5  2  0
  5  4  1  0
  4  3  2  0
  3  1  1  0
  9 10  2  0
 10 11  1  0
 11 12  2  0
 12 13  1  0
 13 14  2  0
 14  9  1  0
M  END

$$$$
