No_2009-gen_results/8p0m/2024-11-26-14-13-15/
     RDKit          3D

 18 19  0  0  0  0  0  0  0  0999 V2000
  -28.0162   -0.8135   28.8779 C   0  0  0  0  0  0  0  0  0  0  0  0
  -27.0636   -0.1190   28.6079 C   0  0  0  0  0  0  0  0  0  0  0  0
  -26.9716    0.7139   27.5060 C   0  0  0  0  0  0  0  0  0  0  0  0
  -28.1053    0.7744   26.6421 C   0  0  0  0  0  0  0  0  0  0  0  0
  -29.2041    0.1179   27.0477 C   0  0  0  0  0  0  0  0  0  0  0  0
  -29.2127   -0.6088   28.1281 C   0  0  0  0  0  0  0  0  0  0  0  0
  -30.2936    0.2344   26.2281 O   0  0  0  0  0  0  0  0  0  0  0  0
  -25.8516    1.3888   27.1742 F   0  0  0  0  0  0  0  0  0  0  0  0
  -27.7922   -1.6601   30.1259 C   0  0  0  0  0  0  0  0  0  0  0  0
  -26.8366   -2.3059   30.3490 O   0  0  0  0  0  0  0  0  0  0  0  0
  -28.8481   -1.8298   30.8789 O   0  0  0  0  0  0  0  0  0  0  0  0
  -28.0195    1.6017   25.5651 O   0  0  0  0  0  0  0  0  0  0  0  0
  -31.3930    0.5765   26.7303 C   0  0  0  0  0  0  0  0  0  0  0  0
  -32.3466   -0.1637   26.4749 C   0  0  0  0  0  0  0  0  0  0  0  0
  -33.6550    0.0081   27.0704 C   0  0  0  0  0  0  0  0  0  0  0  0
  -33.8225    1.1577   27.8941 C   0  0  0  0  0  0  0  0  0  0  0  0
  -32.7556    1.9597   28.1633 C   0  0  0  0  0  0  0  0  0  0  0  0
  -31.5134    1.6946   27.6523 C   0  0  0  0  0  0  0  0  0  0  0  0
  2  3  1  0
  3  4  1  0
  4  5  1  0
  1  6  1  0
  5  6  1  0
  5  7  1  0
  3  8  1  0
  1  9  1  0
  9 10  2  0
  9 11  1  0
  4 12  2  0
  7 13  1  0
  2  1  1  0
 13 14  2  0
 14 15  1  0
 15 16  2  0
 16 17  1  0
 17 18  2  0
 18 13  1  0
M  END

$$$$
