No_2174-gen_results/8p0m/2024-11-26-14-13-15/
     RDKit          3D

 20 22  0  0  0  0  0  0  0  0999 V2000
  -28.0162   -0.8135   28.8779 C   0  0  0  0  0  0  0  0  0  0  0  0
  -28.4690   -0.7850   29.8287 C   0  0  0  0  0  0  0  0  0  0  0  0
  -28.1960    0.3478   28.0550 C   0  0  0  0  0  0  0  0  0  0  0  0
  -29.0191    1.3501   28.3782 C   0  0  0  0  0  0  0  0  0  0  0  0
  -29.6249    1.2683   29.6012 C   0  0  0  0  0  0  0  0  0  0  0  0
  -29.3791    0.1469   30.3923 C   0  0  0  0  0  0  0  0  0  0  0  0
  -27.5043    0.3662   26.7958 N   0  0  0  0  0  0  0  0  0  0  0  0
  -27.7519    0.6710   25.7664 C   0  0  0  0  0  0  0  0  0  0  0  0
  -26.0240    0.0230   26.8988 C   0  0  0  0  0  0  0  0  0  0  0  0
  -25.3509   -0.1494   28.0855 C   0  0  0  0  0  0  0  0  0  0  0  0
  -24.0228   -0.1311   28.1757 C   0  0  0  0  0  0  0  0  0  0  0  0
  -23.2839   -0.4637   29.3654 C   0  0  0  0  0  0  0  0  0  0  0  0
  -23.9660   -0.8569   30.4867 C   0  0  0  0  0  0  0  0  0  0  0  0
  -25.3306   -0.9021   30.4985 C   0  0  0  0  0  0  0  0  0  0  0  0
  -25.9849   -0.5769   29.3642 C   0  0  0  0  0  0  0  0  0  0  0  0
  -27.0612   -0.1688   29.4513 P   0  0  0  0  0  0  0  0  0  0  0  0
  -27.5244    1.3288   29.3629 O   0  0  0  0  0  0  0  0  0  0  0  0
  -26.6216    2.2867   28.7724 C   0  0  0  0  0  0  0  0  0  0  0  0
  -28.6283   -2.1044   30.4689 O   0  0  0  0  0  0  0  0  0  0  0  0
  -27.4933   -0.1649   31.0604 O   0  0  0  0  0  0  0  0  0  0  0  0
  3  7  1  0
  7  8  1  0
  7  9  1  0
  9 10  1  0
  1 16  1  0
 15 16  1  0
 16 17  1  0
 17 18  1  0
  2 19  1  0
 16 20  1  0
  1  2  2  0
  2  6  1  0
  6  5  2  0
  5  4  1  0
  4  3  2  0
  3  1  1  0
 10 11  2  0
 11 12  1  0
 12 13  2  0
 13 14  1  0
 14 15  2  0
 15 10  1  0
M  END

$$$$
