No_2165-gen_results/8p0m/2024-11-26-14-13-15/
     RDKit          3D

 21 24  0  0  0  0  0  0  0  0999 V2000
  -28.0162   -0.8135   28.8779 C   0  0  0  0  0  0  0  0  0  0  0  0
  -27.0636   -0.1189   28.6079 C   0  0  0  0  0  0  0  0  0  0  0  0
  -27.0010    0.6913   27.4910 C   0  0  0  0  0  0  0  0  0  0  0  0
  -28.1373    0.7363   26.6350 C   0  0  0  0  0  0  0  0  0  0  0  0
  -29.2360    0.0765   27.0690 C   0  0  0  0  0  0  0  0  0  0  0  0
  -29.2177   -0.6429   28.1747 C   0  0  0  0  0  0  0  0  0  0  0  0
  -30.4585    0.0647   26.4120 N   0  0  0  0  0  0  0  0  0  0  0  0
  -30.5457   -0.1345   25.1409 C   0  0  0  0  0  0  0  0  0  0  0  0
  -31.6851    0.2692   27.1043 C   0  0  0  0  0  0  0  0  0  0  0  0
  -25.6859   -0.2198   29.3882 C   0  0  0  0  0  0  0  0  0  0  0  0
  -25.4109   -1.0164   30.0643 C   0  0  0  0  0  0  0  0  0  0  0  0
  -24.1124   -1.1297   30.8325 C   0  0  0  0  0  0  0  0  0  0  0  0
  -23.2384   -0.3958   30.5420 C   0  0  0  0  0  0  0  0  0  0  0  0
  -24.4633    0.6490   29.0741 C   0  0  0  0  0  0  0  0  0  0  0  0
  -23.3462    0.6144   29.6333 C   0  0  0  0  0  0  0  0  0  0  0  0
  -32.4701    0.7665   26.7102 C   0  0  0  0  0  0  0  0  0  0  0  0
  -29.4377   -0.5278   24.3671 C   0  0  0  0  0  0  0  0  0  0  0  0
  -31.7527    0.0671   24.4492 C   0  0  0  0  0  0  0  0  0  0  0  0
  -32.8527    0.5054   25.2291 C   0  0  0  0  0  0  0  0  0  0  0  0
  -28.1936    0.0937   24.5119 C   0  0  0  0  0  0  0  0  0  0  0  0
  -27.4608    0.3418   25.6090 C   0  0  0  0  0  0  0  0  0  0  0  0
  5  7  1  0
  7  8  1  0
  7  9  1  0
  2 10  1  0
  8 18  1  0
 16 19  1  0
 17 20  1  0
  4 21  1  0
 20 21  2  0
 17  8  1  0
 18 19  1  0
 16  9  1  0
  1  2  2  0
  2  3  1  0
  3  4  2  0
  4  5  1  0
  5  6  2  0
  6  1  1  0
 10 11  2  0
 11 12  1  0
 12 13  2  0
 13 15  1  0
 15 14  2  0
 14 10  1  0
M  END

$$$$
