No_2363-gen_results/8p0m/2024-11-26-14-13-15/
     RDKit          3D

 11 11  0  0  0  0  0  0  0  0999 V2000
  -28.0727   -1.2542   28.5316 F   0  0  0  0  0  0  0  0  0  0  0  0
  -27.0607   -0.6291   28.8721 C   0  0  0  0  0  0  0  0  0  0  0  0
  -26.1528   -1.1557   29.4537 C   0  0  0  0  0  0  0  0  0  0  0  0
  -26.9682    0.7647   28.4002 C   0  0  0  0  0  0  0  0  0  0  0  0
  -25.7289    1.4524   28.5758 C   0  0  0  0  0  0  0  0  0  0  0  0
  -24.8074   -0.4894   29.7771 C   0  0  0  0  0  0  0  0  0  0  0  0
  -25.5457    2.8395   28.1378 C   0  0  0  0  0  0  0  0  0  0  0  0
  -24.6491    0.8522   29.2821 C   0  0  0  0  0  0  0  0  0  0  0  0
  -26.4241    3.0599   27.2305 F   0  0  0  0  0  0  0  0  0  0  0  0
  -24.2805    2.9936   27.5462 F   0  0  0  0  0  0  0  0  0  0  0  0
  -25.6695    3.7137   29.1048 F   0  0  0  0  0  0  0  0  0  0  0  0
  1  2  1  0
  5  7  1  0
  7  9  1  0
  7 10  1  0
  7 11  1  0
  2  3  2  0
  3  6  1  0
  6  8  2  0
  8  5  1  0
  5  4  2  0
  4  2  1  0
M  END

$$$$
