No_2513-gen_results/8p0m/2024-11-26-14-13-15/
     RDKit          3D

 15 15  0  0  0  0  0  0  0  0999 V2000
  -28.0162   -0.8135   28.8779 C   0  0  0  0  0  0  0  0  0  0  0  0
  -27.0636   -0.1189   28.6079 C   0  0  0  0  0  0  0  0  0  0  0  0
  -26.9716    0.7139   27.5060 C   0  0  0  0  0  0  0  0  0  0  0  0
  -28.1053    0.7744   26.6421 C   0  0  0  0  0  0  0  0  0  0  0  0
  -29.2008    0.1044   27.0527 C   0  0  0  0  0  0  0  0  0  0  0  0
  -29.2096   -0.6029   28.1853 C   0  0  0  0  0  0  0  0  0  0  0  0
  -30.3702    0.2264   26.1604 C   0  0  0  0  0  0  0  0  0  0  0  0
  -31.3165   -0.4572   26.3805 N   0  0  0  0  0  0  0  0  0  0  0  0
  -30.3263    0.9695   25.1228 O   0  0  0  0  0  0  0  0  0  0  0  0
  -32.5164   -0.5120   25.4585 C   0  0  0  0  0  0  0  0  0  0  0  0
  -28.0480   -1.5845   30.0463 O   0  0  0  0  0  0  0  0  0  0  0  0
  -25.7154   -0.2073   29.4564 C   0  0  0  0  0  0  0  0  0  0  0  0
  -25.0021   -1.2790   29.4710 C   0  0  0  0  0  0  0  0  0  0  0  0
  -24.1191   -1.5131   28.8921 C   0  0  0  0  0  0  0  0  0  0  0  0
  -23.2065   -2.7562   29.0769 C   0  0  0  0  0  0  0  0  0  0  0  0
  5  7  1  0
  7  8  1  0
  7  9  2  0
  8 10  1  0
  1 11  1  0
  2 12  1  0
 12 13  1  0
 13 14  2  3
 14 15  1  0
  1  2  2  0
  2  3  1  0
  3  4  2  0
  4  5  1  0
  5  6  2  0
  6  1  1  0
M  END

$$$$
