No_2995-gen_results/8p0m/2024-11-26-14-13-15/
     RDKit          3D

 14 16  0  0  0  0  0  0  0  0999 V2000
  -28.0162   -0.8135   28.8779 C   0  0  0  0  0  0  0  0  0  0  0  0
  -27.0636   -0.1190   28.6079 C   0  0  0  0  0  0  0  0  0  0  0  0
  -26.9287    1.1713   29.0083 C   0  0  0  0  0  0  0  0  0  0  0  0
  -27.9560    1.7411   29.7840 C   0  0  0  0  0  0  0  0  0  0  0  0
  -29.0569   -0.3271   29.7466 C   0  0  0  0  0  0  0  0  0  0  0  0
  -28.9828    0.9722   30.1516 C   0  0  0  0  0  0  0  0  0  0  0  0
  -26.0345   -0.5985   27.8629 F   0  0  0  0  0  0  0  0  0  0  0  0
  -30.0735    1.5046   31.0074 C   0  0  0  0  0  0  0  0  0  0  0  0
  -31.0743    1.0740   31.1876 C   0  0  0  0  0  0  0  0  0  0  0  0
  -32.1324    0.9966   31.7065 C   0  0  0  0  0  0  0  0  0  0  0  0
  -33.0355   -0.0155   31.8022 C   0  0  0  0  0  0  0  0  0  0  0  0
  -32.7725   -1.1556   31.0596 C   0  0  0  0  0  0  0  0  0  0  0  0
  -31.6545   -1.2949   30.3536 C   0  0  0  0  0  0  0  0  0  0  0  0
  -30.7344   -0.2676   30.3836 C   0  0  0  0  0  0  0  0  0  0  0  0
  2  7  1  0
  6  8  1  0
  5 14  1  0
  8  9  1  0
  1  2  2  0
  2  3  1  0
  3  4  2  0
  4  6  1  0
  6  5  2  0
  5  1  1  0
  9 10  2  0
 10 11  1  0
 11 12  2  0
 12 13  1  0
 13 14  2  0
 14  9  1  0
M  END

$$$$
