No_2203-gen_results/8p0m/2024-11-26-14-13-15/
     RDKit          3D

 21 23  0  0  0  0  0  0  0  0999 V2000
  -28.0162   -0.8135   28.8779 C   0  0  0  0  0  0  0  0  0  0  0  0
  -27.0636   -0.1190   28.6079 C   0  0  0  0  0  0  0  0  0  0  0  0
  -25.7923   -0.4302   29.0761 C   0  0  0  0  0  0  0  0  0  0  0  0
  -24.5456    0.3494   28.8225 C   0  0  0  0  0  0  0  0  0  0  0  0
  -23.2409    0.0217   29.3323 C   0  0  0  0  0  0  0  0  0  0  0  0
  -27.8820   -1.8995   29.8633 C   0  0  0  0  0  0  0  0  0  0  0  0
  -26.6526   -2.3142   30.3138 C   0  0  0  0  0  0  0  0  0  0  0  0
  -25.5153   -1.5607   29.9787 C   0  0  0  0  0  0  0  0  0  0  0  0
  -22.1645    0.7936   28.9524 C   0  0  0  0  0  0  0  0  0  0  0  0
  -22.1241    1.7484   27.9889 C   0  0  0  0  0  0  0  0  0  0  0  0
  -24.5235    1.3782   27.7946 C   0  0  0  0  0  0  0  0  0  0  0  0
  -23.3387    2.0417   27.4305 C   0  0  0  0  0  0  0  0  0  0  0  0
  -29.0437   -2.7312   30.2971 C   0  0  0  0  0  0  0  0  0  0  0  0
  -29.3638   -2.5961   31.4413 N   0  0  0  0  0  0  0  0  0  0  0  0
  -29.4733   -1.5195   32.0404 C   0  0  0  0  0  0  0  0  0  0  0  0
  -29.8238   -1.5352   33.5006 C   0  0  0  0  0  0  0  0  0  0  0  0
  -29.7560   -3.8511   32.2818 C   0  0  0  0  0  0  0  0  0  0  0  0
  -30.2154   -2.7434   33.9587 C   0  0  0  0  0  0  0  0  0  0  0  0
  -30.0888   -3.8720   33.5145 C   0  0  0  0  0  0  0  0  0  0  0  0
  -29.5574   -5.3056   31.3664 Cl  0  0  0  0  0  0  0  0  0  0  0  0
  -29.6684   -3.3524   29.4641 O   0  0  0  0  0  0  0  0  0  0  0  0
  3  4  1  0
  6 13  1  0
 13 14  1  0
 14 15  1  0
 14 17  1  0
 16 18  1  0
 17 19  1  0
 17 20  1  0
 13 21  2  0
 15 16  1  0
 18 19  1  0
  1  2  2  0
  2  3  1  0
  3  8  2  0
  8  7  1  0
  7  6  2  0
  6  1  1  0
  4  5  2  0
  5  9  1  0
  9 10  2  0
 10 12  1  0
 12 11  2  0
 11  4  1  0
M  END

$$$$
