No_2774-gen_results/8p0m/2024-11-26-14-13-15/
     RDKit          3D

 18 19  0  0  0  0  0  0  0  0999 V2000
  -28.0162   -0.8135   28.8779 C   0  0  0  0  0  0  0  0  0  0  0  0
  -27.0636   -0.1189   28.6079 C   0  0  0  0  0  0  0  0  0  0  0  0
  -25.7923   -0.4302   29.0761 C   0  0  0  0  0  0  0  0  0  0  0  0
  -25.5756   -1.5654   29.9363 C   0  0  0  0  0  0  0  0  0  0  0  0
  -26.7354   -2.3004   30.2173 C   0  0  0  0  0  0  0  0  0  0  0  0
  -27.9184   -1.9537   29.7629 C   0  0  0  0  0  0  0  0  0  0  0  0
  -29.0001   -2.7012   30.1151 O   0  0  0  0  0  0  0  0  0  0  0  0
  -24.6096    0.3112   28.8145 N   0  0  0  0  0  0  0  0  0  0  0  0
  -23.3858   -0.0003   29.0394 C   0  0  0  0  0  0  0  0  0  0  0  0
  -22.2931    0.8796   28.6095 C   0  0  0  0  0  0  0  0  0  0  0  0
  -24.6779    1.5408   28.0758 C   0  0  0  0  0  0  0  0  0  0  0  0
  -23.6986    2.3083   27.5781 C   0  0  0  0  0  0  0  0  0  0  0  0
  -22.4221    1.9415   27.8820 C   0  0  0  0  0  0  0  0  0  0  0  0
  -30.1157   -2.1418   30.5979 C   0  0  0  0  0  0  0  0  0  0  0  0
  -31.1871   -2.7320   30.1646 C   0  0  0  0  0  0  0  0  0  0  0  0
  -32.1318   -2.6967   30.6190 O   0  0  0  0  0  0  0  0  0  0  0  0
  -31.1431   -3.4871   29.0293 O   0  0  0  0  0  0  0  0  0  0  0  0
  -30.0370   -0.8305   31.8087 Br  0  0  0  0  0  0  0  0  0  0  0  0
  6  7  1  0
  3  8  1  0
  8  9  1  0
  8 11  1  0
 10 13  1  0
 12 13  1  0
  7 14  1  0
 14 15  1  0
 15 16  2  0
 15 17  1  0
 14 18  1  0
  9 10  1  0
 12 11  1  0
  1  2  2  0
  2  3  1  0
  3  4  2  0
  4  5  1  0
  5  6  2  0
  6  1  1  0
M  END

$$$$
