No_2111-gen_results/8p0m/2024-11-26-14-13-15/
     RDKit          3D

 35 36  0  0  0  0  0  0  0  0999 V2000
  -28.0544   -1.0498   28.7246 N   0  0  0  0  0  0  0  0  0  0  0  0
  -28.6544   -0.5669   29.5076 C   0  0  0  0  0  0  0  0  0  0  0  0
  -26.7777   -0.5807   28.6029 C   0  0  0  0  0  0  0  0  0  0  0  0
  -25.7560   -1.0215   27.7024 C   0  0  0  0  0  0  0  0  0  0  0  0
  -24.5818   -0.4731   27.6686 C   0  0  0  0  0  0  0  0  0  0  0  0
  -24.1870    0.5888   28.5519 C   0  0  0  0  0  0  0  0  0  0  0  0
  -22.8709    1.1612   28.4992 C   0  0  0  0  0  0  0  0  0  0  0  0
  -25.0808    1.1261   29.5364 C   0  0  0  0  0  0  0  0  0  0  0  0
  -26.3628    0.4713   29.5519 C   0  0  0  0  0  0  0  0  0  0  0  0
  -30.1217   -1.1285   29.6365 C   0  0  0  0  0  0  0  0  0  0  0  0
  -28.6267    0.2208   30.5307 O   0  0  0  0  0  0  0  0  0  0  0  0
  -21.7577    0.5935   28.8587 N   0  0  0  0  0  0  0  0  0  0  0  0
  -22.7103    2.3307   27.8808 O   0  0  0  0  0  0  0  0  0  0  0  0
  -30.9010   -0.6177   30.4786 O   0  0  0  0  0  0  0  0  0  0  0  0
  -30.5084   -2.0110   28.8686 O   0  0  0  0  0  0  0  0  0  0  0  0
  -21.7957   -0.7253   29.4965 C   0  0  0  0  0  0  0  0  0  0  0  0
  -24.7441    2.1384   30.4755 C   0  0  0  0  0  0  0  0  0  0  0  0
  -25.8075    2.6397   31.2957 C   0  0  0  0  0  0  0  0  0  0  0  0
  -25.5728    3.5661   32.2774 C   0  0  0  0  0  0  0  0  0  0  0  0
  -24.8270    4.6955   31.8246 C   0  0  0  0  0  0  0  0  0  0  0  0
  -25.5917    5.7762   31.6514 O   0  0  0  0  0  0  0  0  0  0  0  0
  -25.2961    6.6638   30.7647 C   0  0  0  0  0  0  0  0  0  0  0  0
  -25.8508    6.4303   29.4325 C   0  0  0  0  0  0  0  0  0  0  0  0
  -25.1921    6.9466   28.3569 C   0  0  0  0  0  0  0  0  0  0  0  0
  -25.5644    8.1221   31.0663 C   0  0  0  0  0  0  0  0  0  0  0  0
  -24.9185    9.0360   30.0173 C   0  0  0  0  0  0  0  0  0  0  0  0
  -25.3342    8.5777   28.5791 C   0  0  0  0  0  0  0  0  0  0  0  0
  -26.7339    3.8712   33.0759 O   0  0  0  0  0  0  0  0  0  0  0  0
  -27.0511    3.1555   34.0846 C   0  0  0  0  0  0  0  0  0  0  0  0
  -28.0158    2.2436   33.7441 C   0  0  0  0  0  0  0  0  0  0  0  0
  -29.3793    2.6213   33.8158 C   0  0  0  0  0  0  0  0  0  0  0  0
  -29.7454    3.6938   33.9731 C   0  0  0  0  0  0  0  0  0  0  0  0
  -31.2046    4.0687   33.8873 C   0  0  0  0  0  0  0  0  0  0  0  0
  -30.4069    1.5849   33.5445 C   0  0  0  0  0  0  0  0  0  0  0  0
  -31.7251    1.8247   33.4275 C   0  0  0  0  0  0  0  0  0  0  0  0
  1  2  1  0
  6  7  1  0
  2 10  1  0
  2 11  2  0
  7 12  1  0
  7 13  2  0
 10 14  1  0
 10 15  2  0
 12 16  1  0
  8 17  1  0
 17 18  1  0
 18 19  1  0
 19 20  1  0
 20 21  1  0
 21 22  1  0
 19 28  1  0
 28 29  1  0
 29 30  1  0
 30 31  1  0
 31 32  1  0
 32 33  2  0
 31 34  1  0
 34 35  2  0
  1  3  1  0
  3  4  2  0
  4  5  1  0
  5  6  2  0
  6  8  1  0
  8  9  2  0
  9  3  1  0
 22 23  2  0
 23 24  1  0
 24 27  2  0
 27 26  1  0
 26 25  2  0
 25 22  1  0
M  END

$$$$
