No_2267-gen_results/8p0m/2024-11-26-14-13-15/
     RDKit          3D

 27 27  0  0  0  0  0  0  0  0999 V2000
  -28.1493   -0.8198   28.9079 Cl  0  0  0  0  0  0  0  0  0  0  0  0
  -28.5324   -0.0471   29.7727 C   0  0  0  0  0  0  0  0  0  0  0  0
  -29.6682   -0.0995   30.1894 F   0  0  0  0  0  0  0  0  0  0  0  0
  -27.5674   -0.0766   31.0006 C   0  0  0  0  0  0  0  0  0  0  0  0
  -28.3579    1.2470   29.2780 F   0  0  0  0  0  0  0  0  0  0  0  0
  -26.9172   -0.9583   31.3463 N   0  0  0  0  0  0  0  0  0  0  0  0
  -25.5025   -0.8532   31.0879 C   0  0  0  0  0  0  0  0  0  0  0  0
  -24.9691   -0.6282   29.8092 C   0  0  0  0  0  0  0  0  0  0  0  0
  -24.4319    0.3713   29.5650 C   0  0  0  0  0  0  0  0  0  0  0  0
  -23.9481    0.7024   28.2282 C   0  0  0  0  0  0  0  0  0  0  0  0
  -23.0660    1.8085   27.9112 C   0  0  0  0  0  0  0  0  0  0  0  0
  -25.0569    0.7805   27.2531 C   0  0  0  0  0  0  0  0  0  0  0  0
  -21.9868    1.9155   28.7963 N   0  0  0  0  0  0  0  0  0  0  0  0
  -22.8268    2.2203   26.7329 O   0  0  0  0  0  0  0  0  0  0  0  0
  -25.2697    1.1620   26.2685 C   0  0  0  0  0  0  0  0  0  0  0  0
  -26.3547    0.7340   25.3692 C   0  0  0  0  0  0  0  0  0  0  0  0
  -27.6540    0.8981   25.8435 C   0  0  0  0  0  0  0  0  0  0  0  0
  -28.6986    0.3752   25.2095 C   0  0  0  0  0  0  0  0  0  0  0  0
  -28.4294   -0.3260   24.0035 C   0  0  0  0  0  0  0  0  0  0  0  0
  -27.1621   -0.5921   23.7259 N   0  0  0  0  0  0  0  0  0  0  0  0
  -26.1431   -0.1252   24.4065 C   0  0  0  0  0  0  0  0  0  0  0  0
  -30.1123    0.6341   25.5166 C   0  0  0  0  0  0  0  0  0  0  0  0
  -30.4756    1.4986   26.2922 O   0  0  0  0  0  0  0  0  0  0  0  0
  -31.0161   -0.0899   24.9853 O   0  0  0  0  0  0  0  0  0  0  0  0
  -27.6327    1.0652   31.9742 C   0  0  0  0  0  0  0  0  0  0  0  0
  -28.5844    1.1351   32.8567 C   0  0  0  0  0  0  0  0  0  0  0  0
  -28.5754    2.2493   33.7635 C   0  0  0  0  0  0  0  0  0  0  0  0
  1  2  1  0
  2  3  1  0
  2  4  1  0
  2  5  1  0
  4  6  1  0
  6  7  1  0
  7  8  1  0
  8  9  2  3
  9 10  1  0
 10 11  1  0
 10 12  1  0
 11 13  1  0
 11 14  2  0
 12 15  2  3
 15 16  1  0
 18 22  1  0
 22 23  1  0
 22 24  2  0
  4 25  1  0
 25 26  2  3
 26 27  1  0
 16 17  2  0
 17 18  1  0
 18 19  2  0
 19 20  1  0
 20 21  2  0
 21 16  1  0
M  END

$$$$
