No_2434-gen_results/8p0m/2024-11-26-14-13-15/
     RDKit          3D

 33 36  0  0  0  0  0  0  0  0999 V2000
  -28.0162   -0.8135   28.8779 C   0  0  0  0  0  0  0  0  0  0  0  0
  -27.0636   -0.1189   28.6079 C   0  0  0  0  0  0  0  0  0  0  0  0
  -25.7923   -0.4302   29.0761 C   0  0  0  0  0  0  0  0  0  0  0  0
  -24.5456    0.3494   28.8225 C   0  0  0  0  0  0  0  0  0  0  0  0
  -24.6586    1.4196   27.8878 C   0  0  0  0  0  0  0  0  0  0  0  0
  -25.9471    1.6811   27.3792 C   0  0  0  0  0  0  0  0  0  0  0  0
  -27.0439    0.9739   27.6871 C   0  0  0  0  0  0  0  0  0  0  0  0
  -28.6567   -0.5529   30.0960 N   0  0  0  0  0  0  0  0  0  0  0  0
  -28.5841    0.2508   30.7384 C   0  0  0  0  0  0  0  0  0  0  0  0
  -29.3702    0.2374   32.0976 C   0  0  0  0  0  0  0  0  0  0  0  0
  -29.4781   -1.8037   30.6035 C   0  0  0  0  0  0  0  0  0  0  0  0
  -29.5187   -2.7392   29.8803 O   0  0  0  0  0  0  0  0  0  0  0  0
  -30.0632   -1.8199   31.7995 N   0  0  0  0  0  0  0  0  0  0  0  0
  -29.9880   -0.7569   32.5811 C   0  0  0  0  0  0  0  0  0  0  0  0
  -23.4467    2.1303   27.5327 C   0  0  0  0  0  0  0  0  0  0  0  0
  -23.5779    3.2033   26.9622 F   0  0  0  0  0  0  0  0  0  0  0  0
  -22.5544    1.3547   26.7488 F   0  0  0  0  0  0  0  0  0  0  0  0
  -22.6848    2.4088   28.6767 F   0  0  0  0  0  0  0  0  0  0  0  0
  -28.3160    1.3787   27.0279 C   0  0  0  0  0  0  0  0  0  0  0  0
  -28.9990    2.3590   27.6475 C   0  0  0  0  0  0  0  0  0  0  0  0
  -30.3296    2.6689   27.2622 C   0  0  0  0  0  0  0  0  0  0  0  0
  -28.7392    0.7754   25.8921 C   0  0  0  0  0  0  0  0  0  0  0  0
  -30.0324    1.0658   25.4198 C   0  0  0  0  0  0  0  0  0  0  0  0
  -30.7814    2.0627   26.0691 C   0  0  0  0  0  0  0  0  0  0  0  0
  -25.4621   -1.5646   30.0425 C   0  0  0  0  0  0  0  0  0  0  0  0
  -25.9526   -1.5986   31.4815 Cl  0  0  0  0  0  0  0  0  0  0  0  0
  -24.9415   -2.7658   29.3928 C   0  0  0  0  0  0  0  0  0  0  0  0
  -25.6246   -3.9983   29.3580 C   0  0  0  0  0  0  0  0  0  0  0  0
  -24.9805   -5.0458   28.8397 N   0  0  0  0  0  0  0  0  0  0  0  0
  -23.7867   -4.5592   28.3736 C   0  0  0  0  0  0  0  0  0  0  0  0
  -23.7818   -3.2289   28.7854 N   0  0  0  0  0  0  0  0  0  0  0  0
  -27.2746   -4.2038   30.0137 Cl  0  0  0  0  0  0  0  0  0  0  0  0
  -31.3992    3.9693   28.0916 Br  0  0  0  0  0  0  0  0  0  0  0  0
  1  2  1  0
  1  8  1  0
  8  9  1  0
  8 11  1  0
 11 12  2  0
 11 13  1  0
 10 14  1  0
  5 15  1  0
 15 16  1  0
 15 17  1  0
 15 18  1  0
  7 19  1  0
  3 25  1  0
 25 26  1  0
 25 27  1  0
 27 28  1  0
 28 29  2  0
 29 30  1  0
 27 31  1  0
 30 31  2  0
 28 32  1  0
 21 33  1  0
  9 10  1  0
 14 13  1  0
  2  3  1  0
  3  4  2  0
  4  5  1  0
  5  6  2  0
  6  7  1  0
  7  2  2  0
 19 20  2  0
 20 21  1  0
 21 24  2  0
 24 23  1  0
 23 22  2  0
 22 19  1  0
M  END

$$$$
