No_2364-gen_results/8p0m/2024-11-26-14-13-15/
     RDKit          3D

 11 11  0  0  0  0  0  0  0  0999 V2000
  -28.1229   -1.3353   28.4874 O   0  0  0  0  0  0  0  0  0  0  0  0
  -27.4806   -0.4044   28.7094 C   0  0  0  0  0  0  0  0  0  0  0  0
  -26.4599   -0.1104   28.0051 N   0  0  0  0  0  0  0  0  0  0  0  0
  -25.4297    0.8788   28.3572 C   0  0  0  0  0  0  0  0  0  0  0  0
  -25.6985    1.5873   29.3706 C   0  0  0  0  0  0  0  0  0  0  0  0
  -27.6883    0.2536   30.0459 N   0  0  0  0  0  0  0  0  0  0  0  0
  -26.7237    1.2439   30.3605 C   0  0  0  0  0  0  0  0  0  0  0  0
  -24.2490    1.2539   27.2773 Cl  0  0  0  0  0  0  0  0  0  0  0  0
  -24.7367    2.6736   29.7982 C   0  0  0  0  0  0  0  0  0  0  0  0
  -23.7120    3.0077   29.1061 O   0  0  0  0  0  0  0  0  0  0  0  0
  -24.9392    3.2546   30.9990 O   0  0  0  0  0  0  0  0  0  0  0  0
  1  2  2  0
  2  3  1  0
  3  4  1  0
  4  5  1  0
  2  6  1  0
  5  7  1  0
  4  8  1  0
  5  9  1  0
  9 10  2  0
  9 11  1  0
  7  6  1  0
M  END

$$$$
