No_2014-gen_results/8p0m/2024-11-26-14-13-15/
     RDKit          3D

 12 12  0  0  0  0  0  0  0  0999 V2000
  -28.0162   -0.8135   28.8779 C   0  0  0  0  0  0  0  0  0  0  0  0
  -27.0636   -0.1190   28.6079 C   0  0  0  0  0  0  0  0  0  0  0  0
  -26.9287    1.1713   29.0083 C   0  0  0  0  0  0  0  0  0  0  0  0
  -27.9560    1.7411   29.7840 C   0  0  0  0  0  0  0  0  0  0  0  0
  -29.0569   -0.3271   29.7466 C   0  0  0  0  0  0  0  0  0  0  0  0
  -28.9828    0.9722   30.1516 C   0  0  0  0  0  0  0  0  0  0  0  0
  -26.0277   -0.5935   27.8711 F   0  0  0  0  0  0  0  0  0  0  0  0
  -30.0765    1.5021   31.0081 C   0  0  0  0  0  0  0  0  0  0  0  0
  -29.6936    2.0786   32.0805 C   0  0  0  0  0  0  0  0  0  0  0  0
  -30.6568    2.5832   33.0204 C   0  0  0  0  0  0  0  0  0  0  0  0
  -32.0042    2.3931   32.7098 C   0  0  0  0  0  0  0  0  0  0  0  0
  -32.9891    2.8357   33.5493 C   0  0  0  0  0  0  0  0  0  0  0  0
  2  7  1  0
  6  8  1  0
  8  9  2  3
  9 10  1  0
 10 11  2  3
 11 12  1  0
  1  2  2  0
  2  3  1  0
  3  4  2  0
  4  6  1  0
  6  5  2  0
  5  1  1  0
M  END

$$$$
