No_2380-gen_results/8p0m/2024-11-26-14-13-15/
     RDKit          3D

 15 16  0  0  0  0  0  0  0  0999 V2000
  -28.0162   -0.8135   28.8779 C   0  0  0  0  0  0  0  0  0  0  0  0
  -28.4690   -0.7850   29.8287 C   0  0  0  0  0  0  0  0  0  0  0  0
  -27.0871    0.2903   28.6377 C   0  0  0  0  0  0  0  0  0  0  0  0
  -26.9102    0.8486   27.4199 C   0  0  0  0  0  0  0  0  0  0  0  0
  -29.6069   -1.6266   30.1338 C   0  0  0  0  0  0  0  0  0  0  0  0
  -27.6424    1.1427   26.6727 C   0  0  0  0  0  0  0  0  0  0  0  0
  -27.3187    1.5649   25.2552 C   0  0  0  0  0  0  0  0  0  0  0  0
  -25.9727    1.6795   24.9887 C   0  0  0  0  0  0  0  0  0  0  0  0
  -24.9720    1.3270   25.8770 C   0  0  0  0  0  0  0  0  0  0  0  0
  -25.3887    0.8597   27.1025 C   0  0  0  0  0  0  0  0  0  0  0  0
  -28.0246    0.0444   31.0760 C   0  0  0  0  0  0  0  0  0  0  0  0
  -27.1206    0.9588   30.9326 C   0  0  0  0  0  0  0  0  0  0  0  0
  -26.6447    1.1719   29.6711 C   0  0  0  0  0  0  0  0  0  0  0  0
  -29.3659   -2.8032   30.5602 O   0  0  0  0  0  0  0  0  0  0  0  0
  -30.7907   -1.3098   29.9387 O   0  0  0  0  0  0  0  0  0  0  0  0
  3  4  1  0
  2  5  1  0
  5 14  2  0
  5 15  1  0
  4  6  2  0
  6  7  1  0
  7  8  2  0
  8  9  1  0
  9 10  2  0
 10  4  1  0
  1  2  2  0
  2 11  1  0
 11 12  2  0
 12 13  1  0
 13  3  2  0
  3  1  1  0
M  END

$$$$
