No_2965-gen_results/8p0m/2024-11-26-14-13-15/
     RDKit          3D

 16 17  0  0  0  0  0  0  0  0999 V2000
  -28.0162   -0.8135   28.8779 C   0  0  0  0  0  0  0  0  0  0  0  0
  -27.0636   -0.1189   28.6079 C   0  0  0  0  0  0  0  0  0  0  0  0
  -25.7923   -0.4302   29.0761 C   0  0  0  0  0  0  0  0  0  0  0  0
  -25.5756   -1.5654   29.9363 C   0  0  0  0  0  0  0  0  0  0  0  0
  -26.7354   -2.3004   30.2173 C   0  0  0  0  0  0  0  0  0  0  0  0
  -27.9184   -1.9537   29.7629 C   0  0  0  0  0  0  0  0  0  0  0  0
  -27.1569    1.4255   27.5348 Br  0  0  0  0  0  0  0  0  0  0  0  0
  -28.9983   -2.7164   30.1155 O   0  0  0  0  0  0  0  0  0  0  0  0
  -30.1051   -2.1274   30.6110 C   0  0  0  0  0  0  0  0  0  0  0  0
  -30.2145   -1.2782   31.2002 C   0  0  0  0  0  0  0  0  0  0  0  0
  -31.5047   -0.6467   31.6537 C   0  0  0  0  0  0  0  0  0  0  0  0
  -31.6194    0.5125   32.4165 C   0  0  0  0  0  0  0  0  0  0  0  0
  -30.4358    1.1403   32.8437 C   0  0  0  0  0  0  0  0  0  0  0  0
  -29.1732    0.6439   32.4956 C   0  0  0  0  0  0  0  0  0  0  0  0
  -29.0733   -0.4705   31.7266 C   0  0  0  0  0  0  0  0  0  0  0  0
  -31.0316   -3.1154   30.5140 O   0  0  0  0  0  0  0  0  0  0  0  0
  2  7  1  0
  6  8  1  0
  8  9  1  0
  9 10  1  0
  9 16  2  0
  1  2  2  0
  2  3  1  0
  3  4  2  0
  4  5  1  0
  5  6  2  0
  6  1  1  0
 10 11  2  0
 11 12  1  0
 12 13  2  0
 13 14  1  0
 14 15  2  0
 15 10  1  0
M  END

$$$$
