No_226-gen_results/8p0m/2024-11-26-14-13-15/
     RDKit          3D

 27 29  0  0  0  0  0  0  0  0999 V2000
  -28.0162   -0.8135   28.8779 C   0  0  0  0  0  0  0  0  0  0  0  0
  -28.4690   -0.7850   29.8287 C   0  0  0  0  0  0  0  0  0  0  0  0
  -26.5455   -0.8762   28.8500 C   0  0  0  0  0  0  0  0  0  0  0  0
  -25.8041   -1.0324   30.0571 C   0  0  0  0  0  0  0  0  0  0  0  0
  -27.9437   -0.9869   31.2075 C   0  0  0  0  0  0  0  0  0  0  0  0
  -26.5825   -1.0386   31.2231 C   0  0  0  0  0  0  0  0  0  0  0  0
  -30.0606   -0.7371   29.9024 C   0  0  0  0  0  0  0  0  0  0  0  0
  -30.7252   -1.5544   30.2697 O   0  0  0  0  0  0  0  0  0  0  0  0
  -30.5270    0.3280   29.3297 F   0  0  0  0  0  0  0  0  0  0  0  0
  -24.3746   -1.0938   30.0697 C   0  0  0  0  0  0  0  0  0  0  0  0
  -23.6709   -1.7172   30.4718 C   0  0  0  0  0  0  0  0  0  0  0  0
  -23.7987    0.0744   29.2152 C   0  0  0  0  0  0  0  0  0  0  0  0
  -24.3028    1.1116   28.6504 C   0  0  0  0  0  0  0  0  0  0  0  0
  -23.5266    1.9190   27.8294 C   0  0  0  0  0  0  0  0  0  0  0  0
  -22.1011    1.7793   27.8323 C   0  0  0  0  0  0  0  0  0  0  0  0
  -22.2733    0.0634   29.1184 C   0  0  0  0  0  0  0  0  0  0  0  0
  -21.5057    0.8376   28.4645 C   0  0  0  0  0  0  0  0  0  0  0  0
  -24.1379    3.1107   27.1276 C   0  0  0  0  0  0  0  0  0  0  0  0
  -24.8335    3.9507   27.7528 N   0  0  0  0  0  0  0  0  0  0  0  0
  -26.0433    4.1801   27.7737 C   0  0  0  0  0  0  0  0  0  0  0  0
  -26.8211    4.2161   28.6152 C   0  0  0  0  0  0  0  0  0  0  0  0
  -28.2792    4.3190   28.5366 C   0  0  0  0  0  0  0  0  0  0  0  0
  -28.7554    4.5557   27.2721 C   0  0  0  0  0  0  0  0  0  0  0  0
  -27.9348    4.5692   26.1937 C   0  0  0  0  0  0  0  0  0  0  0  0
  -26.5455    4.3844   26.3393 C   0  0  0  0  0  0  0  0  0  0  0  0
  -24.0419    3.1558   25.8785 O   0  0  0  0  0  0  0  0  0  0  0  0
  -26.3130    3.9349   30.3164 Cl  0  0  0  0  0  0  0  0  0  0  0  0
  2  7  1  0
  7  8  2  0
  7  9  1  0
  4 10  1  0
 10 11  1  0
 10 12  1  0
 14 18  1  0
 18 19  1  0
 19 20  1  0
 18 26  2  0
 21 27  1  0
 12 13  2  0
 13 14  1  0
 14 15  2  0
 15 17  1  0
 17 16  2  0
 16 12  1  0
  1  2  2  0
  2  5  1  0
  5  6  2  0
  6  4  1  0
  4  3  2  0
  3  1  1  0
 20 21  2  0
 21 22  1  0
 22 23  2  0
 23 24  1  0
 24 25  2  0
 25 20  1  0
M  END

$$$$
