No_283-gen_results/8p0m/2024-11-26-14-13-15/
     RDKit          3D

 15 16  0  0  0  0  0  0  0  0999 V2000
  -28.0162   -0.8135   28.8779 C   0  0  0  0  0  0  0  0  0  0  0  0
  -27.0636   -0.1190   28.6079 C   0  0  0  0  0  0  0  0  0  0  0  0
  -25.7647   -0.3897   29.0360 C   0  0  0  0  0  0  0  0  0  0  0  0
  -25.5296   -1.5303   29.9014 C   0  0  0  0  0  0  0  0  0  0  0  0
  -26.6888   -2.2893   30.1810 C   0  0  0  0  0  0  0  0  0  0  0  0
  -27.8727   -1.9508   29.7373 C   0  0  0  0  0  0  0  0  0  0  0  0
  -24.5491    0.4100   28.7341 C   0  0  0  0  0  0  0  0  0  0  0  0
  -24.4789    1.1871   27.6843 C   0  0  0  0  0  0  0  0  0  0  0  0
  -25.1757    1.5312   26.7988 C   0  0  0  0  0  0  0  0  0  0  0  0
  -24.7856    2.3598   25.7091 C   0  0  0  0  0  0  0  0  0  0  0  0
  -25.2181    3.1781   25.1457 C   0  0  0  0  0  0  0  0  0  0  0  0
  -23.0543    1.6081   27.4568 C   0  0  0  0  0  0  0  0  0  0  0  0
  -23.2075    2.5942   26.0958 C   0  0  0  0  0  0  0  0  0  0  0  0
  -23.5273    0.3613   29.8539 C   0  0  0  0  0  0  0  0  0  0  0  0
  -22.4920   -0.5900   29.5859 C   0  0  0  0  0  0  0  0  0  0  0  0
  3  7  1  0
  7  8  1  0
  8  9  2  0
  9 10  1  0
 10 11  2  0
  8 12  1  0
 10 13  1  0
 12 13  2  0
  7 14  1  0
 14 15  1  0
  1  2  2  0
  2  3  1  0
  3  4  2  0
  4  5  1  0
  5  6  2  0
  6  1  1  0
M  END

$$$$
