No_2194-gen_results/8p0m/2024-11-26-14-13-15/
     RDKit          3D

  9  8  0  0  0  0  0  0  0  0999 V2000
  -28.0162   -0.8135   28.8779 C   0  0  0  0  0  0  0  0  0  0  0  0
  -28.4690   -0.7850   29.8287 C   0  0  0  0  0  0  0  0  0  0  0  0
  -26.5042   -0.7777   28.8766 C   0  0  0  0  0  0  0  0  0  0  0  0
  -25.7622   -0.0022   27.9705 C   0  0  0  0  0  0  0  0  0  0  0  0
  -29.9993   -0.7599   29.8953 C   0  0  0  0  0  0  0  0  0  0  0  0
  -24.3210   -0.0297   28.0177 C   0  0  0  0  0  0  0  0  0  0  0  0
  -23.5121    0.9237   27.3360 C   0  0  0  0  0  0  0  0  0  0  0  0
  -24.1778    1.7451   26.3138 C   0  0  0  0  0  0  0  0  0  0  0  0
  -25.5840    1.6773   26.2260 C   0  0  0  0  0  0  0  0  0  0  0  0
  1  2  1  0
  1  3  1  0
  3  4  2  3
  2  5  1  0
  4  6  1  0
  6  7  2  3
  7  8  1  0
  8  9  2  0
M  END

$$$$
