No_2938-gen_results/8p0m/2024-11-26-14-13-15/
     RDKit          3D

 20 22  0  0  0  0  0  0  0  0999 V2000
  -28.0162   -0.8135   28.8779 C   0  0  0  0  0  0  0  0  0  0  0  0
  -27.0636   -0.1189   28.6079 C   0  0  0  0  0  0  0  0  0  0  0  0
  -26.9287    1.1713   29.0083 C   0  0  0  0  0  0  0  0  0  0  0  0
  -25.7702    2.0341   28.6884 C   0  0  0  0  0  0  0  0  0  0  0  0
  -24.7141    1.4431   27.9188 C   0  0  0  0  0  0  0  0  0  0  0  0
  -24.8590    0.0783   27.5836 C   0  0  0  0  0  0  0  0  0  0  0  0
  -25.9647   -0.6606   27.9164 C   0  0  0  0  0  0  0  0  0  0  0  0
  -28.6995   -0.6441   30.0766 N   0  0  0  0  0  0  0  0  0  0  0  0
  -29.4717   -1.1161   30.6970 C   0  0  0  0  0  0  0  0  0  0  0  0
  -30.0467   -2.3430   30.2355 C   0  0  0  0  0  0  0  0  0  0  0  0
  -31.3337   -2.3833   29.8210 C   0  0  0  0  0  0  0  0  0  0  0  0
  -31.8480   -3.5889   29.2330 C   0  0  0  0  0  0  0  0  0  0  0  0
  -31.1236   -4.7880   29.3478 C   0  0  0  0  0  0  0  0  0  0  0  0
  -29.8278   -4.7756   29.9615 C   0  0  0  0  0  0  0  0  0  0  0  0
  -29.3089   -3.5790   30.4348 C   0  0  0  0  0  0  0  0  0  0  0  0
  -28.5075    0.9868   30.1574 C   0  0  0  0  0  0  0  0  0  0  0  0
  -29.7531   -0.8213   31.9228 O   0  0  0  0  0  0  0  0  0  0  0  0
  -23.5318    2.1504   27.5076 C   0  0  0  0  0  0  0  0  0  0  0  0
  -22.3580    2.2849   27.9010 N   0  0  0  0  0  0  0  0  0  0  0  0
  -23.7858    2.8677   26.1703 C   0  0  0  0  0  0  0  0  0  0  0  0
  1  2  1  0
  1  8  1  0
  8  9  1  0
  9 10  1  0
  3 16  1  0
  8 16  1  0
  9 17  2  0
  5 18  1  0
 18 19  1  0
 18 20  1  0
  2  3  2  0
  3  4  1  0
  4  5  2  0
  5  6  1  0
  6  7  2  0
  7  2  1  0
 10 11  2  0
 11 12  1  0
 12 13  2  0
 13 14  1  0
 14 15  2  0
 15 10  1  0
M  END

$$$$
