No_2392-gen_results/8p0m/2024-11-26-14-13-15/
     RDKit          3D

 30 32  0  0  0  0  0  0  0  0999 V2000
  -28.0162   -0.8135   28.8779 C   0  0  0  0  0  0  0  0  0  0  0  0
  -28.4690   -0.7850   29.8287 C   0  0  0  0  0  0  0  0  0  0  0  0
  -28.1816    0.4277   28.1134 C   0  0  0  0  0  0  0  0  0  0  0  0
  -27.4498    0.6435   26.8500 C   0  0  0  0  0  0  0  0  0  0  0  0
  -26.4529    0.9939   26.6681 C   0  0  0  0  0  0  0  0  0  0  0  0
  -25.1812    0.8624   26.8165 C   0  0  0  0  0  0  0  0  0  0  0  0
  -24.2188    1.6769   26.2404 C   0  0  0  0  0  0  0  0  0  0  0  0
  -29.4213    0.0903   30.4452 C   0  0  0  0  0  0  0  0  0  0  0  0
  -29.0456    1.3709   28.5904 C   0  0  0  0  0  0  0  0  0  0  0  0
  -29.6394    1.1968   29.7666 C   0  0  0  0  0  0  0  0  0  0  0  0
  -23.7121    2.6445   25.9496 C   0  0  0  0  0  0  0  0  0  0  0  0
  -28.4932    0.6762   25.8285 C   0  0  0  0  0  0  0  0  0  0  0  0
  -29.5876    0.2268   25.6785 C   0  0  0  0  0  0  0  0  0  0  0  0
  -27.9785    1.2597   24.5216 C   0  0  0  0  0  0  0  0  0  0  0  0
  -30.3754    0.1373   24.5557 C   0  0  0  0  0  0  0  0  0  0  0  0
  -28.6931    1.3098   23.3959 C   0  0  0  0  0  0  0  0  0  0  0  0
  -31.7225   -0.4607   24.5100 C   0  0  0  0  0  0  0  0  0  0  0  0
  -29.9022    0.7282   23.4113 C   0  0  0  0  0  0  0  0  0  0  0  0
  -32.5283   -0.1311   23.8827 O   0  0  0  0  0  0  0  0  0  0  0  0
  -31.8694   -1.5225   25.3650 O   0  0  0  0  0  0  0  0  0  0  0  0
  -24.5502   -0.3076   27.4820 C   0  0  0  0  0  0  0  0  0  0  0  0
  -23.9758   -0.3096   28.7176 C   0  0  0  0  0  0  0  0  0  0  0  0
  -23.6230   -1.5418   29.3423 C   0  0  0  0  0  0  0  0  0  0  0  0
  -22.8268   -1.5577   30.5128 C   0  0  0  0  0  0  0  0  0  0  0  0
  -23.3668    0.8863   29.3396 C   0  0  0  0  0  0  0  0  0  0  0  0
  -22.7358    0.7891   30.5463 C   0  0  0  0  0  0  0  0  0  0  0  0
  -22.4738   -0.4125   31.1657 C   0  0  0  0  0  0  0  0  0  0  0  0
  -23.9595    3.8605   26.7680 C   0  0  0  0  0  0  0  0  0  0  0  0
  -25.1743    4.5041   26.9318 C   0  0  0  0  0  0  0  0  0  0  0  0
  -25.2915    5.6460   27.7021 C   0  0  0  0  0  0  0  0  0  0  0  0
  3  4  1  0
  4  5  2  3
  5  6  1  0
  6  7  2  3
  7 11  1  0
  4 12  1  0
 15 17  1  0
 17 19  2  0
 17 20  1  0
  6 21  1  0
 21 22  1  0
 11 28  2  3
 28 29  1  0
 29 30  2  0
  1  2  2  0
  2  8  1  0
  8 10  2  0
 10  9  1  0
  9  3  2  0
  3  1  1  0
 12 13  2  0
 13 15  1  0
 15 18  2  0
 18 16  1  0
 16 14  2  0
 14 12  1  0
 22 23  2  0
 23 24  1  0
 24 27  2  0
 27 26  1  0
 26 25  2  0
 25 22  1  0
M  END

$$$$
