No_2705-gen_results/8p0m/2024-11-26-14-13-15/
     RDKit          3D

 21 23  0  0  0  0  0  0  0  0999 V2000
  -28.0162   -0.8135   28.8779 C   0  0  0  0  0  0  0  0  0  0  0  0
  -27.0636   -0.1189   28.6079 C   0  0  0  0  0  0  0  0  0  0  0  0
  -25.7923   -0.4302   29.0761 C   0  0  0  0  0  0  0  0  0  0  0  0
  -25.5756   -1.5654   29.9363 C   0  0  0  0  0  0  0  0  0  0  0  0
  -26.7354   -2.3004   30.2173 C   0  0  0  0  0  0  0  0  0  0  0  0
  -27.9184   -1.9537   29.7629 C   0  0  0  0  0  0  0  0  0  0  0  0
  -29.0001   -2.7012   30.1151 O   0  0  0  0  0  0  0  0  0  0  0  0
  -24.3499    0.4889   28.7497 Cl  0  0  0  0  0  0  0  0  0  0  0  0
  -29.3705   -2.8230   31.4465 C   0  0  0  0  0  0  0  0  0  0  0  0
  -29.9499   -1.8071   31.9917 C   0  0  0  0  0  0  0  0  0  0  0  0
  -30.0284   -1.7968   33.3071 C   0  0  0  0  0  0  0  0  0  0  0  0
  -29.9925   -3.0049   34.0674 C   0  0  0  0  0  0  0  0  0  0  0  0
  -29.4504   -4.1396   33.4755 C   0  0  0  0  0  0  0  0  0  0  0  0
  -29.0997   -4.0637   32.0607 C   0  0  0  0  0  0  0  0  0  0  0  0
  -27.1130    1.0432   27.6423 C   0  0  0  0  0  0  0  0  0  0  0  0
  -26.9970    2.2129   28.1400 C   0  0  0  0  0  0  0  0  0  0  0  0
  -27.3837    0.7316   26.2955 C   0  0  0  0  0  0  0  0  0  0  0  0
  -27.5360    1.6579   25.3544 C   0  0  0  0  0  0  0  0  0  0  0  0
  -27.1265    3.3490   27.1662 C   0  0  0  0  0  0  0  0  0  0  0  0
  -27.3779    3.0737   25.7922 C   0  0  0  0  0  0  0  0  0  0  0  0
  -28.6535   -5.1055   31.4326 O   0  0  0  0  0  0  0  0  0  0  0  0
  6  7  1  0
  3  8  1  0
  7  9  1  0
  2 15  1  0
 14 21  1  0
  1  2  2  0
  2  3  1  0
  3  4  2  0
  4  5  1  0
  5  6  2  0
  6  1  1  0
  9 10  2  0
 10 11  1  0
 11 12  2  0
 12 13  1  0
 13 14  2  0
 14  9  1  0
 15 16  2  0
 16 19  1  0
 19 20  2  0
 20 18  1  0
 18 17  2  0
 17 15  1  0
M  END

$$$$
