No_2886-gen_results/8p0m/2024-11-26-14-13-15/
     RDKit          3D

 21 22  0  0  0  0  0  0  0  0999 V2000
  -28.0162   -0.8135   28.8779 C   0  0  0  0  0  0  0  0  0  0  0  0
  -28.4690   -0.7850   29.8287 C   0  0  0  0  0  0  0  0  0  0  0  0
  -28.1816    0.4277   28.1134 C   0  0  0  0  0  0  0  0  0  0  0  0
  -28.9841    1.4155   28.5154 C   0  0  0  0  0  0  0  0  0  0  0  0
  -29.3802    0.1384   30.4612 C   0  0  0  0  0  0  0  0  0  0  0  0
  -29.5415    1.2736   29.7242 C   0  0  0  0  0  0  0  0  0  0  0  0
  -27.4586    0.4934   26.7701 C   0  0  0  0  0  0  0  0  0  0  0  0
  -26.2372    0.1445   26.7269 O   0  0  0  0  0  0  0  0  0  0  0  0
  -28.0435    0.9229   25.6635 N   0  0  0  0  0  0  0  0  0  0  0  0
  -27.3844    0.8853   24.3970 C   0  0  0  0  0  0  0  0  0  0  0  0
  -29.4075    1.3767   25.6183 C   0  0  0  0  0  0  0  0  0  0  0  0
  -30.1713    0.6863   24.5729 C   0  0  0  0  0  0  0  0  0  0  0  0
  -30.9025   -0.3755   25.0294 C   0  0  0  0  0  0  0  0  0  0  0  0
  -31.9898   -0.4432   25.1005 C   0  0  0  0  0  0  0  0  0  0  0  0
  -32.7735   -1.7050   25.4354 C   0  0  0  0  0  0  0  0  0  0  0  0
  -31.9983   -2.8589   25.6416 C   0  0  0  0  0  0  0  0  0  0  0  0
  -32.7322   -3.9137   26.0104 N   0  0  0  0  0  0  0  0  0  0  0  0
  -33.2871   -3.9939   27.1080 C   0  0  0  0  0  0  0  0  0  0  0  0
  -34.2593   -2.8538   27.3005 C   0  0  0  0  0  0  0  0  0  0  0  0
  -33.7414   -1.5840   26.7428 C   0  0  0  0  0  0  0  0  0  0  0  0
  -32.9904    0.6406   24.8034 C   0  0  0  0  0  0  0  0  0  0  0  0
  3  7  1  0
  7  8  2  0
  7  9  1  0
  9 10  1  0
  9 11  1  0
 11 12  1  0
 12 13  1  0
 13 14  2  3
 14 15  1  0
 14 21  1  0
 15 16  2  0
 16 17  1  0
 17 18  2  0
 18 19  1  0
 19 20  2  0
 20 15  1  0
  1  2  2  0
  2  5  1  0
  5  6  2  0
  6  4  1  0
  4  3  2  0
  3  1  1  0
M  END

$$$$
