No_2224-gen_results/8p0m/2024-11-26-14-13-15/
     RDKit          3D

 21 22  0  0  0  0  0  0  0  0999 V2000
  -28.0162   -0.8135   28.8779 C   0  0  0  0  0  0  0  0  0  0  0  0
  -27.0636   -0.1190   28.6079 C   0  0  0  0  0  0  0  0  0  0  0  0
  -26.9716    0.7139   27.5060 C   0  0  0  0  0  0  0  0  0  0  0  0
  -25.8205    1.4909   27.1160 C   0  0  0  0  0  0  0  0  0  0  0  0
  -24.6562    1.4242   27.9180 C   0  0  0  0  0  0  0  0  0  0  0  0
  -24.6847    0.5901   29.0659 C   0  0  0  0  0  0  0  0  0  0  0  0
  -25.8099   -0.1266   29.3338 C   0  0  0  0  0  0  0  0  0  0  0  0
  -28.6943   -0.4734   30.1587 C   0  0  0  0  0  0  0  0  0  0  0  0
  -29.6488   -1.3183   30.6197 O   0  0  0  0  0  0  0  0  0  0  0  0
  -23.6771    2.3782   27.6008 C   0  0  0  0  0  0  0  0  0  0  0  0
  -22.7011    2.4451   28.3794 O   0  0  0  0  0  0  0  0  0  0  0  0
  -23.5837    2.9345   26.4326 O   0  0  0  0  0  0  0  0  0  0  0  0
  -28.4066    0.4490   30.9011 O   0  0  0  0  0  0  0  0  0  0  0  0
  -28.0903    0.7733   26.5526 C   0  0  0  0  0  0  0  0  0  0  0  0
  -29.0206    1.7577   26.7147 C   0  0  0  0  0  0  0  0  0  0  0  0
  -28.7564    2.8131   27.3119 C   0  0  0  0  0  0  0  0  0  0  0  0
  -29.7337    3.9130   27.5192 C   0  0  0  0  0  0  0  0  0  0  0  0
  -30.3396    1.5817   26.1736 C   0  0  0  0  0  0  0  0  0  0  0  0
  -31.3348    2.5411   26.2972 C   0  0  0  0  0  0  0  0  0  0  0  0
  -30.9774    3.7488   26.9482 C   0  0  0  0  0  0  0  0  0  0  0  0
  -28.2772   -0.2742   25.9093 O   0  0  0  0  0  0  0  0  0  0  0  0
  1  8  1  0
  8  9  1  0
  5 10  1  0
 10 11  2  0
 10 12  1  0
  8 13  2  0
  3 14  1  0
 14 15  1  0
 14 21  2  0
  1  2  1  0
 15 16  2  0
 16 17  1  0
 17 20  2  0
 20 19  1  0
 19 18  2  0
 18 15  1  0
  2  3  2  0
  3  4  1  0
  4  5  2  0
  5  6  1  0
  6  7  2  0
  7  2  1  0
M  END

$$$$
