No_237-gen_results/8p0m/2024-11-26-14-13-15/
     RDKit          3D

 19 20  0  0  0  0  0  0  0  0999 V2000
  -28.0162   -0.8135   28.8779 C   0  0  0  0  0  0  0  0  0  0  0  0
  -28.4690   -0.7850   29.8287 C   0  0  0  0  0  0  0  0  0  0  0  0
  -27.0871    0.2903   28.6377 C   0  0  0  0  0  0  0  0  0  0  0  0
  -26.8317    1.2487   29.5869 C   0  0  0  0  0  0  0  0  0  0  0  0
  -28.3914    0.0801   31.0065 C   0  0  0  0  0  0  0  0  0  0  0  0
  -27.4940    1.1521   30.7841 C   0  0  0  0  0  0  0  0  0  0  0  0
  -26.2087    0.3944   27.1645 Cl  0  0  0  0  0  0  0  0  0  0  0  0
  -29.3794   -1.8991   30.1667 O   0  0  0  0  0  0  0  0  0  0  0  0
  -30.5866   -1.7381   30.2797 C   0  0  0  0  0  0  0  0  0  0  0  0
  -31.2062   -2.9838   30.2052 C   0  0  0  0  0  0  0  0  0  0  0  0
  -32.2122   -3.1330   30.5283 C   0  0  0  0  0  0  0  0  0  0  0  0
  -33.1035   -1.9493   30.8583 C   0  0  0  0  0  0  0  0  0  0  0  0
  -32.5292   -0.7563   30.9098 C   0  0  0  0  0  0  0  0  0  0  0  0
  -31.1869   -0.6253   30.7001 C   0  0  0  0  0  0  0  0  0  0  0  0
  -34.4327   -2.1727   31.1361 O   0  0  0  0  0  0  0  0  0  0  0  0
  -33.2907    0.4505   31.3289 C   0  0  0  0  0  0  0  0  0  0  0  0
  -32.9045    1.5619   31.0365 N   0  0  0  0  0  0  0  0  0  0  0  0
  -33.5492    2.6804   30.9244 C   0  0  0  0  0  0  0  0  0  0  0  0
  -32.9061    3.9222   30.5473 C   0  0  0  0  0  0  0  0  0  0  0  0
  3  7  1  0
  2  8  1  0
  8  9  1  0
 12 15  1  0
 13 16  1  0
 16 17  1  0
 17 18  1  0
 18 19  2  0
  9 10  2  0
 10 11  1  0
 11 12  2  0
 12 13  1  0
 13 14  2  0
 14  9  1  0
  1  2  2  0
  2  5  1  0
  5  6  2  0
  6  4  1  0
  4  3  2  0
  3  1  1  0
M  END

$$$$
