No_2912-gen_results/8p0m/2024-11-26-14-13-15/
     RDKit          3D

 21 22  0  0  0  0  0  0  0  0999 V2000
  -28.0162   -0.8135   28.8779 C   0  0  0  0  0  0  0  0  0  0  0  0
  -28.4690   -0.7850   29.8287 C   0  0  0  0  0  0  0  0  0  0  0  0
  -28.1960    0.3478   28.0550 C   0  0  0  0  0  0  0  0  0  0  0  0
  -29.0191    1.3501   28.3782 C   0  0  0  0  0  0  0  0  0  0  0  0
  -29.6249    1.2683   29.6012 C   0  0  0  0  0  0  0  0  0  0  0  0
  -29.3821    0.1816   30.4004 C   0  0  0  0  0  0  0  0  0  0  0  0
  -27.4591    0.3787   26.7048 C   0  0  0  0  0  0  0  0  0  0  0  0
  -26.1352    0.3564   26.8180 C   0  0  0  0  0  0  0  0  0  0  0  0
  -25.3310    0.2623   28.0078 C   0  0  0  0  0  0  0  0  0  0  0  0
  -24.2300    0.6510   28.2224 C   0  0  0  0  0  0  0  0  0  0  0  0
  -23.4630    0.4506   29.4477 C   0  0  0  0  0  0  0  0  0  0  0  0
  -23.9862   -0.3239   30.4483 C   0  0  0  0  0  0  0  0  0  0  0  0
  -25.2511   -0.7635   30.2797 C   0  0  0  0  0  0  0  0  0  0  0  0
  -25.9254   -0.5620   29.1590 C   0  0  0  0  0  0  0  0  0  0  0  0
  -25.6858   -2.0260   28.6508 F   0  0  0  0  0  0  0  0  0  0  0  0
  -27.3685   -1.7136   28.3135 F   0  0  0  0  0  0  0  0  0  0  0  0
  -26.5952    0.2872   29.7709 F   0  0  0  0  0  0  0  0  0  0  0  0
  -25.7592   -1.5187   31.2501 O   0  0  0  0  0  0  0  0  0  0  0  0
  -24.7947   -1.3362   31.0269 Cl  0  0  0  0  0  0  0  0  0  0  0  0
  -25.5552    0.6006   30.7435 F   0  0  0  0  0  0  0  0  0  0  0  0
  -23.2375   -0.0079   31.4730 F   0  0  0  0  0  0  0  0  0  0  0  0
  3  7  1  0
  7  8  2  3
  8  9  1  0
  9 10  2  0
 10 11  1  0
 11 12  2  0
 12 13  1  0
  9 14  1  0
 13 14  1  0
 14 15  1  0
  1 16  1  0
 14 17  1  0
 13 18  1  0
 18 19  1  0
 13 20  1  0
 12 21  1  0
  1  2  2  0
  2  6  1  0
  6  5  2  0
  5  4  1  0
  4  3  2  0
  3  1  1  0
M  END

$$$$
