No_2485-gen_results/8p0m/2024-11-26-14-13-15/
     RDKit          3D

 20 22  0  0  0  0  0  0  0  0999 V2000
  -28.0162   -0.8135   28.8779 C   0  0  0  0  0  0  0  0  0  0  0  0
  -27.0636   -0.1189   28.6079 C   0  0  0  0  0  0  0  0  0  0  0  0
  -26.9287    1.1713   29.0083 C   0  0  0  0  0  0  0  0  0  0  0  0
  -27.9560    1.7411   29.7840 C   0  0  0  0  0  0  0  0  0  0  0  0
  -29.0569   -0.3271   29.7466 C   0  0  0  0  0  0  0  0  0  0  0  0
  -28.9828    0.9722   30.1516 C   0  0  0  0  0  0  0  0  0  0  0  0
  -26.0345   -0.5985   27.8629 F   0  0  0  0  0  0  0  0  0  0  0  0
  -30.0734    1.5046   31.0074 C   0  0  0  0  0  0  0  0  0  0  0  0
  -31.1156    1.6651   30.9505 C   0  0  0  0  0  0  0  0  0  0  0  0
  -32.0602    2.1619   31.5936 C   0  0  0  0  0  0  0  0  0  0  0  0
  -31.6481    2.7227   32.8919 C   0  0  0  0  0  0  0  0  0  0  0  0
  -30.3473    2.6246   33.2145 C   0  0  0  0  0  0  0  0  0  0  0  0
  -29.4282    2.0658   32.3353 C   0  0  0  0  0  0  0  0  0  0  0  0
  -32.5543    3.3000   33.7268 O   0  0  0  0  0  0  0  0  0  0  0  0
  -32.1225    4.1808   34.5802 C   0  0  0  0  0  0  0  0  0  0  0  0
  -31.2935    4.0416   35.3607 C   0  0  0  0  0  0  0  0  0  0  0  0
  -31.1565    5.0100   36.5295 C   0  0  0  0  0  0  0  0  0  0  0  0
  -32.9799    5.4325   34.6129 C   0  0  0  0  0  0  0  0  0  0  0  0
  -32.8543    6.3206   35.6199 C   0  0  0  0  0  0  0  0  0  0  0  0
  -31.8966    6.1166   36.5760 C   0  0  0  0  0  0  0  0  0  0  0  0
  2  7  1  0
  6  8  1  0
 11 14  1  0
 14 15  1  0
 15 16  2  0
 16 17  1  0
 17 20  2  0
 20 19  1  0
 19 18  2  0
 18 15  1  0
  1  2  2  0
  2  3  1  0
  3  4  2  0
  4  6  1  0
  6  5  2  0
  5  1  1  0
  8  9  2  0
  9 10  1  0
 10 11  2  0
 11 12  1  0
 12 13  2  0
 13  8  1  0
M  END

$$$$
