No_242-gen_results/8p0m/2024-11-26-14-13-15/
     RDKit          3D

 12 12  0  0  0  0  0  0  0  0999 V2000
  -28.0162   -0.8135   28.8779 C   0  0  0  0  0  0  0  0  0  0  0  0
  -28.4690   -0.7850   29.8287 C   0  0  0  0  0  0  0  0  0  0  0  0
  -26.5042   -0.7777   28.8766 C   0  0  0  0  0  0  0  0  0  0  0  0
  -25.8103   -0.8531   30.1028 C   0  0  0  0  0  0  0  0  0  0  0  0
  -27.9906   -0.8916   31.2257 C   0  0  0  0  0  0  0  0  0  0  0  0
  -26.6042   -0.8676   31.2652 C   0  0  0  0  0  0  0  0  0  0  0  0
  -23.9859   -0.7976   30.1716 Br  0  0  0  0  0  0  0  0  0  0  0  0
  -29.9469   -0.8330   29.8185 F   0  0  0  0  0  0  0  0  0  0  0  0
  -25.6361   -0.7294   27.6544 C   0  0  0  0  0  0  0  0  0  0  0  0
  -25.3824    0.5896   27.1255 C   0  0  0  0  0  0  0  0  0  0  0  0
  -24.2675    1.1241   27.3368 C   0  0  0  0  0  0  0  0  0  0  0  0
  -23.9022    2.3850   26.6320 C   0  0  0  0  0  0  0  0  0  0  0  0
  4  7  1  0
  2  8  1  0
  3  9  1  0
  9 10  1  0
 10 11  2  3
 11 12  1  0
  1  2  2  0
  2  5  1  0
  5  6  2  0
  6  4  1  0
  4  3  2  0
  3  1  1  0
M  END

$$$$
