No_2237-gen_results/8p0m/2024-11-26-14-13-15/
     RDKit          3D

 20 20  0  0  0  0  0  0  0  0999 V2000
  -28.1229   -1.3353   28.4874 O   0  0  0  0  0  0  0  0  0  0  0  0
  -27.4806   -0.4044   28.7094 C   0  0  0  0  0  0  0  0  0  0  0  0
  -27.2412    0.3910   29.5098 N   0  0  0  0  0  0  0  0  0  0  0  0
  -26.2388   -0.3380   27.6778 C   0  0  0  0  0  0  0  0  0  0  0  0
  -25.3093    0.6912   27.7522 C   0  0  0  0  0  0  0  0  0  0  0  0
  -25.3619    1.5421   28.8283 C   0  0  0  0  0  0  0  0  0  0  0  0
  -26.3549    1.4061   29.7468 C   0  0  0  0  0  0  0  0  0  0  0  0
  -24.3145    2.5712   28.8917 C   0  0  0  0  0  0  0  0  0  0  0  0
  -23.3891    2.6569   28.0471 O   0  0  0  0  0  0  0  0  0  0  0  0
  -24.4231    3.4163   29.9033 O   0  0  0  0  0  0  0  0  0  0  0  0
  -28.3328    0.2637   30.6756 C   0  0  0  0  0  0  0  0  0  0  0  0
  -28.4209   -0.1885   31.7114 C   0  0  0  0  0  0  0  0  0  0  0  0
  -27.1240   -0.8108   32.2985 C   0  0  0  0  0  0  0  0  0  0  0  0
  -26.1181    0.0430   32.6344 C   0  0  0  0  0  0  0  0  0  0  0  0
  -24.8098   -0.4043   32.6259 C   0  0  0  0  0  0  0  0  0  0  0  0
  -26.4227    1.3934   33.0315 C   0  0  0  0  0  0  0  0  0  0  0  0
  -25.4057    2.3678   33.0516 C   0  0  0  0  0  0  0  0  0  0  0  0
  -25.8755    3.6666   33.6020 C   0  0  0  0  0  0  0  0  0  0  0  0
  -27.1247    3.8458   34.0494 C   0  0  0  0  0  0  0  0  0  0  0  0
  -28.0203    2.8264   34.0135 C   0  0  0  0  0  0  0  0  0  0  0  0
  1  2  2  0
  2  3  1  0
  2  4  1  0
  5  6  1  0
  3  7  1  0
  6  7  1  0
  6  8  1  0
  8  9  2  0
  8 10  1  0
  3 11  1  0
 11 12  2  3
 12 13  1  0
 13 14  1  0
 14 15  1  0
 14 16  1  0
 16 17  2  3
 17 18  1  0
 18 19  2  3
 19 20  1  0
  4  5  1  0
M  END

$$$$
