No_2189-gen_results/8p0m/2024-11-26-14-13-15/
     RDKit          3D

 25 27  0  0  0  0  0  0  0  0999 V2000
  -28.0162   -0.8135   28.8779 C   0  0  0  0  0  0  0  0  0  0  0  0
  -27.0636   -0.1189   28.6079 C   0  0  0  0  0  0  0  0  0  0  0  0
  -26.9716    0.7139   27.5060 C   0  0  0  0  0  0  0  0  0  0  0  0
  -28.1053    0.7744   26.6421 C   0  0  0  0  0  0  0  0  0  0  0  0
  -29.2008    0.1044   27.0527 C   0  0  0  0  0  0  0  0  0  0  0  0
  -28.0219   -1.5899   30.0879 C   0  0  0  0  0  0  0  0  0  0  0  0
  -29.1640   -0.6394   28.1484 C   0  0  0  0  0  0  0  0  0  0  0  0
  -27.1149   -2.3777   30.3500 O   0  0  0  0  0  0  0  0  0  0  0  0
  -29.0705   -1.6301   30.8602 O   0  0  0  0  0  0  0  0  0  0  0  0
  -30.3710    0.2056   26.1571 C   0  0  0  0  0  0  0  0  0  0  0  0
  -31.2705   -0.4212   26.3221 O   0  0  0  0  0  0  0  0  0  0  0  0
  -30.1631    0.7974   24.8732 N   0  0  0  0  0  0  0  0  0  0  0  0
  -25.7006    1.4329   27.1191 C   0  0  0  0  0  0  0  0  0  0  0  0
  -25.5624    2.3538   26.3739 N   0  0  0  0  0  0  0  0  0  0  0  0
  -25.0508    3.5633   26.6954 C   0  0  0  0  0  0  0  0  0  0  0  0
  -24.0793    3.5336   27.6169 C   0  0  0  0  0  0  0  0  0  0  0  0
  -23.7476    2.3056   28.2408 C   0  0  0  0  0  0  0  0  0  0  0  0
  -24.6969    1.2447   28.1722 C   0  0  0  0  0  0  0  0  0  0  0  0
  -29.1033    1.6530   24.5235 C   0  0  0  0  0  0  0  0  0  0  0  0
  -28.0451    1.6182   25.4524 C   0  0  0  0  0  0  0  0  0  0  0  0
  -31.3132    0.9013   24.0007 C   0  0  0  0  0  0  0  0  0  0  0  0
  -27.1994   -3.7452   30.1477 C   0  0  0  0  0  0  0  0  0  0  0  0
  -26.2354   -4.4504   29.3290 C   0  0  0  0  0  0  0  0  0  0  0  0
  -28.3307   -4.4582   30.6728 C   0  0  0  0  0  0  0  0  0  0  0  0
  -29.3611   -3.7680   31.3294 C   0  0  0  0  0  0  0  0  0  0  0  0
  1  6  1  0
  6  8  1  0
  6  9  2  0
  5 10  1  0
 10 11  2  0
 10 12  1  0
  3 13  1  0
 12 19  1  0
  4 20  1  0
 12 21  1  0
  8 22  1  0
 22 23  2  0
 22 24  1  0
 24 25  1  0
 20 19  1  0
 13 14  2  0
 14 15  1  0
 15 16  2  0
 16 17  1  0
 17 18  2  0
 18 13  1  0
  1  2  2  0
  2  3  1  0
  3  4  2  0
  4  5  1  0
  5  7  2  0
  7  1  1  0
M  END

$$$$
