No_2208-gen_results/8p0m/2024-11-26-14-13-15/
     RDKit          3D

 19 20  0  0  0  0  0  0  0  0999 V2000
  -28.0162   -0.8135   28.8779 C   0  0  0  0  0  0  0  0  0  0  0  0
  -28.4690   -0.7850   29.8287 C   0  0  0  0  0  0  0  0  0  0  0  0
  -26.5455   -0.8762   28.8500 C   0  0  0  0  0  0  0  0  0  0  0  0
  -25.8041   -1.0324   30.0571 C   0  0  0  0  0  0  0  0  0  0  0  0
  -27.9437   -0.9869   31.2075 C   0  0  0  0  0  0  0  0  0  0  0  0
  -26.5825   -1.0386   31.2231 C   0  0  0  0  0  0  0  0  0  0  0  0
  -30.2809   -0.7232   29.8834 Cl  0  0  0  0  0  0  0  0  0  0  0  0
  -24.3690   -1.1185   30.0640 C   0  0  0  0  0  0  0  0  0  0  0  0
  -23.6811    0.1519   30.0835 C   0  0  0  0  0  0  0  0  0  0  0  0
  -23.2612    0.7756   28.8972 C   0  0  0  0  0  0  0  0  0  0  0  0
  -21.9844    0.6529   28.5638 C   0  0  0  0  0  0  0  0  0  0  0  0
  -24.1929    1.4722   28.1456 C   0  0  0  0  0  0  0  0  0  0  0  0
  -23.7404    2.0143   26.8817 C   0  0  0  0  0  0  0  0  0  0  0  0
  -21.4467    1.3017   27.3850 C   0  0  0  0  0  0  0  0  0  0  0  0
  -22.3807    2.0423   26.6057 C   0  0  0  0  0  0  0  0  0  0  0  0
  -23.6210    0.9258   31.3291 C   0  0  0  0  0  0  0  0  0  0  0  0
  -25.9711   -0.7439   27.6188 O   0  0  0  0  0  0  0  0  0  0  0  0
  -24.7677    2.8452   25.8609 Cl  0  0  0  0  0  0  0  0  0  0  0  0
  -24.1017    0.4632   32.3893 O   0  0  0  0  0  0  0  0  0  0  0  0
  2  7  1  0
  4  8  1  0
  8  9  1  0
  9 10  1  0
  9 16  1  0
  3 17  1  0
 13 18  1  0
 16 19  1  0
 10 11  2  0
 11 14  1  0
 14 15  2  0
 15 13  1  0
 13 12  2  0
 12 10  1  0
  1  2  2  0
  2  5  1  0
  5  6  2  0
  6  4  1  0
  4  3  2  0
  3  1  1  0
M  END

$$$$
