No_2744-gen_results/8p0m/2024-11-26-14-13-15/
     RDKit          3D

 24 26  0  0  0  0  0  0  0  0999 V2000
  -28.0162   -0.8135   28.8779 C   0  0  0  0  0  0  0  0  0  0  0  0
  -28.4690   -0.7850   29.8287 C   0  0  0  0  0  0  0  0  0  0  0  0
  -26.5042   -0.7777   28.8766 C   0  0  0  0  0  0  0  0  0  0  0  0
  -25.8103   -0.8531   30.1028 C   0  0  0  0  0  0  0  0  0  0  0  0
  -27.9906   -0.8916   31.2257 C   0  0  0  0  0  0  0  0  0  0  0  0
  -26.6042   -0.8676   31.2652 C   0  0  0  0  0  0  0  0  0  0  0  0
  -24.3894   -0.8050   30.1639 C   0  0  0  0  0  0  0  0  0  0  0  0
  -23.7660   -0.9500   31.0679 C   0  0  0  0  0  0  0  0  0  0  0  0
  -22.2665   -0.8379   31.2250 C   0  0  0  0  0  0  0  0  0  0  0  0
  -21.6701   -0.5264   30.0648 C   0  0  0  0  0  0  0  0  0  0  0  0
  -23.6437   -0.4434   28.9621 C   0  0  0  0  0  0  0  0  0  0  0  0
  -22.3479   -0.3035   28.9177 C   0  0  0  0  0  0  0  0  0  0  0  0
  -30.0924   -0.7792   29.8445 C   0  0  0  0  0  0  0  0  0  0  0  0
  -30.4928   -0.2971   28.8950 O   0  0  0  0  0  0  0  0  0  0  0  0
  -30.7880   -1.6600   30.6548 N   0  0  0  0  0  0  0  0  0  0  0  0
  -32.2026   -1.7366   30.5134 C   0  0  0  0  0  0  0  0  0  0  0  0
  -32.6857   -2.8200   30.7942 C   0  0  0  0  0  0  0  0  0  0  0  0
  -32.0089   -3.8264   31.5560 C   0  0  0  0  0  0  0  0  0  0  0  0
  -30.5847   -3.7398   31.6855 C   0  0  0  0  0  0  0  0  0  0  0  0
  -29.8935   -2.7765   30.8176 C   0  0  0  0  0  0  0  0  0  0  0  0
  -29.9044   -5.1500   31.7631 C   0  0  0  0  0  0  0  0  0  0  0  0
  -28.7135   -5.0129   31.7182 F   0  0  0  0  0  0  0  0  0  0  0  0
  -30.2329   -5.7118   32.9206 F   0  0  0  0  0  0  0  0  0  0  0  0
  -30.3062   -5.8879   30.7152 F   0  0  0  0  0  0  0  0  0  0  0  0
  4  7  1  0
  2 13  1  0
 13 14  2  0
 13 15  1  0
 15 16  1  0
 17 18  1  0
 15 20  1  0
 19 20  1  0
 19 21  1  0
 21 22  1  0
 21 23  1  0
 21 24  1  0
 16 17  1  0
 18 19  1  0
  7  8  2  0
  8  9  1  0
  9 10  2  0
 10 12  1  0
 12 11  2  0
 11  7  1  0
  1  2  2  0
  2  5  1  0
  5  6  2  0
  6  4  1  0
  4  3  2  0
  3  1  1  0
M  END

$$$$
