No_2413-gen_results/8p0m/2024-11-26-14-13-15/
     RDKit          3D

 10 10  0  0  0  0  0  0  0  0999 V2000
  -28.0162   -0.8135   28.8779 C   0  0  0  0  0  0  0  0  0  0  0  0
  -28.4690   -0.7850   29.8287 C   0  0  0  0  0  0  0  0  0  0  0  0
  -27.2166   -0.0832   27.9639 C   0  0  0  0  0  0  0  0  0  0  0  0
  -27.0905    1.2695   28.4177 C   0  0  0  0  0  0  0  0  0  0  0  0
  -27.6655    1.5758   29.6941 C   0  0  0  0  0  0  0  0  0  0  0  0
  -28.3335    0.6031   30.4319 C   0  0  0  0  0  0  0  0  0  0  0  0
  -26.3583    2.2788   27.6965 C   0  0  0  0  0  0  0  0  0  0  0  0
  -25.0714    2.1920   27.9113 N   0  0  0  0  0  0  0  0  0  0  0  0
  -24.2239    1.5421   27.6768 C   0  0  0  0  0  0  0  0  0  0  0  0
  -22.8209    1.7104   28.1475 C   0  0  0  0  0  0  0  0  0  0  0  0
  4  7  1  0
  7  8  1  0
  8  9  1  0
  9 10  2  0
  1  2  2  0
  2  6  1  0
  6  5  2  0
  5  4  1  0
  4  3  2  0
  3  1  1  0
M  END

$$$$
