No_2335-gen_results/8p0m/2024-11-26-14-13-15/
     RDKit          3D

 26 28  0  0  0  0  0  0  0  0999 V2000
  -28.0162   -0.8135   28.8779 C   0  0  0  0  0  0  0  0  0  0  0  0
  -28.4690   -0.7850   29.8287 C   0  0  0  0  0  0  0  0  0  0  0  0
  -27.0871    0.2903   28.6377 C   0  0  0  0  0  0  0  0  0  0  0  0
  -26.8317    1.2487   29.5869 C   0  0  0  0  0  0  0  0  0  0  0  0
  -28.3914    0.0801   31.0065 C   0  0  0  0  0  0  0  0  0  0  0  0
  -27.4940    1.1521   30.7841 C   0  0  0  0  0  0  0  0  0  0  0  0
  -26.3172    0.3994   27.3653 C   0  0  0  0  0  0  0  0  0  0  0  0
  -24.9405    0.2550   27.5028 C   0  0  0  0  0  0  0  0  0  0  0  0
  -26.9129    0.5860   26.1397 C   0  0  0  0  0  0  0  0  0  0  0  0
  -28.2688    0.7168   25.9850 C   0  0  0  0  0  0  0  0  0  0  0  0
  -28.7657    0.7315   24.6860 C   0  0  0  0  0  0  0  0  0  0  0  0
  -30.1595    0.8701   24.4627 C   0  0  0  0  0  0  0  0  0  0  0  0
  -30.6691    0.9816   23.4368 C   0  0  0  0  0  0  0  0  0  0  0  0
  -32.1309    1.1311   23.2584 C   0  0  0  0  0  0  0  0  0  0  0  0
  -32.9139    1.1553   24.3908 C   0  0  0  0  0  0  0  0  0  0  0  0
  -31.0996    0.9018   25.6588 C   0  0  0  0  0  0  0  0  0  0  0  0
  -32.3736    1.0134   25.5516 C   0  0  0  0  0  0  0  0  0  0  0  0
  -24.1079    1.2071   26.9560 C   0  0  0  0  0  0  0  0  0  0  0  0
  -24.5883    1.7088   25.6559 C   0  0  0  0  0  0  0  0  0  0  0  0
  -26.0088    1.4178   25.2025 C   0  0  0  0  0  0  0  0  0  0  0  0
  -28.0073    0.3520   23.6011 C   0  0  0  0  0  0  0  0  0  0  0  0
  -22.7016    1.3667   27.2339 C   0  0  0  0  0  0  0  0  0  0  0  0
  -21.9263    1.9711   26.5001 F   0  0  0  0  0  0  0  0  0  0  0  0
  -22.7726    2.1008   28.5309 F   0  0  0  0  0  0  0  0  0  0  0  0
  -22.2058    0.2180   27.7291 F   0  0  0  0  0  0  0  0  0  0  0  0
  -29.6896   -2.1197   30.2017 Cl  0  0  0  0  0  0  0  0  0  0  0  0
  3  7  1  0
  9 10  1  0
 10 11  2  3
 11 12  1  0
 11 21  1  0
 18 22  1  0
 22 23  1  0
 22 24  1  0
 22 25  1  0
  2 26  1  0
 12 13  2  0
 13 14  1  0
 14 15  2  0
 15 17  1  0
 17 16  2  0
 16 12  1  0
  1  2  2  0
  2  5  1  0
  5  6  2  0
  6  4  1  0
  4  3  2  0
  3  1  1  0
  7  8  2  0
  8 18  1  0
 18 19  2  0
 19 20  1  0
 20  9  2  0
  9  7  1  0
M  END

$$$$
