No_2843-gen_results/8p0m/2024-11-26-14-13-15/
     RDKit          3D

 35 38  0  0  0  0  0  0  0  0999 V2000
  -28.0162   -0.8135   28.8779 C   0  0  0  0  0  0  0  0  0  0  0  0
  -28.4690   -0.7850   29.8287 C   0  0  0  0  0  0  0  0  0  0  0  0
  -26.5042   -0.7777   28.8766 C   0  0  0  0  0  0  0  0  0  0  0  0
  -25.6540   -0.6597   27.7191 C   0  0  0  0  0  0  0  0  0  0  0  0
  -27.9180   -0.9374   31.1824 C   0  0  0  0  0  0  0  0  0  0  0  0
  -26.5423   -0.9399   31.2606 C   0  0  0  0  0  0  0  0  0  0  0  0
  -25.7832   -0.8935   30.1201 C   0  0  0  0  0  0  0  0  0  0  0  0
  -25.2134    0.6923   27.3830 C   0  0  0  0  0  0  0  0  0  0  0  0
  -23.9202    0.9215   27.7698 C   0  0  0  0  0  0  0  0  0  0  0  0
  -23.2576    2.1194   27.2629 C   0  0  0  0  0  0  0  0  0  0  0  0
  -23.9322    2.9640   26.4349 C   0  0  0  0  0  0  0  0  0  0  0  0
  -25.8566    1.4747   26.4320 C   0  0  0  0  0  0  0  0  0  0  0  0
  -25.2193    2.6095   25.9797 C   0  0  0  0  0  0  0  0  0  0  0  0
  -24.3655   -0.9777   30.2000 C   0  0  0  0  0  0  0  0  0  0  0  0
  -23.3942   -0.0572   30.4337 C   0  0  0  0  0  0  0  0  0  0  0  0
  -23.8442   -2.3404   29.7230 C   0  0  0  0  0  0  0  0  0  0  0  0
  -30.0709   -0.7796   29.8461 C   0  0  0  0  0  0  0  0  0  0  0  0
  -30.6658    0.1811   30.3846 O   0  0  0  0  0  0  0  0  0  0  0  0
  -30.6438   -1.6696   29.2428 O   0  0  0  0  0  0  0  0  0  0  0  0
  -26.9916    1.1857   25.9609 F   0  0  0  0  0  0  0  0  0  0  0  0
  -23.7510    1.0205   31.1790 N   0  0  0  0  0  0  0  0  0  0  0  0
  -22.1818   -0.0225   29.9862 O   0  0  0  0  0  0  0  0  0  0  0  0
  -24.9952    1.2487   31.8025 C   0  0  0  0  0  0  0  0  0  0  0  0
  -25.2010    2.6713   32.3056 C   0  0  0  0  0  0  0  0  0  0  0  0
  -25.9697    3.5127   31.6558 C   0  0  0  0  0  0  0  0  0  0  0  0
  -26.4043    3.2490   30.4940 C   0  0  0  0  0  0  0  0  0  0  0  0
  -27.8720    3.4762   30.2015 C   0  0  0  0  0  0  0  0  0  0  0  0
  -28.2305    4.6293   30.2934 C   0  0  0  0  0  0  0  0  0  0  0  0
  -27.7090    5.3821   31.4725 C   0  0  0  0  0  0  0  0  0  0  0  0
  -26.5851    4.8019   32.2322 C   0  0  0  0  0  0  0  0  0  0  0  0
  -28.2883    6.5346   31.8729 O   0  0  0  0  0  0  0  0  0  0  0  0
  -27.9601    7.1299   32.8367 C   0  0  0  0  0  0  0  0  0  0  0  0
  -25.9598    5.4889   33.3247 C   0  0  0  0  0  0  0  0  0  0  0  0
  -26.6839    6.8361   33.6539 C   0  0  0  0  0  0  0  0  0  0  0  0
  -26.1575    7.6084   34.7331 C   0  0  0  0  0  0  0  0  0  0  0  0
  3  4  1  0
  4  8  1  0
  7 14  1  0
 14 15  1  0
 14 16  1  0
  2 17  1  0
 17 18  1  0
 17 19  2  0
 12 20  1  0
 15 21  1  0
 15 22  2  0
 21 23  1  0
 23 24  2  3
 24 25  1  0
 29 31  1  0
 31 32  1  0
 30 33  1  0
 32 34  1  0
 33 34  2  0
 34 35  1  0
 25 26  2  0
 26 27  1  0
 27 28  2  0
 28 29  1  0
 29 30  2  0
 30 25  1  0
  1  2  2  0
  2  5  1  0
  5  6  2  0
  6  7  1  0
  7  3  2  0
  3  1  1  0
  8  9  2  0
  9 10  1  0
 10 11  2  0
 11 13  1  0
 13 12  2  0
 12  8  1  0
M  END

$$$$
