No_2503-gen_results/8p0m/2024-11-26-14-13-15/
     RDKit          3D

 19 20  0  0  0  0  0  0  0  0999 V2000
  -28.0162   -0.8135   28.8779 C   0  0  0  0  0  0  0  0  0  0  0  0
  -28.4690   -0.7850   29.8287 C   0  0  0  0  0  0  0  0  0  0  0  0
  -26.5042   -0.7777   28.8766 C   0  0  0  0  0  0  0  0  0  0  0  0
  -25.6540   -0.6597   27.7191 C   0  0  0  0  0  0  0  0  0  0  0  0
  -27.9180   -0.9374   31.1824 C   0  0  0  0  0  0  0  0  0  0  0  0
  -26.5423   -0.9399   31.2606 C   0  0  0  0  0  0  0  0  0  0  0  0
  -25.7832   -0.8935   30.1201 C   0  0  0  0  0  0  0  0  0  0  0  0
  -25.2204    0.6866   27.3939 C   0  0  0  0  0  0  0  0  0  0  0  0
  -23.9014    0.8981   27.7598 C   0  0  0  0  0  0  0  0  0  0  0  0
  -23.2620    2.1173   27.2513 C   0  0  0  0  0  0  0  0  0  0  0  0
  -23.9515    2.9749   26.4625 C   0  0  0  0  0  0  0  0  0  0  0  0
  -25.8717    1.4893   26.4729 C   0  0  0  0  0  0  0  0  0  0  0  0
  -25.2452    2.6238   26.0239 C   0  0  0  0  0  0  0  0  0  0  0  0
  -30.0570   -0.7970   29.8510 C   0  0  0  0  0  0  0  0  0  0  0  0
  -30.6670    0.0800   30.5347 O   0  0  0  0  0  0  0  0  0  0  0  0
  -30.6587   -1.8263   29.4492 O   0  0  0  0  0  0  0  0  0  0  0  0
  -23.0565    0.1096   28.6706 C   0  0  0  0  0  0  0  0  0  0  0  0
  -21.7582    0.3397   28.9497 C   0  0  0  0  0  0  0  0  0  0  0  0
  -21.1306    1.3041   28.1842 C   0  0  0  0  0  0  0  0  0  0  0  0
  3  4  1  0
  4  8  1  0
  2 14  1  0
 14 15  2  0
 14 16  1  0
  9 17  1  0
 17 18  2  3
 18 19  1  0
  1  2  2  0
  2  5  1  0
  5  6  2  0
  6  7  1  0
  7  3  2  0
  3  1  1  0
  8  9  2  0
  9 10  1  0
 10 11  2  0
 11 13  1  0
 13 12  2  0
 12  8  1  0
M  END

$$$$
