No_2360-gen_results/8p0m/2024-11-26-14-13-15/
     RDKit          3D

 21 23  0  0  0  0  0  0  0  0999 V2000
  -28.0162   -0.8135   28.8779 C   0  0  0  0  0  0  0  0  0  0  0  0
  -28.4690   -0.7850   29.8287 C   0  0  0  0  0  0  0  0  0  0  0  0
  -28.1960    0.3478   28.0550 C   0  0  0  0  0  0  0  0  0  0  0  0
  -29.0191    1.3501   28.3782 C   0  0  0  0  0  0  0  0  0  0  0  0
  -29.6249    1.2683   29.6012 C   0  0  0  0  0  0  0  0  0  0  0  0
  -29.3821    0.1816   30.4004 C   0  0  0  0  0  0  0  0  0  0  0  0
  -27.4591    0.3787   26.7048 C   0  0  0  0  0  0  0  0  0  0  0  0
  -26.1348    0.3565   26.8184 C   0  0  0  0  0  0  0  0  0  0  0  0
  -25.3867    0.0254   27.9208 C   0  0  0  0  0  0  0  0  0  0  0  0
  -23.9776    0.0228   27.9126 C   0  0  0  0  0  0  0  0  0  0  0  0
  -23.2128   -0.3720   29.0875 C   0  0  0  0  0  0  0  0  0  0  0  0
  -23.8142   -1.1951   30.0214 C   0  0  0  0  0  0  0  0  0  0  0  0
  -25.1806   -1.3032   30.0026 C   0  0  0  0  0  0  0  0  0  0  0  0
  -25.9396   -0.8001   29.0087 C   0  0  0  0  0  0  0  0  0  0  0  0
  -25.7789   -2.2487   28.5749 Cl  0  0  0  0  0  0  0  0  0  0  0  0
  -29.1298   -1.6462   28.1301 Cl  0  0  0  0  0  0  0  0  0  0  0  0
  -25.3649    0.9015   25.6732 C   0  0  0  0  0  0  0  0  0  0  0  0
  -21.5254   -0.1243   29.0921 Cl  0  0  0  0  0  0  0  0  0  0  0  0
  -28.1111    1.0948   25.7696 C   0  0  0  0  0  0  0  0  0  0  0  0
  -27.4904    1.1169   24.5095 C   0  0  0  0  0  0  0  0  0  0  0  0
  -26.0689    1.1518   24.5417 C   0  0  0  0  0  0  0  0  0  0  0  0
  3  7  1  0
 14 15  1  0
  1 16  1  0
 11 18  1  0
  8  9  1  0
  1  2  2  0
  2  6  1  0
  6  5  2  0
  5  4  1  0
  4  3  2  0
  3  1  1  0
  9 10  2  0
 10 11  1  0
 11 12  2  0
 12 13  1  0
 13 14  2  0
 14  9  1  0
  7  8  1  0
  8 17  2  0
 17 21  1  0
 21 20  2  0
 20 19  1  0
 19  7  2  0
M  END

$$$$
