No_2389-gen_results/8p0m/2024-11-26-14-13-15/
     RDKit          3D

 23 25  0  0  0  0  0  0  0  0999 V2000
  -28.0162   -0.8135   28.8779 C   0  0  0  0  0  0  0  0  0  0  0  0
  -27.0636   -0.1190   28.6079 C   0  0  0  0  0  0  0  0  0  0  0  0
  -27.0010    0.6913   27.4910 C   0  0  0  0  0  0  0  0  0  0  0  0
  -25.8548    1.4825   27.0830 C   0  0  0  0  0  0  0  0  0  0  0  0
  -24.6901    1.4526   27.8807 C   0  0  0  0  0  0  0  0  0  0  0  0
  -24.7379    0.6010   29.0416 C   0  0  0  0  0  0  0  0  0  0  0  0
  -25.8234   -0.1688   29.3887 C   0  0  0  0  0  0  0  0  0  0  0  0
  -29.2150   -0.1726   29.0132 N   0  0  0  0  0  0  0  0  0  0  0  0
  -30.2463   -0.7736   29.6388 C   0  0  0  0  0  0  0  0  0  0  0  0
  -23.5190    2.2034   27.5550 C   0  0  0  0  0  0  0  0  0  0  0  0
  -22.8328    2.5396   28.4944 F   0  0  0  0  0  0  0  0  0  0  0  0
  -23.6282    3.1341   26.6343 F   0  0  0  0  0  0  0  0  0  0  0  0
  -22.5712    1.2711   26.9459 F   0  0  0  0  0  0  0  0  0  0  0  0
  -30.0001   -1.9227   30.3463 C   0  0  0  0  0  0  0  0  0  0  0  0
  -28.7414   -2.5324   30.4003 C   0  0  0  0  0  0  0  0  0  0  0  0
  -27.7074   -1.8527   29.8510 C   0  0  0  0  0  0  0  0  0  0  0  0
  -31.4083   -0.3052   29.5266 F   0  0  0  0  0  0  0  0  0  0  0  0
  -29.4950    0.9745   28.2223 C   0  0  0  0  0  0  0  0  0  0  0  0
  -28.3673    1.2476   27.2787 C   0  0  0  0  0  0  0  0  0  0  0  0
  -28.6612    1.9462   26.0294 C   0  0  0  0  0  0  0  0  0  0  0  0
  -28.5601   -3.7230   31.0700 O   0  0  0  0  0  0  0  0  0  0  0  0
  -29.3428   -4.2897   31.7606 C   0  0  0  0  0  0  0  0  0  0  0  0
  -29.1044    1.3119   25.0397 C   0  0  0  0  0  0  0  0  0  0  0  0
  1  2  1  0
  1  8  1  0
  8  9  1  0
  5 10  1  0
 10 11  1  0
 10 12  1  0
 10 13  1  0
 14 15  1  0
  1 16  1  0
 15 16  1  0
  9 17  1  0
  8 18  1  0
  3 19  1  0
 18 19  1  0
 19 20  1  0
 15 21  1  0
 21 22  1  0
 20 23  1  0
 14  9  1  0
  2  7  1  0
  7  6  2  0
  6  5  1  0
  5  4  2  0
  4  3  1  0
  3  2  2  0
M  END

$$$$
