No_2305-gen_results/8p0m/2024-11-26-14-13-15/
     RDKit          3D

 10 10  0  0  0  0  0  0  0  0999 V2000
  -28.0162   -0.8135   28.8779 C   0  0  0  0  0  0  0  0  0  0  0  0
  -28.4690   -0.7850   29.8287 C   0  0  0  0  0  0  0  0  0  0  0  0
  -27.1356    0.2359   28.5352 C   0  0  0  0  0  0  0  0  0  0  0  0
  -26.8745    1.2825   29.3982 C   0  0  0  0  0  0  0  0  0  0  0  0
  -29.3953   -1.9238   30.2863 C   0  0  0  0  0  0  0  0  0  0  0  0
  -27.5236    1.2089   30.6379 C   0  0  0  0  0  0  0  0  0  0  0  0
  -28.3224    0.1273   30.9590 C   0  0  0  0  0  0  0  0  0  0  0  0
  -29.1915   -3.1694   30.3695 N   0  0  0  0  0  0  0  0  0  0  0  0
  -30.8267   -1.6509   30.6168 C   0  0  0  0  0  0  0  0  0  0  0  0
  -31.6672   -2.6737   30.8728 C   0  0  0  0  0  0  0  0  0  0  0  0
  2  5  1  0
  5  8  2  0
  5  9  1  0
  9 10  1  0
  1  2  2  0
  2  7  1  0
  7  6  2  0
  6  4  1  0
  4  3  2  0
  3  1  1  0
M  END

$$$$
