No_2772-gen_results/8p0m/2024-11-26-14-13-15/
     RDKit          3D

 16 17  0  0  0  0  0  0  0  0999 V2000
  -28.0162   -0.8135   28.8779 C   0  0  0  0  0  0  0  0  0  0  0  0
  -28.4690   -0.7850   29.8287 C   0  0  0  0  0  0  0  0  0  0  0  0
  -26.5042   -0.7777   28.8766 C   0  0  0  0  0  0  0  0  0  0  0  0
  -25.8103   -0.8531   30.1028 C   0  0  0  0  0  0  0  0  0  0  0  0
  -27.9864   -0.8420   31.0657 C   0  0  0  0  0  0  0  0  0  0  0  0
  -26.6147   -0.8427   31.2304 C   0  0  0  0  0  0  0  0  0  0  0  0
  -24.1671   -0.7803   30.1705 Cl  0  0  0  0  0  0  0  0  0  0  0  0
  -29.9476   -0.8246   29.7635 O   0  0  0  0  0  0  0  0  0  0  0  0
  -30.7052   -1.6596   30.3417 C   0  0  0  0  0  0  0  0  0  0  0  0
  -31.7167   -2.0617   29.5547 C   0  0  0  0  0  0  0  0  0  0  0  0
  -32.1077   -1.4008   28.4660 C   0  0  0  0  0  0  0  0  0  0  0  0
  -32.9048   -1.9542   27.5258 C   0  0  0  0  0  0  0  0  0  0  0  0
  -33.1347   -1.3590   26.2162 C   0  0  0  0  0  0  0  0  0  0  0  0
  -32.4990   -0.1274   25.9354 C   0  0  0  0  0  0  0  0  0  0  0  0
  -31.6523    0.4129   26.8764 C   0  0  0  0  0  0  0  0  0  0  0  0
  -31.4132   -0.2186   28.0310 C   0  0  0  0  0  0  0  0  0  0  0  0
  4  7  1  0
  2  8  1  0
  8  9  1  0
  9 10  2  3
 10 11  1  0
 11 12  2  0
 12 13  1  0
 13 14  2  0
 14 15  1  0
 15 16  2  0
 16 11  1  0
  1  2  2  0
  2  5  1  0
  5  6  2  0
  6  4  1  0
  4  3  2  0
  3  1  1  0
M  END

$$$$
