No_2359-gen_results/8p0m/2024-11-26-14-13-15/
     RDKit          3D

 21 23  0  0  0  0  0  0  0  0999 V2000
  -28.0162   -0.8135   28.8779 C   0  0  0  0  0  0  0  0  0  0  0  0
  -28.4690   -0.7850   29.8287 C   0  0  0  0  0  0  0  0  0  0  0  0
  -27.1356    0.2359   28.5352 C   0  0  0  0  0  0  0  0  0  0  0  0
  -26.8050    1.0509   29.2763 C   0  0  0  0  0  0  0  0  0  0  0  0
  -27.3158    1.1492   30.6054 C   0  0  0  0  0  0  0  0  0  0  0  0
  -28.1917    0.1430   30.9488 C   0  0  0  0  0  0  0  0  0  0  0  0
  -26.4831    0.2096   27.1281 C   0  0  0  0  0  0  0  0  0  0  0  0
  -27.0196    0.6489   26.1370 C   0  0  0  0  0  0  0  0  0  0  0  0
  -26.4103    0.4893   24.8421 C   0  0  0  0  0  0  0  0  0  0  0  0
  -25.0825   -0.0283   24.8361 C   0  0  0  0  0  0  0  0  0  0  0  0
  -25.1087   -0.3129   27.0516 C   0  0  0  0  0  0  0  0  0  0  0  0
  -24.4544   -0.3514   25.9213 C   0  0  0  0  0  0  0  0  0  0  0  0
  -24.4087   -0.7653   28.3241 C   0  0  0  0  0  0  0  0  0  0  0  0
  -28.4589    1.0898   26.0760 C   0  0  0  0  0  0  0  0  0  0  0  0
  -28.6024    2.2573   26.2749 O   0  0  0  0  0  0  0  0  0  0  0  0
  -29.3500    0.2307   25.9754 O   0  0  0  0  0  0  0  0  0  0  0  0
  -23.3220   -0.3426   28.8766 C   0  0  0  0  0  0  0  0  0  0  0  0
  -22.6799   -0.9246   29.9358 C   0  0  0  0  0  0  0  0  0  0  0  0
  -23.4125   -1.7718   30.7612 C   0  0  0  0  0  0  0  0  0  0  0  0
  -24.9428   -1.8164   29.1700 C   0  0  0  0  0  0  0  0  0  0  0  0
  -24.5048   -2.3016   30.2636 C   0  0  0  0  0  0  0  0  0  0  0  0
  3  7  1  0
 11 13  1  0
  8 14  1  0
 14 15  2  0
 14 16  1  0
  7  8  2  0
  8  9  1  0
  9 10  2  0
 10 12  1  0
 12 11  2  0
 11  7  1  0
  1  2  2  0
  2  6  1  0
  6  5  2  0
  5  4  1  0
  4  3  2  0
  3  1  1  0
 13 17  2  0
 17 18  1  0
 18 19  2  0
 19 21  1  0
 21 20  2  0
 20 13  1  0
M  END

$$$$
