No_2115-gen_results/8p0m/2024-11-26-14-13-15/
     RDKit          3D

 14 15  0  0  0  0  0  0  0  0999 V2000
  -28.0162   -0.8135   28.8779 C   0  0  0  0  0  0  0  0  0  0  0  0
  -28.4690   -0.7850   29.8287 C   0  0  0  0  0  0  0  0  0  0  0  0
  -26.5042   -0.7777   28.8766 C   0  0  0  0  0  0  0  0  0  0  0  0
  -25.9150   -0.6580   29.9230 C   0  0  0  0  0  0  0  0  0  0  0  0
  -27.9691   -0.7243   31.2047 C   0  0  0  0  0  0  0  0  0  0  0  0
  -26.5847   -0.6393   31.2062 C   0  0  0  0  0  0  0  0  0  0  0  0
  -24.4026   -0.5847   30.0419 C   0  0  0  0  0  0  0  0  0  0  0  0
  -23.7439   -1.3708   30.5510 C   0  0  0  0  0  0  0  0  0  0  0  0
  -23.7804    0.5803   29.3840 C   0  0  0  0  0  0  0  0  0  0  0  0
  -24.4044    1.6915   28.8492 C   0  0  0  0  0  0  0  0  0  0  0  0
  -24.3738    2.0976   27.6736 C   0  0  0  0  0  0  0  0  0  0  0  0
  -23.1551    1.6640   26.9248 C   0  0  0  0  0  0  0  0  0  0  0  0
  -22.3031    0.8075   27.5092 C   0  0  0  0  0  0  0  0  0  0  0  0
  -22.5556    0.1406   28.6921 C   0  0  0  0  0  0  0  0  0  0  0  0
  4  7  1  0
  7  8  1  0
  7  9  1  0
  9 10  2  0
 10 11  1  0
 11 12  2  0
 12 13  1  0
 13 14  2  0
 14  9  1  0
  1  2  2  0
  2  5  1  0
  5  6  2  0
  6  4  1  0
  4  3  2  0
  3  1  1  0
M  END

$$$$
