No_2828-gen_results/8p0m/2024-11-26-14-13-15/
     RDKit          3D

 17 19  0  0  0  0  0  0  0  0999 V2000
  -28.0162   -0.8135   28.8779 C   0  0  0  0  0  0  0  0  0  0  0  0
  -27.0636   -0.1189   28.6079 C   0  0  0  0  0  0  0  0  0  0  0  0
  -26.9716    0.7139   27.5060 C   0  0  0  0  0  0  0  0  0  0  0  0
  -28.1053    0.7744   26.6421 C   0  0  0  0  0  0  0  0  0  0  0  0
  -29.2008    0.1044   27.0527 C   0  0  0  0  0  0  0  0  0  0  0  0
  -29.2096   -0.6029   28.1853 C   0  0  0  0  0  0  0  0  0  0  0  0
  -30.4815    0.1441   26.3452 C   0  0  0  0  0  0  0  0  0  0  0  0
  -30.5517   -0.0501   25.1296 N   0  0  0  0  0  0  0  0  0  0  0  0
  -31.5741    0.3207   26.9578 O   0  0  0  0  0  0  0  0  0  0  0  0
  -25.6795   -0.2264   29.3981 C   0  0  0  0  0  0  0  0  0  0  0  0
  -24.5440    0.1635   28.9064 C   0  0  0  0  0  0  0  0  0  0  0  0
  -23.3065    0.0679   29.6076 C   0  0  0  0  0  0  0  0  0  0  0  0
  -22.0603    0.5758   29.0832 C   0  0  0  0  0  0  0  0  0  0  0  0
  -22.0102    1.2866   27.9119 C   0  0  0  0  0  0  0  0  0  0  0  0
  -23.2201    1.5712   27.2349 C   0  0  0  0  0  0  0  0  0  0  0  0
  -24.4378    1.0564   27.7022 C   0  0  0  0  0  0  0  0  0  0  0  0
  -25.6852    1.2941   27.0165 C   0  0  0  0  0  0  0  0  0  0  0  0
  5  7  1  0
  7  8  1  0
  7  9  2  0
 11 12  1  0
 12 13  2  0
 13 14  1  0
 14 15  2  0
 15 16  1  0
  1  2  2  0
  3  4  2  0
  4  5  1  0
  5  6  2  0
  6  1  1  0
  2  3  1  0
  3 17  1  0
 17 16  2  0
 16 11  1  0
 11 10  2  0
 10  2  1  0
M  END

$$$$
