No_2241-gen_results/8p0m/2024-11-26-14-13-15/
     RDKit          3D

 21 23  0  0  0  0  0  0  0  0999 V2000
  -28.0162   -0.8135   28.8779 C   0  0  0  0  0  0  0  0  0  0  0  0
  -27.0636   -0.1189   28.6079 C   0  0  0  0  0  0  0  0  0  0  0  0
  -25.7647   -0.3897   29.0360 C   0  0  0  0  0  0  0  0  0  0  0  0
  -25.5296   -1.5302   29.9014 C   0  0  0  0  0  0  0  0  0  0  0  0
  -26.6888   -2.2893   30.1810 C   0  0  0  0  0  0  0  0  0  0  0  0
  -27.8727   -1.9508   29.7373 C   0  0  0  0  0  0  0  0  0  0  0  0
  -28.7636   -2.8289   30.2096 O   0  0  0  0  0  0  0  0  0  0  0  0
  -24.5499    0.4387   28.7343 C   0  0  0  0  0  0  0  0  0  0  0  0
  -24.5491    1.2893   27.7085 C   0  0  0  0  0  0  0  0  0  0  0  0
  -23.3489    2.0072   27.3823 C   0  0  0  0  0  0  0  0  0  0  0  0
  -22.1539    1.7966   28.0133 C   0  0  0  0  0  0  0  0  0  0  0  0
  -23.3028    0.1683   29.3657 C   0  0  0  0  0  0  0  0  0  0  0  0
  -22.1099    0.8615   29.0169 C   0  0  0  0  0  0  0  0  0  0  0  0
  -29.4836   -2.6384   31.2218 C   0  0  0  0  0  0  0  0  0  0  0  0
  -29.9641   -1.7333   31.5558 C   0  0  0  0  0  0  0  0  0  0  0  0
  -29.7624   -3.9892   31.9963 C   0  0  0  0  0  0  0  0  0  0  0  0
  -30.8435   -1.5649   32.7068 C   0  0  0  0  0  0  0  0  0  0  0  0
  -30.5773   -3.9467   33.1278 C   0  0  0  0  0  0  0  0  0  0  0  0
  -31.1502   -2.7152   33.4673 C   0  0  0  0  0  0  0  0  0  0  0  0
  -29.2126   -5.1213   31.6092 O   0  0  0  0  0  0  0  0  0  0  0  0
  -29.3192   -5.5018   30.2893 C   0  0  0  0  0  0  0  0  0  0  0  0
  6  7  1  0
  3  8  1  0
  7 14  1  0
 16 20  1  0
 20 21  1  0
  1  2  2  0
  2  3  1  0
  3  4  2  0
  4  5  1  0
  5  6  2  0
  6  1  1  0
 14 15  2  0
 15 17  1  0
 17 19  2  0
 19 18  1  0
 18 16  2  0
 16 14  1  0
  8  9  2  0
  9 10  1  0
 10 11  2  0
 11 13  1  0
 13 12  2  0
 12  8  1  0
M  END

$$$$
