No_21-gen_results/8p0m/2024-11-26-14-13-15/
     RDKit          3D

 16 17  0  0  0  0  0  0  0  0999 V2000
  -28.0162   -0.8135   28.8779 C   0  0  0  0  0  0  0  0  0  0  0  0
  -28.4690   -0.7850   29.8287 C   0  0  0  0  0  0  0  0  0  0  0  0
  -26.5455   -0.8762   28.8500 C   0  0  0  0  0  0  0  0  0  0  0  0
  -25.8041   -1.0324   30.0571 C   0  0  0  0  0  0  0  0  0  0  0  0
  -27.9437   -0.9869   31.2075 C   0  0  0  0  0  0  0  0  0  0  0  0
  -26.5825   -1.0386   31.2231 C   0  0  0  0  0  0  0  0  0  0  0  0
  -24.3810   -1.1082   30.0855 C   0  0  0  0  0  0  0  0  0  0  0  0
  -23.7054    0.0955   29.8440 C   0  0  0  0  0  0  0  0  0  0  0  0
  -23.3084    0.5206   28.6549 C   0  0  0  0  0  0  0  0  0  0  0  0
  -22.5967    1.6777   28.4108 C   0  0  0  0  0  0  0  0  0  0  0  0
  -22.2100    1.8997   27.0791 C   0  0  0  0  0  0  0  0  0  0  0  0
  -23.1693    1.7076   26.0249 C   0  0  0  0  0  0  0  0  0  0  0  0
  -24.1805    0.7238   26.3298 C   0  0  0  0  0  0  0  0  0  0  0  0
  -24.2870    0.1524   27.5986 C   0  0  0  0  0  0  0  0  0  0  0  0
  -29.9388   -0.7291   29.8524 F   0  0  0  0  0  0  0  0  0  0  0  0
  -23.3279    0.8537   31.0604 C   0  0  0  0  0  0  0  0  0  0  0  0
  4  7  1  0
  7  8  1  0
  8  9  1  0
  2 15  1  0
  8 16  1  0
  9 10  2  0
 10 11  1  0
 11 12  2  0
 12 13  1  0
 13 14  2  0
 14  9  1  0
  1  2  2  0
  2  5  1  0
  5  6  2  0
  6  4  1  0
  4  3  2  0
  3  1  1  0
M  END

$$$$
