No_2953-gen_results/8p0m/2024-11-26-14-13-15/
     RDKit          3D

 17 19  0  0  0  0  0  0  0  0999 V2000
  -28.0162   -0.8135   28.8779 C   0  0  0  0  0  0  0  0  0  0  0  0
  -28.4690   -0.7850   29.8287 C   0  0  0  0  0  0  0  0  0  0  0  0
  -28.1816    0.4277   28.1134 C   0  0  0  0  0  0  0  0  0  0  0  0
  -27.4498    0.6435   26.8500 C   0  0  0  0  0  0  0  0  0  0  0  0
  -26.1815    0.0357   26.7145 C   0  0  0  0  0  0  0  0  0  0  0  0
  -25.2987    0.1871   27.5499 C   0  0  0  0  0  0  0  0  0  0  0  0
  -23.9032    0.2113   27.2890 C   0  0  0  0  0  0  0  0  0  0  0  0
  -23.0352    0.1096   28.5071 C   0  0  0  0  0  0  0  0  0  0  0  0
  -21.6495    0.2856   28.4394 C   0  0  0  0  0  0  0  0  0  0  0  0
  -29.5419    0.0480   30.3364 C   0  0  0  0  0  0  0  0  0  0  0  0
  -29.8127    1.1396   29.6045 C   0  0  0  0  0  0  0  0  0  0  0  0
  -29.1339    1.3788   28.4661 C   0  0  0  0  0  0  0  0  0  0  0  0
  -23.5953   -0.3155   29.7953 C   0  0  0  0  0  0  0  0  0  0  0  0
  -24.9502   -0.4867   29.9248 C   0  0  0  0  0  0  0  0  0  0  0  0
  -25.7050   -0.3114   28.9662 C   0  0  0  0  0  0  0  0  0  0  0  0
  -27.0218   -0.6024   29.0458 N   0  0  0  0  0  0  0  0  0  0  0  0
  -26.5975   -1.7392   30.0069 C   0  0  0  0  0  0  0  0  0  0  0  0
  3  4  1  0
  4  5  1  0
  8  9  1  0
  1 16  1  0
 15 16  1  0
 16 17  1  0
  5  6  1  0
  6  7  2  0
  7  8  1  0
  8 13  2  0
 13 14  1  0
 14 15  2  0
 15  6  1  0
  1  2  2  0
  2 10  1  0
 10 11  2  0
 11 12  1  0
 12  3  2  0
  3  1  1  0
M  END

$$$$
