No_2384-gen_results/8p0m/2024-11-26-14-13-15/
     RDKit          3D

 35 38  0  0  0  0  0  0  0  0999 V2000
  -28.0162   -0.8135   28.8779 C   0  0  0  0  0  0  0  0  0  0  0  0
  -28.4690   -0.7850   29.8287 C   0  0  0  0  0  0  0  0  0  0  0  0
  -27.1356    0.2359   28.5352 C   0  0  0  0  0  0  0  0  0  0  0  0
  -26.8745    1.2825   29.3982 C   0  0  0  0  0  0  0  0  0  0  0  0
  -28.3613    0.1987   30.9244 C   0  0  0  0  0  0  0  0  0  0  0  0
  -27.5277    1.2234   30.6356 C   0  0  0  0  0  0  0  0  0  0  0  0
  -26.4533    0.0749   27.2390 C   0  0  0  0  0  0  0  0  0  0  0  0
  -25.7843    1.1543   26.7643 N   0  0  0  0  0  0  0  0  0  0  0  0
  -24.8583    1.8783   27.2990 C   0  0  0  0  0  0  0  0  0  0  0  0
  -24.2389    2.8980   26.6024 C   0  0  0  0  0  0  0  0  0  0  0  0
  -24.1624    1.4589   28.5142 C   0  0  0  0  0  0  0  0  0  0  0  0
  -22.8999    2.0360   28.7923 C   0  0  0  0  0  0  0  0  0  0  0  0
  -22.3791    2.9279   27.9116 C   0  0  0  0  0  0  0  0  0  0  0  0
  -22.9983    3.3779   26.8369 C   0  0  0  0  0  0  0  0  0  0  0  0
  -26.3586    1.5721   25.4303 C   0  0  0  0  0  0  0  0  0  0  0  0
  -27.4223    2.3620   25.4185 C   0  0  0  0  0  0  0  0  0  0  0  0
  -27.6676    3.3339   26.3054 C   0  0  0  0  0  0  0  0  0  0  0  0
  -28.8751    4.1273   26.2981 C   0  0  0  0  0  0  0  0  0  0  0  0
  -29.7446    3.9174   25.2225 C   0  0  0  0  0  0  0  0  0  0  0  0
  -28.3473    2.2221   24.3930 C   0  0  0  0  0  0  0  0  0  0  0  0
  -29.4659    3.0165   24.3034 C   0  0  0  0  0  0  0  0  0  0  0  0
  -25.9948    0.7453   24.5552 O   0  0  0  0  0  0  0  0  0  0  0  0
  -30.4470    2.8178   23.2230 C   0  0  0  0  0  0  0  0  0  0  0  0
  -31.7330    2.2092   23.5839 C   0  0  0  0  0  0  0  0  0  0  0  0
  -32.6999    2.1276   22.6649 C   0  0  0  0  0  0  0  0  0  0  0  0
  -32.3915    2.6061   21.3148 C   0  0  0  0  0  0  0  0  0  0  0  0
  -31.1537    3.0627   20.9908 C   0  0  0  0  0  0  0  0  0  0  0  0
  -30.2165    3.2750   21.9442 C   0  0  0  0  0  0  0  0  0  0  0  0
  -33.7286    2.4241   19.9570 Br  0  0  0  0  0  0  0  0  0  0  0  0
  -29.1123    5.1816   27.3253 C   0  0  0  0  0  0  0  0  0  0  0  0
  -29.3526    4.9138   28.3216 N   0  0  0  0  0  0  0  0  0  0  0  0
  -30.0783    5.0343   29.1233 C   0  0  0  0  0  0  0  0  0  0  0  0
  -30.8213    4.6939   29.7291 C   0  0  0  0  0  0  0  0  0  0  0  0
  -31.1287    5.2532   30.7114 F   0  0  0  0  0  0  0  0  0  0  0  0
  -32.0545    4.5231   29.0900 F   0  0  0  0  0  0  0  0  0  0  0  0
  3  7  1  0
  7  8  1  0
  8  9  1  0
  8 15  1  0
 15 16  1  0
 15 22  2  0
 21 23  1  0
 26 29  1  0
 18 30  1  0
 30 31  1  0
 31 32  1  0
 32 33  2  3
 33 34  1  0
 33 35  1  0
 23 24  2  0
 24 25  1  0
 25 26  2  0
 26 27  1  0
 27 28  2  0
 28 23  1  0
  9 10  2  0
 10 14  1  0
 14 13  2  0
 13 12  1  0
 12 11  2  0
 11  9  1  0
  1  2  2  0
  2  5  1  0
  5  6  2  0
  6  4  1  0
  4  3  2  0
  3  1  1  0
 16 17  2  0
 17 18  1  0
 18 19  2  0
 19 21  1  0
 21 20  2  0
 20 16  1  0
M  END

$$$$
