No_2574-gen_results/8p0m/2024-11-26-14-13-15/
     RDKit          3D

 20 21  0  0  0  0  0  0  0  0999 V2000
  -28.0162   -0.8135   28.8779 C   0  0  0  0  0  0  0  0  0  0  0  0
  -27.0636   -0.1190   28.6079 C   0  0  0  0  0  0  0  0  0  0  0  0
  -26.8756    1.1325   28.9134 C   0  0  0  0  0  0  0  0  0  0  0  0
  -25.6883    1.9515   28.5672 C   0  0  0  0  0  0  0  0  0  0  0  0
  -24.6394    1.2834   27.8753 C   0  0  0  0  0  0  0  0  0  0  0  0
  -24.8181   -0.0802   27.6166 C   0  0  0  0  0  0  0  0  0  0  0  0
  -25.9311   -0.7717   27.9696 C   0  0  0  0  0  0  0  0  0  0  0  0
  -28.6501   -0.5385   30.2330 C   0  0  0  0  0  0  0  0  0  0  0  0
  -29.7142   -1.2183   30.6194 C   0  0  0  0  0  0  0  0  0  0  0  0
  -30.1795   -2.2690   29.8348 C   0  0  0  0  0  0  0  0  0  0  0  0
  -31.3614   -2.9201   30.3466 C   0  0  0  0  0  0  0  0  0  0  0  0
  -31.8435   -4.0423   29.5993 C   0  0  0  0  0  0  0  0  0  0  0  0
  -32.4529   -3.8672   28.4263 C   0  0  0  0  0  0  0  0  0  0  0  0
  -32.6527   -2.6033   28.0026 C   0  0  0  0  0  0  0  0  0  0  0  0
  -33.1813   -2.2038   27.0413 C   0  0  0  0  0  0  0  0  0  0  0  0
  -33.2496   -0.8464   26.4924 C   0  0  0  0  0  0  0  0  0  0  0  0
  -32.5941    0.1195   27.2583 C   0  0  0  0  0  0  0  0  0  0  0  0
  -31.9035   -0.2484   28.4206 C   0  0  0  0  0  0  0  0  0  0  0  0
  -31.8193   -1.5362   28.7349 C   0  0  0  0  0  0  0  0  0  0  0  0
  -31.1115   -1.8839   29.6661 O   0  0  0  0  0  0  0  0  0  0  0  0
  1  8  1  0
  8  9  2  3
  9 10  1  0
 10 11  2  3
 11 12  1  0
 12 13  2  3
 13 14  1  0
 10 20  1  0
  1  2  1  0
  2  3  2  0
  3  4  1  0
  4  5  2  0
  5  6  1  0
  6  7  2  0
  7  2  1  0
 14 15  2  0
 15 16  1  0
 16 17  2  0
 17 18  1  0
 18 19  2  0
 19 14  1  0
M  END

$$$$
