No_231-gen_results/8p0m/2024-11-26-14-13-15/
     RDKit          3D

 25 28  0  0  0  0  0  0  0  0999 V2000
  -28.0162   -0.8135   28.8779 C   0  0  0  0  0  0  0  0  0  0  0  0
  -27.0636   -0.1190   28.6079 C   0  0  0  0  0  0  0  0  0  0  0  0
  -26.9716    0.7139   27.5060 C   0  0  0  0  0  0  0  0  0  0  0  0
  -28.1053    0.7744   26.6421 C   0  0  0  0  0  0  0  0  0  0  0  0
  -29.2041    0.1179   27.0477 C   0  0  0  0  0  0  0  0  0  0  0  0
  -29.2127   -0.6088   28.1281 C   0  0  0  0  0  0  0  0  0  0  0  0
  -30.3709    0.2326   26.1381 C   0  0  0  0  0  0  0  0  0  0  0  0
  -31.2520   -0.4036   26.3042 O   0  0  0  0  0  0  0  0  0  0  0  0
  -30.3125    1.0175   25.0722 O   0  0  0  0  0  0  0  0  0  0  0  0
  -25.6591    1.4028   27.1328 C   0  0  0  0  0  0  0  0  0  0  0  0
  -24.5319    1.0316   27.7470 C   0  0  0  0  0  0  0  0  0  0  0  0
  -24.3110    0.0957   28.7050 C   0  0  0  0  0  0  0  0  0  0  0  0
  -25.0085   -0.5049   29.2239 C   0  0  0  0  0  0  0  0  0  0  0  0
  -25.9193   -0.5932   29.2021 C   0  0  0  0  0  0  0  0  0  0  0  0
  -23.2939    1.8399   27.2517 C   0  0  0  0  0  0  0  0  0  0  0  0
  -23.3086    2.8441   26.4287 N   0  0  0  0  0  0  0  0  0  0  0  0
  -22.0027    1.4804   27.6829 N   0  0  0  0  0  0  0  0  0  0  0  0
  -26.4596   -1.6598   30.1608 N   0  0  0  0  0  0  0  0  0  0  0  0
  -27.7981   -1.6270   29.9528 C   0  0  0  0  0  0  0  0  0  0  0  0
  -28.6994   -2.4804   30.6751 C   0  0  0  0  0  0  0  0  0  0  0  0
  -29.5733   -2.0958   31.2793 O   0  0  0  0  0  0  0  0  0  0  0  0
  -28.5568   -3.8291   30.3049 O   0  0  0  0  0  0  0  0  0  0  0  0
  -21.7631    0.6494   28.6963 C   0  0  0  0  0  0  0  0  0  0  0  0
  -22.7949   -0.2045   29.1640 C   0  0  0  0  0  0  0  0  0  0  0  0
  -22.5575   -1.0163   30.0762 F   0  0  0  0  0  0  0  0  0  0  0  0
  5  7  1  0
  7  8  1  0
  7  9  2  0
  3 10  1  0
  2 14  1  0
 13 14  1  0
 14 18  1  0
  1 19  1  0
 18 19  2  0
 19 20  1  0
 20 21  2  0
 20 22  1  0
 24 25  1  0
 16 15  1  0
 10 11  1  0
 13 12  1  0
  1  2  2  0
  2  3  1  0
  3  4  2  0
  4  5  1  0
  5  6  2  0
  6  1  1  0
 11 12  2  0
 12 24  1  0
 24 23  2  0
 23 17  1  0
 17 15  2  0
 15 11  1  0
M  END

$$$$
