No_2154-gen_results/8p0m/2024-11-26-14-13-15/
     RDKit          3D

 16 17  0  0  0  0  0  0  0  0999 V2000
  -28.0162   -0.8135   28.8779 C   0  0  0  0  0  0  0  0  0  0  0  0
  -28.4690   -0.7850   29.8287 C   0  0  0  0  0  0  0  0  0  0  0  0
  -28.6541   -0.6744   27.8445 F   0  0  0  0  0  0  0  0  0  0  0  0
  -27.7274   -1.0138   31.1384 C   0  0  0  0  0  0  0  0  0  0  0  0
  -26.3130   -1.1081   31.0634 C   0  0  0  0  0  0  0  0  0  0  0  0
  -25.7318   -1.1346   29.7725 C   0  0  0  0  0  0  0  0  0  0  0  0
  -26.5830   -0.9531   28.7142 C   0  0  0  0  0  0  0  0  0  0  0  0
  -24.4538   -1.2231   29.6797 F   0  0  0  0  0  0  0  0  0  0  0  0
  -30.1999   -0.6737   30.1360 Cl  0  0  0  0  0  0  0  0  0  0  0  0
  -25.8902   -0.9203   27.4920 O   0  0  0  0  0  0  0  0  0  0  0  0
  -25.8206    0.2916   26.8900 C   0  0  0  0  0  0  0  0  0  0  0  0
  -26.2151    0.3382   25.5767 C   0  0  0  0  0  0  0  0  0  0  0  0
  -25.0732    1.3387   27.4377 C   0  0  0  0  0  0  0  0  0  0  0  0
  -24.7658    2.4412   26.7226 C   0  0  0  0  0  0  0  0  0  0  0  0
  -25.9818    1.5256   24.8786 C   0  0  0  0  0  0  0  0  0  0  0  0
  -25.2253    2.5780   25.4416 C   0  0  0  0  0  0  0  0  0  0  0  0
  1  3  1  0
  6  8  1  0
  2  9  1  0
  7 10  1  0
 10 11  1  0
 11 12  2  0
 12 15  1  0
 15 16  2  0
 16 14  1  0
 14 13  2  0
 13 11  1  0
  1  2  2  0
  2  4  1  0
  4  5  2  0
  5  6  1  0
  6  7  2  0
  7  1  1  0
M  END

$$$$
