No_2114-gen_results/8p0m/2024-11-26-14-13-15/
     RDKit          3D

 25 26  0  0  0  0  0  0  0  0999 V2000
  -28.1229   -1.3353   28.4874 O   0  0  0  0  0  0  0  0  0  0  0  0
  -27.4806   -0.4044   28.7094 C   0  0  0  0  0  0  0  0  0  0  0  0
  -26.3804   -0.0867   27.9394 C   0  0  0  0  0  0  0  0  0  0  0  0
  -27.4232    0.1749   30.0549 N   0  0  0  0  0  0  0  0  0  0  0  0
  -25.8482    1.0048   27.9942 C   0  0  0  0  0  0  0  0  0  0  0  0
  -25.8111    1.7414   29.2835 C   0  0  0  0  0  0  0  0  0  0  0  0
  -26.7479    1.3152   30.2318 C   0  0  0  0  0  0  0  0  0  0  0  0
  -28.3986   -0.2714   30.9950 C   0  0  0  0  0  0  0  0  0  0  0  0
  -29.4819    0.6799   31.1985 C   0  0  0  0  0  0  0  0  0  0  0  0
  -29.3415    1.8110   31.0200 F   0  0  0  0  0  0  0  0  0  0  0  0
  -29.9449    0.4551   32.5044 F   0  0  0  0  0  0  0  0  0  0  0  0
  -30.4052    0.2499   30.1765 F   0  0  0  0  0  0  0  0  0  0  0  0
  -24.7955    1.5055   27.0085 C   0  0  0  0  0  0  0  0  0  0  0  0
  -23.5347    1.6635   27.3560 C   0  0  0  0  0  0  0  0  0  0  0  0
  -22.9947    1.4576   28.6642 C   0  0  0  0  0  0  0  0  0  0  0  0
  -21.5479    1.4266   28.7663 C   0  0  0  0  0  0  0  0  0  0  0  0
  -20.9051    0.8240   27.9038 C   0  0  0  0  0  0  0  0  0  0  0  0
  -21.1857    1.1676   26.6288 C   0  0  0  0  0  0  0  0  0  0  0  0
  -22.5466    1.3234   26.3091 C   0  0  0  0  0  0  0  0  0  0  0  0
  -25.3477    1.9096   25.7838 C   0  0  0  0  0  0  0  0  0  0  0  0
  -27.4582   -0.4054   32.2831 C   0  0  0  0  0  0  0  0  0  0  0  0
  -26.2195   -0.7808   32.1786 O   0  0  0  0  0  0  0  0  0  0  0  0
  -25.2934   -0.1870   32.9718 C   0  0  0  0  0  0  0  0  0  0  0  0
  -23.9860   -0.5385   32.5650 C   0  0  0  0  0  0  0  0  0  0  0  0
  -25.6341    0.3998   34.1942 C   0  0  0  0  0  0  0  0  0  0  0  0
  1  2  2  0
  2  3  1  0
  2  4  1  0
  3  5  1  0
  4  7  1  0
  6  7  1  0
  4  8  1  0
  8  9  1  0
  9 10  1  0
  9 11  1  0
  9 12  1  0
  5 13  1  0
 13 14  1  0
 13 20  1  0
  8 21  1  0
 21 22  1  0
 22 23  1  0
 23 24  2  0
 23 25  1  0
  5  6  1  0
 14 15  2  0
 15 16  1  0
 16 17  2  0
 17 18  1  0
 18 19  2  0
 19 14  1  0
M  END

$$$$
