No_2113-gen_results/8p0m/2024-11-26-14-13-15/
     RDKit          3D

 21 22  0  0  0  0  0  0  0  0999 V2000
  -28.0162   -0.8135   28.8779 C   0  0  0  0  0  0  0  0  0  0  0  0
  -28.4690   -0.7850   29.8287 C   0  0  0  0  0  0  0  0  0  0  0  0
  -28.1960    0.3478   28.0550 C   0  0  0  0  0  0  0  0  0  0  0  0
  -29.0191    1.3501   28.3782 C   0  0  0  0  0  0  0  0  0  0  0  0
  -29.6249    1.2683   29.6012 C   0  0  0  0  0  0  0  0  0  0  0  0
  -29.3791    0.1470   30.3923 C   0  0  0  0  0  0  0  0  0  0  0  0
  -27.5461    0.5105   26.6832 C   0  0  0  0  0  0  0  0  0  0  0  0
  -26.1247    0.4946   26.6987 C   0  0  0  0  0  0  0  0  0  0  0  0
  -25.3651    1.4415   27.2676 C   0  0  0  0  0  0  0  0  0  0  0  0
  -25.6456    2.5782   27.4587 C   0  0  0  0  0  0  0  0  0  0  0  0
  -25.3378    3.5100   27.9750 C   0  0  0  0  0  0  0  0  0  0  0  0
  -23.9746    3.2946   28.6732 C   0  0  0  0  0  0  0  0  0  0  0  0
  -23.4363    2.0143   28.5784 C   0  0  0  0  0  0  0  0  0  0  0  0
  -24.1014    1.0183   27.8812 C   0  0  0  0  0  0  0  0  0  0  0  0
  -28.2536    0.6455   25.5615 C   0  0  0  0  0  0  0  0  0  0  0  0
  -29.1932    1.3257   25.4650 O   0  0  0  0  0  0  0  0  0  0  0  0
  -27.8728   -0.0652   24.5566 O   0  0  0  0  0  0  0  0  0  0  0  0
  -25.5215   -0.1898   25.7338 O   0  0  0  0  0  0  0  0  0  0  0  0
  -30.5606    2.3485   30.0856 C   0  0  0  0  0  0  0  0  0  0  0  0
  -30.5498    2.7556   31.1509 O   0  0  0  0  0  0  0  0  0  0  0  0
  -31.1275    2.9825   29.1091 O   0  0  0  0  0  0  0  0  0  0  0  0
  3  7  1  0
  7  8  1  0
  8  9  1  0
  7 15  1  0
 15 16  2  0
 15 17  1  0
  8 18  2  0
  5 19  1  0
 19 20  2  0
 19 21  1  0
  1  2  2  0
  2  6  1  0
  6  5  2  0
  5  4  1  0
  4  3  2  0
  3  1  1  0
  9 10  2  0
 10 11  1  0
 11 12  2  0
 12 13  1  0
 13 14  2  0
 14  9  1  0
M  END

$$$$
