No_2402-gen_results/8p0m/2024-11-26-14-13-15/
     RDKit          3D

 16 16  0  0  0  0  0  0  0  0999 V2000
  -28.1493   -0.8198   28.9079 Cl  0  0  0  0  0  0  0  0  0  0  0  0
  -28.5324   -0.0471   29.7727 C   0  0  0  0  0  0  0  0  0  0  0  0
  -29.6682   -0.0995   30.1894 F   0  0  0  0  0  0  0  0  0  0  0  0
  -27.6716    0.9796   30.3307 C   0  0  0  0  0  0  0  0  0  0  0  0
  -26.5008    1.1766   29.7530 C   0  0  0  0  0  0  0  0  0  0  0  0
  -25.4964    1.0168   29.3938 C   0  0  0  0  0  0  0  0  0  0  0  0
  -24.4078    0.8852   28.6716 C   0  0  0  0  0  0  0  0  0  0  0  0
  -23.8340    1.6320   27.6572 C   0  0  0  0  0  0  0  0  0  0  0  0
  -23.4666   -0.2033   29.1228 C   0  0  0  0  0  0  0  0  0  0  0  0
  -24.6463    2.1041   26.6103 C   0  0  0  0  0  0  0  0  0  0  0  0
  -22.4353    2.0169   27.5952 C   0  0  0  0  0  0  0  0  0  0  0  0
  -21.4647    1.1147   28.1622 C   0  0  0  0  0  0  0  0  0  0  0  0
  -21.9771    0.1158   29.0855 C   0  0  0  0  0  0  0  0  0  0  0  0
  -24.5898    3.3389   26.3722 F   0  0  0  0  0  0  0  0  0  0  0  0
  -25.9758    1.9806   27.0464 F   0  0  0  0  0  0  0  0  0  0  0  0
  -24.4821    1.3864   25.5333 F   0  0  0  0  0  0  0  0  0  0  0  0
  1  2  1  0
  2  3  1  0
  2  4  1  0
  4  5  1  0
  5  6  3  0
  6  7  1  0
  8 10  1  0
 10 14  1  0
 10 15  1  0
 10 16  1  0
  7  8  2  0
  8 11  1  0
 11 12  2  0
 12 13  1  0
 13  9  2  0
  9  7  1  0
M  END

$$$$
