No_2555-gen_results/8p0m/2024-11-26-14-13-15/
     RDKit          3D

 25 28  0  0  0  0  0  0  0  0999 V2000
  -28.0162   -0.8135   28.8779 C   0  0  0  0  0  0  0  0  0  0  0  0
  -27.0636   -0.1190   28.6079 C   0  0  0  0  0  0  0  0  0  0  0  0
  -25.7923   -0.4302   29.0761 C   0  0  0  0  0  0  0  0  0  0  0  0
  -25.5681   -1.2411   29.7572 C   0  0  0  0  0  0  0  0  0  0  0  0
  -26.6114   -2.1840   30.2439 C   0  0  0  0  0  0  0  0  0  0  0  0
  -27.8191   -1.9189   29.8034 C   0  0  0  0  0  0  0  0  0  0  0  0
  -28.8468   -2.7292   30.2056 O   0  0  0  0  0  0  0  0  0  0  0  0
  -29.1821   -2.8431   31.5233 C   0  0  0  0  0  0  0  0  0  0  0  0
  -29.7799   -4.1164   31.7991 C   0  0  0  0  0  0  0  0  0  0  0  0
  -30.1197   -4.3520   33.1683 C   0  0  0  0  0  0  0  0  0  0  0  0
  -29.9721   -3.3333   34.1363 C   0  0  0  0  0  0  0  0  0  0  0  0
  -29.4064   -2.1276   33.7160 C   0  0  0  0  0  0  0  0  0  0  0  0
  -28.9973   -1.8609   32.4409 C   0  0  0  0  0  0  0  0  0  0  0  0
  -27.3160    1.2316   27.4966 Cl  0  0  0  0  0  0  0  0  0  0  0  0
  -23.9154   -1.6787   30.3406 Cl  0  0  0  0  0  0  0  0  0  0  0  0
  -30.7306   -5.6560   33.5438 C   0  0  0  0  0  0  0  0  0  0  0  0
  -30.6522   -6.2495   34.3696 N   0  0  0  0  0  0  0  0  0  0  0  0
  -31.5212   -6.2380   32.3659 C   0  0  0  0  0  0  0  0  0  0  0  0
  -31.9030   -5.6340   31.3058 C   0  0  0  0  0  0  0  0  0  0  0  0
  -30.7868   -4.6097   30.8375 C   0  0  0  0  0  0  0  0  0  0  0  0
  -30.1987   -5.6481   35.5569 C   0  0  0  0  0  0  0  0  0  0  0  0
  -29.7927   -4.2396   35.5388 C   0  0  0  0  0  0  0  0  0  0  0  0
  -29.3429   -3.3829   36.6400 C   0  0  0  0  0  0  0  0  0  0  0  0
  -29.9560   -2.4847   37.0231 O   0  0  0  0  0  0  0  0  0  0  0  0
  -28.1179   -3.8439   37.1065 O   0  0  0  0  0  0  0  0  0  0  0  0
  1  2  1  0
  2  3  2  0
  3  4  1  0
  4  5  2  0
  1  6  2  0
  5  6  1  0
  6  7  1  0
  7  8  1  0
  8  9  2  0
  9 10  1  0
 10 11  2  0
 11 12  1  0
  8 13  1  0
 12 13  2  0
  2 14  1  0
  4 15  1  0
 10 16  1  0
 16 17  2  0
 16 18  1  0
 18 19  2  0
  9 20  1  0
 19 20  1  0
 17 21  1  0
 11 22  1  0
 21 22  2  0
 22 23  1  0
 23 24  2  0
 23 25  1  0
M  END

$$$$
