No_2334-gen_results/8p0m/2024-11-26-14-13-15/
     RDKit          3D

 20 21  0  0  0  0  0  0  0  0999 V2000
  -28.0162   -0.8135   28.8779 C   0  0  0  0  0  0  0  0  0  0  0  0
  -28.4690   -0.7850   29.8287 C   0  0  0  0  0  0  0  0  0  0  0  0
  -28.1816    0.4277   28.1134 C   0  0  0  0  0  0  0  0  0  0  0  0
  -28.9841    1.4155   28.5154 C   0  0  0  0  0  0  0  0  0  0  0  0
  -29.3802    0.1384   30.4612 C   0  0  0  0  0  0  0  0  0  0  0  0
  -29.5415    1.2736   29.7242 C   0  0  0  0  0  0  0  0  0  0  0  0
  -27.4586    0.4934   26.7701 C   0  0  0  0  0  0  0  0  0  0  0  0
  -26.0263    0.3840   26.7617 C   0  0  0  0  0  0  0  0  0  0  0  0
  -25.3148    0.0488   27.8701 C   0  0  0  0  0  0  0  0  0  0  0  0
  -23.9145    0.1729   27.8973 C   0  0  0  0  0  0  0  0  0  0  0  0
  -23.1341   -0.2623   29.0442 C   0  0  0  0  0  0  0  0  0  0  0  0
  -21.7570    0.0338   29.0773 C   0  0  0  0  0  0  0  0  0  0  0  0
  -21.1955    0.8895   28.1309 C   0  0  0  0  0  0  0  0  0  0  0  0
  -22.0217    1.5767   27.2126 C   0  0  0  0  0  0  0  0  0  0  0  0
  -23.3279    1.2728   27.1594 C   0  0  0  0  0  0  0  0  0  0  0  0
  -28.2499    0.5220   25.6461 C   0  0  0  0  0  0  0  0  0  0  0  0
  -25.4458    0.6756   25.4846 C   0  0  0  0  0  0  0  0  0  0  0  0
  -29.1834    0.0957   25.3413 C   0  0  0  0  0  0  0  0  0  0  0  0
  -29.8551    0.2796   24.0581 C   0  0  0  0  0  0  0  0  0  0  0  0
  -29.2204    1.0911   23.2202 C   0  0  0  0  0  0  0  0  0  0  0  0
  3  7  1  0
  7  8  1  0
  8  9  1  0
  7 16  1  0
  8 17  1  0
 16 18  2  3
 18 19  1  0
 19 20  2  0
  9 10  1  0
  1  2  2  0
  2  5  1  0
  5  6  2  0
  6  4  1  0
  4  3  2  0
  3  1  1  0
 10 11  2  0
 11 12  1  0
 12 13  2  0
 13 14  1  0
 14 15  2  0
 15 10  1  0
M  END

$$$$
