No_25-gen_results/8p0m/2024-11-26-14-13-15/
     RDKit          3D

 25 27  0  0  0  0  0  0  0  0999 V2000
  -28.0162   -0.8135   28.8779 C   0  0  0  0  0  0  0  0  0  0  0  0
  -28.4690   -0.7850   29.8287 C   0  0  0  0  0  0  0  0  0  0  0  0
  -28.1960    0.3478   28.0550 C   0  0  0  0  0  0  0  0  0  0  0  0
  -29.0191    1.3501   28.3782 C   0  0  0  0  0  0  0  0  0  0  0  0
  -28.3170   -1.9812   30.8560 C   0  0  0  0  0  0  0  0  0  0  0  0
  -29.5950    1.2859   29.6049 C   0  0  0  0  0  0  0  0  0  0  0  0
  -29.3465    0.2093   30.3749 C   0  0  0  0  0  0  0  0  0  0  0  0
  -27.7056   -1.8008   31.7543 O   0  0  0  0  0  0  0  0  0  0  0  0
  -28.7816   -3.1501   30.4039 O   0  0  0  0  0  0  0  0  0  0  0  0
  -27.4537    0.3618   26.6861 C   0  0  0  0  0  0  0  0  0  0  0  0
  -26.4582    0.9155   26.5182 C   0  0  0  0  0  0  0  0  0  0  0  0
  -25.6776    1.6300   27.5427 C   0  0  0  0  0  0  0  0  0  0  0  0
  -24.3857    2.1984   27.1895 C   0  0  0  0  0  0  0  0  0  0  0  0
  -23.5464    2.8527   28.1287 C   0  0  0  0  0  0  0  0  0  0  0  0
  -23.9472    2.6444   29.4781 C   0  0  0  0  0  0  0  0  0  0  0  0
  -25.1134    2.0606   29.8583 C   0  0  0  0  0  0  0  0  0  0  0  0
  -25.9512    1.5189   28.9019 C   0  0  0  0  0  0  0  0  0  0  0  0
  -25.4619    1.9826   31.3225 C   0  0  0  0  0  0  0  0  0  0  0  0
  -25.9660    2.9548   31.9665 C   0  0  0  0  0  0  0  0  0  0  0  0
  -26.3965    2.8173   33.3204 C   0  0  0  0  0  0  0  0  0  0  0  0
  -25.2683    0.6984   31.9464 C   0  0  0  0  0  0  0  0  0  0  0  0
  -25.5826    0.5716   33.3299 C   0  0  0  0  0  0  0  0  0  0  0  0
  -26.1887    1.6477   33.9828 C   0  0  0  0  0  0  0  0  0  0  0  0
  -30.5684    2.2400   30.1818 C   0  0  0  0  0  0  0  0  0  0  0  0
  -31.0137    2.3687   31.1264 N   0  0  0  0  0  0  0  0  0  0  0  0
  2  5  1  0
  5  8  2  0
  5  9  1  0
  3 10  1  0
 10 11  2  3
 11 12  1  0
 16 18  1  0
  6 24  1  0
 24 25  2  0
 12 13  2  0
 13 14  1  0
 14 15  2  0
 15 16  1  0
 16 17  2  0
 17 12  1  0
 18 19  2  0
 19 20  1  0
 20 23  2  0
 23 22  1  0
 22 21  2  0
 21 18  1  0
  1  2  2  0
  2  7  1  0
  7  6  2  0
  6  4  1  0
  4  3  2  0
  3  1  1  0
M  END

$$$$
