No_2728-gen_results/8p0m/2024-11-26-14-13-15/
     RDKit          3D

 14 15  0  0  0  0  0  0  0  0999 V2000
  -28.0727   -1.2542   28.5316 F   0  0  0  0  0  0  0  0  0  0  0  0
  -27.3591   -0.3792   28.7224 C   0  0  0  0  0  0  0  0  0  0  0  0
  -26.8100    0.1885   27.6513 C   0  0  0  0  0  0  0  0  0  0  0  0
  -27.4896    0.3508   26.4426 C   0  0  0  0  0  0  0  0  0  0  0  0
  -28.0804    1.2032   26.0783 C   0  0  0  0  0  0  0  0  0  0  0  0
  -29.0544    1.0680   25.0652 C   0  0  0  0  0  0  0  0  0  0  0  0
  -28.9709   -0.0357   24.2383 C   0  0  0  0  0  0  0  0  0  0  0  0
  -28.0290   -0.9471   24.5267 C   0  0  0  0  0  0  0  0  0  0  0  0
  -27.1606   -0.8077   25.5589 C   0  0  0  0  0  0  0  0  0  0  0  0
  -25.3584    0.6325   27.6966 C   0  0  0  0  0  0  0  0  0  0  0  0
  -24.6192    1.4046   26.5642 Cl  0  0  0  0  0  0  0  0  0  0  0  0
  -26.9832    0.0664   30.1121 C   0  0  0  0  0  0  0  0  0  0  0  0
  -25.6987    0.3243   30.4064 C   0  0  0  0  0  0  0  0  0  0  0  0
  -24.8890    0.9510   29.1868 C   0  0  0  0  0  0  0  0  0  0  0  0
  1  2  1  0
  3  4  1  0
 10 11  1  0
  2  3  2  0
  3 10  1  0
 10 14  2  0
 14 13  1  0
 13 12  2  0
 12  2  1  0
  4  5  2  0
  5  6  1  0
  6  7  2  0
  7  8  1  0
  8  9  2  0
  9  4  1  0
M  END

$$$$
