No_2773-gen_results/8p0m/2024-11-26-14-13-15/
     RDKit          3D

 11 11  0  0  0  0  0  0  0  0999 V2000
  -28.0162   -0.8135   28.8779 C   0  0  0  0  0  0  0  0  0  0  0  0
  -27.0636   -0.1189   28.6079 C   0  0  0  0  0  0  0  0  0  0  0  0
  -26.9716    0.7139   27.5060 C   0  0  0  0  0  0  0  0  0  0  0  0
  -25.8205    1.4909   27.1160 C   0  0  0  0  0  0  0  0  0  0  0  0
  -24.8579    1.3421   27.6008 C   0  0  0  0  0  0  0  0  0  0  0  0
  -24.6224    0.5295   28.8144 C   0  0  0  0  0  0  0  0  0  0  0  0
  -23.3412    0.3976   29.5010 C   0  0  0  0  0  0  0  0  0  0  0  0
  -25.7444   -0.2202   29.2289 C   0  0  0  0  0  0  0  0  0  0  0  0
  -22.8558   -0.5572   29.4326 F   0  0  0  0  0  0  0  0  0  0  0  0
  -23.6181    0.6757   30.8400 F   0  0  0  0  0  0  0  0  0  0  0  0
  -22.4989    1.4190   29.1287 F   0  0  0  0  0  0  0  0  0  0  0  0
  1  2  2  0
  2  3  1  0
  3  4  1  0
  4  5  1  0
  5  6  1  0
  6  7  1  0
  2  8  1  0
  6  8  1  0
  7  9  1  0
  7 10  1  0
  7 11  1  0
M  END

$$$$
