No_2210-gen_results/8p0m/2024-11-26-14-13-15/
     RDKit          3D

 21 21  0  0  0  0  0  0  0  0999 V2000
  -28.0162   -0.8135   28.8779 C   0  0  0  0  0  0  0  0  0  0  0  0
  -27.0636   -0.1189   28.6079 C   0  0  0  0  0  0  0  0  0  0  0  0
  -25.7923   -0.4302   29.0761 C   0  0  0  0  0  0  0  0  0  0  0  0
  -24.5456    0.3494   28.8225 C   0  0  0  0  0  0  0  0  0  0  0  0
  -24.6586    1.4196   27.8878 C   0  0  0  0  0  0  0  0  0  0  0  0
  -25.9471    1.6811   27.3792 C   0  0  0  0  0  0  0  0  0  0  0  0
  -27.0439    0.9739   27.6871 C   0  0  0  0  0  0  0  0  0  0  0  0
  -27.9736   -1.7264   29.9612 N   0  0  0  0  0  0  0  0  0  0  0  0
  -29.1912   -0.5380   28.5093 O   0  0  0  0  0  0  0  0  0  0  0  0
  -29.0743   -2.5471   30.4575 C   0  0  0  0  0  0  0  0  0  0  0  0
  -23.1998    2.3172   27.5441 P   0  0  0  0  0  0  0  0  0  0  0  0
  -23.4782    3.5079   27.1125 O   0  0  0  0  0  0  0  0  0  0  0  0
  -22.5327    2.4201   28.8914 O   0  0  0  0  0  0  0  0  0  0  0  0
  -22.3749    1.5038   26.5470 O   0  0  0  0  0  0  0  0  0  0  0  0
  -29.4038   -2.1137   31.7049 C   0  0  0  0  0  0  0  0  0  0  0  0
  -28.7982   -1.3042   32.2648 O   0  0  0  0  0  0  0  0  0  0  0  0
  -30.5073   -2.7294   32.1953 F   0  0  0  0  0  0  0  0  0  0  0  0
  -29.3062   -3.5053   29.8205 O   0  0  0  0  0  0  0  0  0  0  0  0
  -28.0716    1.2766   26.9855 O   0  0  0  0  0  0  0  0  0  0  0  0
  -28.0866    1.4936   25.7142 C   0  0  0  0  0  0  0  0  0  0  0  0
  -28.1571    2.5081   25.2802 C   0  0  0  0  0  0  0  0  0  0  0  0
  1  2  1  0
  1  8  1  0
  1  9  2  0
  8 10  1  0
  5 11  1  0
 11 12  1  0
 11 13  1  0
 11 14  2  0
 10 15  1  0
 15 16  1  0
 15 17  1  0
 10 18  2  0
  7 19  1  0
 19 20  1  0
 20 21  2  0
  2  3  2  0
  3  4  1  0
  4  5  2  0
  5  6  1  0
  6  7  2  0
  7  2  1  0
M  END

$$$$
