No_2066-gen_results/8p0m/2024-11-26-14-13-15/
     RDKit          3D

 19 20  0  0  0  0  0  0  0  0999 V2000
  -28.0162   -0.8135   28.8779 C   0  0  0  0  0  0  0  0  0  0  0  0
  -27.0636   -0.1189   28.6079 C   0  0  0  0  0  0  0  0  0  0  0  0
  -25.7647   -0.3897   29.0360 C   0  0  0  0  0  0  0  0  0  0  0  0
  -24.5517    0.4058   28.7646 C   0  0  0  0  0  0  0  0  0  0  0  0
  -23.2300    0.1178   29.2575 C   0  0  0  0  0  0  0  0  0  0  0  0
  -22.1393    0.9427   28.9224 C   0  0  0  0  0  0  0  0  0  0  0  0
  -27.8294   -1.9287   29.8545 C   0  0  0  0  0  0  0  0  0  0  0  0
  -26.5882   -2.3272   30.2682 C   0  0  0  0  0  0  0  0  0  0  0  0
  -25.4565   -1.5432   29.9146 C   0  0  0  0  0  0  0  0  0  0  0  0
  -22.2302    1.9089   27.8723 C   0  0  0  0  0  0  0  0  0  0  0  0
  -24.5538    1.4700   27.7617 C   0  0  0  0  0  0  0  0  0  0  0  0
  -23.4471    2.1666   27.3764 C   0  0  0  0  0  0  0  0  0  0  0  0
  -29.3061   -2.9886   30.3564 Br  0  0  0  0  0  0  0  0  0  0  0  0
  -23.6068    3.1002   26.4113 O   0  0  0  0  0  0  0  0  0  0  0  0
  -27.2020    0.9343   27.7467 O   0  0  0  0  0  0  0  0  0  0  0  0
  -28.4763    1.3188   27.3809 C   0  0  0  0  0  0  0  0  0  0  0  0
  -29.1865    2.1352   28.1375 C   0  0  0  0  0  0  0  0  0  0  0  0
  -28.5389    2.8956   28.9070 O   0  0  0  0  0  0  0  0  0  0  0  0
  -30.3902    2.0133   28.2179 F   0  0  0  0  0  0  0  0  0  0  0  0
  3  4  1  0
  7 13  1  0
 12 14  1  0
  2 15  1  0
 15 16  1  0
 16 17  1  0
 17 18  2  0
 17 19  1  0
  1  2  2  0
  2  3  1  0
  3  9  2  0
  9  8  1  0
  8  7  2  0
  7  1  1  0
  4  5  2  0
  5  6  1  0
  6 10  2  0
 10 12  1  0
 12 11  2  0
 11  4  1  0
M  END

$$$$
