No_292-gen_results/8p0m/2024-11-26-14-13-15/
     RDKit          3D

 20 21  0  0  0  0  0  0  0  0999 V2000
  -28.0162   -0.8135   28.8779 C   0  0  0  0  0  0  0  0  0  0  0  0
  -28.4690   -0.7850   29.8287 C   0  0  0  0  0  0  0  0  0  0  0  0
  -27.1356    0.2359   28.5352 C   0  0  0  0  0  0  0  0  0  0  0  0
  -26.8745    1.2825   29.3982 C   0  0  0  0  0  0  0  0  0  0  0  0
  -28.3613    0.1987   30.9244 C   0  0  0  0  0  0  0  0  0  0  0  0
  -27.5277    1.2234   30.6356 C   0  0  0  0  0  0  0  0  0  0  0  0
  -26.3987    0.2949   27.2279 C   0  0  0  0  0  0  0  0  0  0  0  0
  -26.9306   -0.1351   26.3032 F   0  0  0  0  0  0  0  0  0  0  0  0
  -25.1330    0.6631   27.2119 F   0  0  0  0  0  0  0  0  0  0  0  0
  -29.3438   -1.9134   30.3017 N   0  0  0  0  0  0  0  0  0  0  0  0
  -30.5847   -1.8547   30.3964 C   0  0  0  0  0  0  0  0  0  0  0  0
  -31.1831   -0.8973   30.1391 O   0  0  0  0  0  0  0  0  0  0  0  0
  -31.2087   -3.1468   30.8332 C   0  0  0  0  0  0  0  0  0  0  0  0
  -28.5630   -3.1840   30.5929 C   0  0  0  0  0  0  0  0  0  0  0  0
  -27.2859   -3.2042   30.4697 O   0  0  0  0  0  0  0  0  0  0  0  0
  -29.2640   -4.3101   30.9579 C   0  0  0  0  0  0  0  0  0  0  0  0
  -30.4020   -4.2804   31.0391 C   0  0  0  0  0  0  0  0  0  0  0  0
  -32.6977   -3.1069   30.9118 C   0  0  0  0  0  0  0  0  0  0  0  0
  -33.3405   -3.8728   30.8743 O   0  0  0  0  0  0  0  0  0  0  0  0
  -33.1019   -1.9315   31.4950 O   0  0  0  0  0  0  0  0  0  0  0  0
  3  7  1  0
  7  8  1  0
  7  9  1  0
  2 10  1  0
 10 11  1  0
 11 12  2  0
 11 13  1  0
 10 14  1  0
 14 15  2  0
 14 16  1  0
 13 18  1  0
 18 19  2  0
 18 20  1  0
 13 17  1  0
 17 16  1  0
  1  2  2  0
  2  5  1  0
  5  6  2  0
  6  4  1  0
  4  3  2  0
  3  1  1  0
M  END

$$$$
