No_2349-gen_results/8p0m/2024-11-26-14-13-15/
     RDKit          3D

 18 20  0  0  0  0  0  0  0  0999 V2000
  -28.0162   -0.8135   28.8779 C   0  0  0  0  0  0  0  0  0  0  0  0
  -28.4690   -0.7850   29.8287 C   0  0  0  0  0  0  0  0  0  0  0  0
  -27.1356    0.2359   28.5352 C   0  0  0  0  0  0  0  0  0  0  0  0
  -26.3351    0.2900   27.2835 C   0  0  0  0  0  0  0  0  0  0  0  0
  -28.3692    0.1957   30.9236 C   0  0  0  0  0  0  0  0  0  0  0  0
  -27.5158    1.2655   30.6540 C   0  0  0  0  0  0  0  0  0  0  0  0
  -26.8411    1.2942   29.4761 C   0  0  0  0  0  0  0  0  0  0  0  0
  -25.3615    0.7752   26.9671 C   0  0  0  0  0  0  0  0  0  0  0  0
  -24.5497    1.3390   27.4391 C   0  0  0  0  0  0  0  0  0  0  0  0
  -23.3176    1.9567   26.8904 C   0  0  0  0  0  0  0  0  0  0  0  0
  -22.2351    2.5092   27.6291 C   0  0  0  0  0  0  0  0  0  0  0  0
  -21.9400    1.5994   28.6591 C   0  0  0  0  0  0  0  0  0  0  0  0
  -22.8060    0.8196   29.3947 C   0  0  0  0  0  0  0  0  0  0  0  0
  -24.0306    0.6292   28.8411 C   0  0  0  0  0  0  0  0  0  0  0  0
  -23.6098    2.5703   25.7157 N   0  0  0  0  0  0  0  0  0  0  0  0
  -25.2073    0.8353   25.4522 C   0  0  0  0  0  0  0  0  0  0  0  0
  -24.4828    1.8657   24.9289 C   0  0  0  0  0  0  0  0  0  0  0  0
  -27.2216   -0.4281   26.4003 O   0  0  0  0  0  0  0  0  0  0  0  0
  3  4  1  0
  4 18  1  0
  4  8  1  0
  8  9  1  0
 10 15  1  0
 15 17  2  0
 17 16  1  0
 16  8  2  0
  9 10  1  0
 10 11  2  0
 11 12  1  0
 12 13  2  0
 13 14  1  0
 14  9  2  0
  1  2  2  0
  2  5  1  0
  5  6  2  0
  6  7  1  0
  7  3  2  0
  3  1  1  0
M  END

$$$$
