No_2877-gen_results/8p0m/2024-11-26-14-13-15/
     RDKit          3D

 28 29  0  0  0  0  0  0  0  0999 V2000
  -28.0162   -0.8135   28.8779 C   0  0  0  0  0  0  0  0  0  0  0  0
  -28.4690   -0.7850   29.8287 C   0  0  0  0  0  0  0  0  0  0  0  0
  -26.5455   -0.8762   28.8500 C   0  0  0  0  0  0  0  0  0  0  0  0
  -25.8041   -1.0324   30.0571 C   0  0  0  0  0  0  0  0  0  0  0  0
  -27.9437   -0.9869   31.2075 C   0  0  0  0  0  0  0  0  0  0  0  0
  -26.5825   -1.0386   31.2231 C   0  0  0  0  0  0  0  0  0  0  0  0
  -24.1543   -1.1143   30.0877 Cl  0  0  0  0  0  0  0  0  0  0  0  0
  -30.0979   -0.7294   29.8876 C   0  0  0  0  0  0  0  0  0  0  0  0
  -30.6814    0.0005   29.1534 O   0  0  0  0  0  0  0  0  0  0  0  0
  -30.7541   -1.4838   30.7470 O   0  0  0  0  0  0  0  0  0  0  0  0
  -25.7508   -0.8285   27.7142 O   0  0  0  0  0  0  0  0  0  0  0  0
  -25.4053    0.2238   27.3363 C   0  0  0  0  0  0  0  0  0  0  0  0
  -25.9385    0.7000   26.0437 C   0  0  0  0  0  0  0  0  0  0  0  0
  -24.2207    0.9166   27.7735 C   0  0  0  0  0  0  0  0  0  0  0  0
  -23.6657    2.0388   27.1078 C   0  0  0  0  0  0  0  0  0  0  0  0
  -25.3532    1.8024   25.4031 C   0  0  0  0  0  0  0  0  0  0  0  0
  -24.2085    2.4729   25.9455 C   0  0  0  0  0  0  0  0  0  0  0  0
  -22.6126    2.5682   27.6937 F   0  0  0  0  0  0  0  0  0  0  0  0
  -31.9471   -1.9891   30.4452 C   0  0  0  0  0  0  0  0  0  0  0  0
  -32.2308   -3.2498   31.1037 C   0  0  0  0  0  0  0  0  0  0  0  0
  -33.1483   -3.8460   30.8924 O   0  0  0  0  0  0  0  0  0  0  0  0
  -31.3704   -3.7520   31.9933 O   0  0  0  0  0  0  0  0  0  0  0  0
  -32.8253   -1.2239   30.2792 O   0  0  0  0  0  0  0  0  0  0  0  0
  -31.0011   -5.0182   32.1333 C   0  0  0  0  0  0  0  0  0  0  0  0
  -29.8490   -5.4049   31.5133 C   0  0  0  0  0  0  0  0  0  0  0  0
  -29.7143   -6.3296   30.8968 O   0  0  0  0  0  0  0  0  0  0  0  0
  -28.6788   -4.6619   31.8132 O   0  0  0  0  0  0  0  0  0  0  0  0
  -26.8815    0.0600   25.5547 F   0  0  0  0  0  0  0  0  0  0  0  0
  4  7  1  0
  2  8  1  0
  8  9  2  0
  8 10  1  0
  3 11  1  0
 11 12  1  0
 15 18  1  0
 10 19  1  0
 19 20  1  0
 20 21  2  0
 20 22  1  0
 19 23  2  0
 22 24  1  0
 24 25  1  0
 25 26  2  0
 25 27  1  0
 13 28  1  0
  1  2  2  0
  2  5  1  0
  5  6  2  0
  6  4  1  0
  4  3  2  0
  3  1  1  0
 12 13  2  0
 13 16  1  0
 16 17  2  0
 17 15  1  0
 15 14  2  0
 14 12  1  0
M  END

$$$$
