No_2668-gen_results/8p0m/2024-11-26-14-13-15/
     RDKit          3D

 18 19  0  0  0  0  0  0  0  0999 V2000
  -28.0162   -0.8135   28.8779 C   0  0  0  0  0  0  0  0  0  0  0  0
  -27.0636   -0.1190   28.6079 C   0  0  0  0  0  0  0  0  0  0  0  0
  -25.7923   -0.4302   29.0761 C   0  0  0  0  0  0  0  0  0  0  0  0
  -25.2700   -0.0487   30.0123 C   0  0  0  0  0  0  0  0  0  0  0  0
  -28.5191   -0.6302   30.0918 C   0  0  0  0  0  0  0  0  0  0  0  0
  -27.6457   -0.5646   31.3559 C   0  0  0  0  0  0  0  0  0  0  0  0
  -26.2550   -0.2092   31.4004 C   0  0  0  0  0  0  0  0  0  0  0  0
  -29.8542   -1.0864   30.5161 C   0  0  0  0  0  0  0  0  0  0  0  0
  -30.7935   -0.4319   29.7380 C   0  0  0  0  0  0  0  0  0  0  0  0
  -30.6654    0.6039   29.2705 O   0  0  0  0  0  0  0  0  0  0  0  0
  -31.6987   -1.3332   29.1327 O   0  0  0  0  0  0  0  0  0  0  0  0
  -27.0674    0.7119   27.3645 C   0  0  0  0  0  0  0  0  0  0  0  0
  -26.1942    0.6581   26.3533 C   0  0  0  0  0  0  0  0  0  0  0  0
  -26.1910    1.3739   25.2689 C   0  0  0  0  0  0  0  0  0  0  0  0
  -28.1850    1.5865   27.0704 C   0  0  0  0  0  0  0  0  0  0  0  0
  -28.2779    2.3643   25.9951 C   0  0  0  0  0  0  0  0  0  0  0  0
  -27.2199    2.2281   25.0219 C   0  0  0  0  0  0  0  0  0  0  0  0
  -30.1143   -1.8417   31.4803 O   0  0  0  0  0  0  0  0  0  0  0  0
  1  2  1  0
  2  3  1  0
  3  4  2  0
  1  5  1  0
  5  6  1  0
  4  7  1  0
  6  7  2  0
  5  8  1  0
  8  9  1  0
  9 10  2  0
  9 11  1  0
  2 12  1  0
  8 18  2  0
 12 13  2  0
 13 14  1  0
 14 17  2  0
 17 16  1  0
 16 15  2  0
 15 12  1  0
M  END

$$$$
