No_2608-gen_results/8p0m/2024-11-26-14-13-15/
     RDKit          3D

 35 37  0  0  0  0  0  0  0  0999 V2000
  -28.0162   -0.8135   28.8779 C   0  0  0  0  0  0  0  0  0  0  0  0
  -28.4690   -0.7850   29.8287 C   0  0  0  0  0  0  0  0  0  0  0  0
  -27.0871    0.2903   28.6377 C   0  0  0  0  0  0  0  0  0  0  0  0
  -26.2516    0.4114   27.4223 C   0  0  0  0  0  0  0  0  0  0  0  0
  -28.3913    0.1041   30.9805 C   0  0  0  0  0  0  0  0  0  0  0  0
  -27.5332    1.1666   30.7866 C   0  0  0  0  0  0  0  0  0  0  0  0
  -26.8281    1.2557   29.6454 C   0  0  0  0  0  0  0  0  0  0  0  0
  -26.2895   -0.3207   26.7007 F   0  0  0  0  0  0  0  0  0  0  0  0
  -24.9064    0.6296   27.8498 F   0  0  0  0  0  0  0  0  0  0  0  0
  -26.5252    1.7004   26.8049 F   0  0  0  0  0  0  0  0  0  0  0  0
  -29.4614   -2.0180   30.2134 C   0  0  0  0  0  0  0  0  0  0  0  0
  -30.4920   -1.8765   29.8137 O   0  0  0  0  0  0  0  0  0  0  0  0
  -29.0232   -3.0314   30.8838 O   0  0  0  0  0  0  0  0  0  0  0  0
  -27.3105    2.1837   31.8405 C   0  0  0  0  0  0  0  0  0  0  0  0
  -26.5756    3.0633   31.7359 C   0  0  0  0  0  0  0  0  0  0  0  0
  -26.1641    4.0633   32.2693 C   0  0  0  0  0  0  0  0  0  0  0  0
  -25.0819    5.0513   32.0028 C   0  0  0  0  0  0  0  0  0  0  0  0
  -24.6998    6.1177   32.7915 C   0  0  0  0  0  0  0  0  0  0  0  0
  -25.3702    6.3669   33.9827 C   0  0  0  0  0  0  0  0  0  0  0  0
  -26.3577    5.5124   34.3576 C   0  0  0  0  0  0  0  0  0  0  0  0
  -26.7154    4.4570   33.6488 C   0  0  0  0  0  0  0  0  0  0  0  0
  -28.1192    2.0482   33.0566 C   0  0  0  0  0  0  0  0  0  0  0  0
  -27.8144    1.7501   34.1230 C   0  0  0  0  0  0  0  0  0  0  0  0
  -28.6775    1.1328   35.0478 C   0  0  0  0  0  0  0  0  0  0  0  0
  -29.9843    0.9515   34.6552 C   0  0  0  0  0  0  0  0  0  0  0  0
  -30.4098    1.2834   33.4245 C   0  0  0  0  0  0  0  0  0  0  0  0
  -29.5186    1.7446   32.5118 C   0  0  0  0  0  0  0  0  0  0  0  0
  -31.7947    0.9981   33.0215 C   0  0  0  0  0  0  0  0  0  0  0  0
  -32.6659    0.9111   33.5561 F   0  0  0  0  0  0  0  0  0  0  0  0
  -31.9637    1.8591   31.9415 F   0  0  0  0  0  0  0  0  0  0  0  0
  -31.6085   -0.2488   32.2493 F   0  0  0  0  0  0  0  0  0  0  0  0
  -28.2571    0.8473   36.4696 C   0  0  0  0  0  0  0  0  0  0  0  0
  -28.7295   -0.0794   37.0183 O   0  0  0  0  0  0  0  0  0  0  0  0
  -27.3335    1.5661   36.9332 O   0  0  0  0  0  0  0  0  0  0  0  0
  -24.9709    7.4443   34.7440 O   0  0  0  0  0  0  0  0  0  0  0  0
  3  4  1  0
  4  8  1  0
  4  9  1  0
  4 10  1  0
  2 11  1  0
 11 12  2  0
 11 13  1  0
  6 14  1  0
 14 15  2  3
 15 16  1  0
 14 22  1  0
 26 28  1  0
 28 29  1  0
 28 30  1  0
 28 31  1  0
 24 32  1  0
 32 33  1  0
 32 34  2  0
 19 35  1  0
 22 23  2  0
 23 24  1  0
 24 25  2  0
 25 26  1  0
 26 27  2  0
 27 22  1  0
  1  2  2  0
  2  5  1  0
  5  6  2  0
  6  7  1  0
  7  3  2  0
  3  1  1  0
 16 17  2  0
 17 18  1  0
 18 19  2  0
 19 20  1  0
 20 21  2  0
 21 16  1  0
M  END

$$$$
