No_2553-gen_results/8p0m/2024-11-26-14-13-15/
     RDKit          3D

 13 14  0  0  0  0  0  0  0  0999 V2000
  -28.0162   -0.8135   28.8779 C   0  0  0  0  0  0  0  0  0  0  0  0
  -27.0636   -0.1189   28.6079 C   0  0  0  0  0  0  0  0  0  0  0  0
  -26.9716    0.7139   27.5060 C   0  0  0  0  0  0  0  0  0  0  0  0
  -28.1053    0.7744   26.6421 C   0  0  0  0  0  0  0  0  0  0  0  0
  -29.2008    0.1044   27.0527 C   0  0  0  0  0  0  0  0  0  0  0  0
  -29.2096   -0.6029   28.1853 C   0  0  0  0  0  0  0  0  0  0  0  0
  -30.3702    0.2264   26.1604 C   0  0  0  0  0  0  0  0  0  0  0  0
  -30.2991    0.2342   24.9383 N   0  0  0  0  0  0  0  0  0  0  0  0
  -31.6954    0.1229   26.7715 C   0  0  0  0  0  0  0  0  0  0  0  0
  -25.5068   -0.2507   29.5460 Cl  0  0  0  0  0  0  0  0  0  0  0  0
  -32.7573   -0.0065   25.9406 C   0  0  0  0  0  0  0  0  0  0  0  0
  -31.3361    0.1825   24.0532 C   0  0  0  0  0  0  0  0  0  0  0  0
  -32.5958    0.0841   24.5899 C   0  0  0  0  0  0  0  0  0  0  0  0
  5  7  1  0
  2 10  1  0
  1  2  2  0
  2  3  1  0
  3  4  2  0
  4  5  1  0
  5  6  2  0
  6  1  1  0
  7  8  2  0
  8 12  1  0
 12 13  2  0
 13 11  1  0
 11  9  2  0
  9  7  1  0
M  END

$$$$
