No_2289-gen_results/8p0m/2024-11-26-14-13-15/
     RDKit          3D

 19 20  0  0  0  0  0  0  0  0999 V2000
  -28.0162   -0.8135   28.8779 C   0  0  0  0  0  0  0  0  0  0  0  0
  -27.0636   -0.1190   28.6079 C   0  0  0  0  0  0  0  0  0  0  0  0
  -27.0010    0.6913   27.4910 C   0  0  0  0  0  0  0  0  0  0  0  0
  -25.8548    1.4825   27.0830 C   0  0  0  0  0  0  0  0  0  0  0  0
  -24.6901    1.4526   27.8807 C   0  0  0  0  0  0  0  0  0  0  0  0
  -24.7379    0.6010   29.0416 C   0  0  0  0  0  0  0  0  0  0  0  0
  -25.8234   -0.1688   29.3887 C   0  0  0  0  0  0  0  0  0  0  0  0
  -29.2252   -0.0469   29.2805 C   0  0  0  0  0  0  0  0  0  0  0  0
  -30.3126   -0.8267   29.7606 C   0  0  0  0  0  0  0  0  0  0  0  0
  -30.5247   -0.8786   30.9749 C   0  0  0  0  0  0  0  0  0  0  0  0
  -23.5153    2.2034   27.5435 C   0  0  0  0  0  0  0  0  0  0  0  0
  -22.5014    2.1751   28.3537 N   0  0  0  0  0  0  0  0  0  0  0  0
  -23.3173    2.5924   26.3196 O   0  0  0  0  0  0  0  0  0  0  0  0
  -30.0977    0.2121   31.8417 C   0  0  0  0  0  0  0  0  0  0  0  0
  -29.3774    1.2288   31.3013 C   0  0  0  0  0  0  0  0  0  0  0  0
  -29.4874    1.1571   28.7521 N   0  0  0  0  0  0  0  0  0  0  0  0
  -29.2435    1.8364   30.1576 C   0  0  0  0  0  0  0  0  0  0  0  0
  -29.9271    1.6266   27.7254 C   0  0  0  0  0  0  0  0  0  0  0  0
  -29.7867    2.9635   27.6479 C   0  0  0  0  0  0  0  0  0  0  0  0
  1  2  1  0
  1  8  1  0
  8  9  1  0
  9 10  2  0
  5 11  1  0
 11 12  1  0
 11 13  2  0
 10 14  1  0
 14 15  2  0
  8 16  1  0
 15 17  1  0
 16 17  1  0
 16 18  1  0
 18 19  2  0
  2  3  2  0
  3  4  1  0
  4  5  2  0
  5  6  1  0
  6  7  2  0
  7  2  1  0
M  END

$$$$
