No_2603-gen_results/8p0m/2024-11-26-14-13-15/
     RDKit          3D

 35 37  0  0  0  0  0  0  0  0999 V2000
  -28.0162   -0.8135   28.8779 C   0  0  0  0  0  0  0  0  0  0  0  0
  -27.0636   -0.1189   28.6079 C   0  0  0  0  0  0  0  0  0  0  0  0
  -26.9287    1.1713   29.0083 C   0  0  0  0  0  0  0  0  0  0  0  0
  -25.7702    2.0341   28.6884 C   0  0  0  0  0  0  0  0  0  0  0  0
  -24.7141    1.4431   27.9188 C   0  0  0  0  0  0  0  0  0  0  0  0
  -24.8590    0.0783   27.5836 C   0  0  0  0  0  0  0  0  0  0  0  0
  -25.9647   -0.6606   27.9164 C   0  0  0  0  0  0  0  0  0  0  0  0
  -27.9820   -1.6112   30.1028 N   0  0  0  0  0  0  0  0  0  0  0  0
  -23.3430    2.2983   27.5045 Cl  0  0  0  0  0  0  0  0  0  0  0  0
  -29.2133   -0.4311   28.6663 O   0  0  0  0  0  0  0  0  0  0  0  0
  -29.0170   -2.4660   30.6323 C   0  0  0  0  0  0  0  0  0  0  0  0
  -26.6579   -2.0012   30.7017 C   0  0  0  0  0  0  0  0  0  0  0  0
  -29.3719   -2.0970   31.8943 C   0  0  0  0  0  0  0  0  0  0  0  0
  -29.5775   -3.1775   32.5987 O   0  0  0  0  0  0  0  0  0  0  0  0
  -29.3639   -0.9691   32.3499 O   0  0  0  0  0  0  0  0  0  0  0  0
  -25.6235    3.4556   29.1021 C   0  0  0  0  0  0  0  0  0  0  0  0
  -25.7187    4.3215   28.1958 O   0  0  0  0  0  0  0  0  0  0  0  0
  -25.8611    3.6963   30.3423 O   0  0  0  0  0  0  0  0  0  0  0  0
  -26.7523    4.4803   30.7722 C   0  0  0  0  0  0  0  0  0  0  0  0
  -27.7379    4.0832   31.4002 C   0  0  0  0  0  0  0  0  0  0  0  0
  -27.5823    3.2947   32.4260 N   0  0  0  0  0  0  0  0  0  0  0  0
  -28.2310    3.1623   33.4893 C   0  0  0  0  0  0  0  0  0  0  0  0
  -29.2738    3.7597   33.7529 C   0  0  0  0  0  0  0  0  0  0  0  0
  -29.7721    4.5784   32.6762 C   0  0  0  0  0  0  0  0  0  0  0  0
  -28.9611    4.8898   31.5598 C   0  0  0  0  0  0  0  0  0  0  0  0
  -26.3373    2.3622   32.3274 C   0  0  0  0  0  0  0  0  0  0  0  0
  -25.2067    2.6260   33.1751 C   0  0  0  0  0  0  0  0  0  0  0  0
  -26.8920    0.8788   32.8591 C   0  0  0  0  0  0  0  0  0  0  0  0
  -25.6748    0.0887   33.1884 C   0  0  0  0  0  0  0  0  0  0  0  0
  -24.7244    0.1403   32.2035 C   0  0  0  0  0  0  0  0  0  0  0  0
  -23.8388   -1.0292   32.0898 C   0  0  0  0  0  0  0  0  0  0  0  0
  -22.9146   -1.0602   31.0126 C   0  0  0  0  0  0  0  0  0  0  0  0
  -22.6356    0.1304   30.2607 C   0  0  0  0  0  0  0  0  0  0  0  0
  -23.3089    1.3167   30.6312 C   0  0  0  0  0  0  0  0  0  0  0  0
  -24.3570    1.2710   31.5234 C   0  0  0  0  0  0  0  0  0  0  0  0
  1  2  1  0
  1  8  1  0
  5  9  1  0
  1 10  2  0
  8 11  1  0
  8 12  1  0
 11 13  1  0
 13 14  2  0
 13 15  1  0
  4 16  1  0
 16 17  2  0
 16 18  1  0
 18 19  1  0
 19 20  1  0
 20 21  1  0
 21 22  1  0
 23 24  1  0
 20 25  1  0
 21 26  1  0
 26 27  1  0
 26 28  1  0
 28 29  1  0
 29 30  1  0
 25 24  1  0
 23 22  1  0
  2  3  2  0
  3  4  1  0
  4  5  2  0
  5  6  1  0
  6  7  2  0
  7  2  1  0
 30 31  2  0
 31 32  1  0
 32 33  2  0
 33 34  1  0
 34 35  2  0
 35 30  1  0
M  END

$$$$
