No_2018-gen_results/8p0m/2024-11-26-14-13-15/
     RDKit          3D

 18 19  0  0  0  0  0  0  0  0999 V2000
  -28.0162   -0.8135   28.8779 C   0  0  0  0  0  0  0  0  0  0  0  0
  -28.4690   -0.7850   29.8287 C   0  0  0  0  0  0  0  0  0  0  0  0
  -26.5042   -0.7777   28.8766 C   0  0  0  0  0  0  0  0  0  0  0  0
  -25.6540   -0.6597   27.7191 C   0  0  0  0  0  0  0  0  0  0  0  0
  -27.9180   -0.9374   31.1824 C   0  0  0  0  0  0  0  0  0  0  0  0
  -26.5424   -0.9399   31.2606 C   0  0  0  0  0  0  0  0  0  0  0  0
  -25.7832   -0.8935   30.1201 C   0  0  0  0  0  0  0  0  0  0  0  0
  -25.9259    0.2819   26.7445 C   0  0  0  0  0  0  0  0  0  0  0  0
  -25.6258    1.4719   26.8191 C   0  0  0  0  0  0  0  0  0  0  0  0
  -25.9389    2.3920   25.7413 C   0  0  0  0  0  0  0  0  0  0  0  0
  -26.7522    1.9284   24.7422 C   0  0  0  0  0  0  0  0  0  0  0  0
  -26.7836   -0.0169   25.6158 C   0  0  0  0  0  0  0  0  0  0  0  0
  -27.1275    0.7425   24.6874 C   0  0  0  0  0  0  0  0  0  0  0  0
  -30.0556   -0.7370   29.8294 C   0  0  0  0  0  0  0  0  0  0  0  0
  -30.7679   -1.4953   30.2852 O   0  0  0  0  0  0  0  0  0  0  0  0
  -30.5286    0.2822   29.1629 O   0  0  0  0  0  0  0  0  0  0  0  0
  -24.6746   -1.4646   27.6410 O   0  0  0  0  0  0  0  0  0  0  0  0
  -28.2847    0.0100   23.4330 Br  0  0  0  0  0  0  0  0  0  0  0  0
  3  4  1  0
  4  8  1  0
  2 14  1  0
 14 15  1  0
 14 16  2  0
  4 17  2  0
 13 18  1  0
  1  2  2  0
  2  5  1  0
  5  6  2  0
  6  7  1  0
  7  3  2  0
  3  1  1  0
  8  9  2  0
  9 10  1  0
 10 11  2  0
 11 13  1  0
 13 12  2  0
 12  8  1  0
M  END

$$$$
