No_2764-gen_results/8p0m/2024-11-26-14-13-15/
     RDKit          3D

 35 39  0  0  0  0  0  0  0  0999 V2000
  -28.0162   -0.8135   28.8779 C   0  0  0  0  0  0  0  0  0  0  0  0
  -27.0636   -0.1189   28.6079 C   0  0  0  0  0  0  0  0  0  0  0  0
  -25.7647   -0.3897   29.0360 C   0  0  0  0  0  0  0  0  0  0  0  0
  -24.5516    0.4058   28.7646 C   0  0  0  0  0  0  0  0  0  0  0  0
  -23.2300    0.1178   29.2575 C   0  0  0  0  0  0  0  0  0  0  0  0
  -22.1393    0.9427   28.9224 C   0  0  0  0  0  0  0  0  0  0  0  0
  -27.8294   -1.9287   29.8545 C   0  0  0  0  0  0  0  0  0  0  0  0
  -26.5882   -2.3272   30.2682 C   0  0  0  0  0  0  0  0  0  0  0  0
  -25.4565   -1.5432   29.9146 C   0  0  0  0  0  0  0  0  0  0  0  0
  -22.2302    1.9089   27.8723 C   0  0  0  0  0  0  0  0  0  0  0  0
  -24.5538    1.4700   27.7617 C   0  0  0  0  0  0  0  0  0  0  0  0
  -23.4471    2.1666   27.3764 C   0  0  0  0  0  0  0  0  0  0  0  0
  -28.9842   -2.7701   30.2567 C   0  0  0  0  0  0  0  0  0  0  0  0
  -28.8938   -3.9813   30.2708 O   0  0  0  0  0  0  0  0  0  0  0  0
  -30.0521   -2.2192   30.6347 O   0  0  0  0  0  0  0  0  0  0  0  0
  -23.6069    3.0980   26.4080 O   0  0  0  0  0  0  0  0  0  0  0  0
  -30.3039   -1.1675   30.9642 C   0  0  0  0  0  0  0  0  0  0  0  0
  -29.9893   -0.7782   32.2470 C   0  0  0  0  0  0  0  0  0  0  0  0
  -30.3561   -1.3812   33.2981 C   0  0  0  0  0  0  0  0  0  0  0  0
  -29.9290   -1.0830   34.6580 C   0  0  0  0  0  0  0  0  0  0  0  0
  -29.0297   -0.6139   34.8265 C   0  0  0  0  0  0  0  0  0  0  0  0
  -28.7555    0.0711   32.4581 C   0  0  0  0  0  0  0  0  0  0  0  0
  -28.3036    0.2546   33.8093 C   0  0  0  0  0  0  0  0  0  0  0  0
  -31.0813   -0.1445   30.2741 C   0  0  0  0  0  0  0  0  0  0  0  0
  -31.0598    1.0970   30.4979 N   0  0  0  0  0  0  0  0  0  0  0  0
  -31.5638    2.0931   29.7865 C   0  0  0  0  0  0  0  0  0  0  0  0
  -31.8873   -0.5772   29.2050 C   0  0  0  0  0  0  0  0  0  0  0  0
  -32.4496    0.3669   28.3266 C   0  0  0  0  0  0  0  0  0  0  0  0
  -32.3423    1.7353   28.7116 C   0  0  0  0  0  0  0  0  0  0  0  0
  -32.7412    2.8117   27.8638 C   0  0  0  0  0  0  0  0  0  0  0  0
  -33.1656    2.5645   26.7136 C   0  0  0  0  0  0  0  0  0  0  0  0
  -33.7063    3.6067   25.8798 C   0  0  0  0  0  0  0  0  0  0  0  0
  -33.6829    4.9706   26.3578 C   0  0  0  0  0  0  0  0  0  0  0  0
  -33.1698    5.1966   27.6013 C   0  0  0  0  0  0  0  0  0  0  0  0
  -32.7240    4.1853   28.3589 C   0  0  0  0  0  0  0  0  0  0  0  0
  3  4  1  0
  4  5  1  0
  6 10  1  0
  4 11  1  0
 10 12  1  0
 11 12  1  0
  7 13  1  0
 13 14  2  0
 13 15  1  0
 12 16  2  0
 15 17  1  0
 17 18  1  0
 17 24  1  0
 29 30  1  0
  6  5  1  0
  1  2  2  0
  2  3  1  0
  3  9  2  0
  9  8  1  0
  8  7  2  0
  7  1  1  0
 24 25  2  0
 25 26  1  0
 26 29  2  0
 29 28  1  0
 28 27  2  0
 27 24  1  0
 30 31  2  0
 31 32  1  0
 32 33  2  0
 33 34  1  0
 34 35  2  0
 35 30  1  0
 18 19  2  0
 19 20  1  0
 20 21  2  0
 21 23  1  0
 23 22  2  0
 22 18  1  0
M  END

$$$$
