No_2923-gen_results/8p0m/2024-11-26-14-13-15/
     RDKit          3D

 12 12  0  0  0  0  0  0  0  0999 V2000
  -28.0162   -0.8135   28.8779 C   0  0  0  0  0  0  0  0  0  0  0  0
  -27.0636   -0.1189   28.6079 C   0  0  0  0  0  0  0  0  0  0  0  0
  -27.0010    0.6913   27.4910 C   0  0  0  0  0  0  0  0  0  0  0  0
  -25.7770    1.0214   26.9135 C   0  0  0  0  0  0  0  0  0  0  0  0
  -24.5088    0.7364   27.5686 C   0  0  0  0  0  0  0  0  0  0  0  0
  -24.5930   -0.0361   28.7390 C   0  0  0  0  0  0  0  0  0  0  0  0
  -25.8114   -0.4771   29.1584 C   0  0  0  0  0  0  0  0  0  0  0  0
  -28.6413   -0.4024   30.1937 C   0  0  0  0  0  0  0  0  0  0  0  0
  -28.5035    0.6288   30.6408 N   0  0  0  0  0  0  0  0  0  0  0  0
  -28.8854    1.7452   30.2367 C   0  0  0  0  0  0  0  0  0  0  0  0
  -28.4781    2.8470   30.4273 Cl  0  0  0  0  0  0  0  0  0  0  0  0
  -29.8443    1.5252   29.2544 O   0  0  0  0  0  0  0  0  0  0  0  0
  1  2  1  0
  1  8  1  0
  8  9  1  0
  9 10  1  0
 10 11  1  0
 10 12  2  0
  2  3  2  0
  3  4  1  0
  4  5  2  0
  5  6  1  0
  6  7  2  0
  7  2  1  0
M  END

$$$$
