No_2324-gen_results/8p0m/2024-11-26-14-13-15/
     RDKit          3D

 24 26  0  0  0  0  0  0  0  0999 V2000
  -28.0162   -0.8135   28.8779 C   0  0  0  0  0  0  0  0  0  0  0  0
  -28.4690   -0.7850   29.8287 C   0  0  0  0  0  0  0  0  0  0  0  0
  -26.5455   -0.8762   28.8500 C   0  0  0  0  0  0  0  0  0  0  0  0
  -25.8041   -1.0324   30.0571 C   0  0  0  0  0  0  0  0  0  0  0  0
  -27.9437   -0.9869   31.2075 C   0  0  0  0  0  0  0  0  0  0  0  0
  -26.5825   -1.0386   31.2231 C   0  0  0  0  0  0  0  0  0  0  0  0
  -29.9086   -0.7397   29.8642 F   0  0  0  0  0  0  0  0  0  0  0  0
  -24.3767   -1.0979   30.0689 C   0  0  0  0  0  0  0  0  0  0  0  0
  -23.6966    0.1795   30.0897 C   0  0  0  0  0  0  0  0  0  0  0  0
  -24.0007    1.2614   30.5957 C   0  0  0  0  0  0  0  0  0  0  0  0
  -23.3510    2.3969   30.3323 N   0  0  0  0  0  0  0  0  0  0  0  0
  -22.4198    0.3102   29.2843 C   0  0  0  0  0  0  0  0  0  0  0  0
  -21.9142    1.3774   28.9355 N   0  0  0  0  0  0  0  0  0  0  0  0
  -22.4134    2.5175   29.4838 C   0  0  0  0  0  0  0  0  0  0  0  0
  -25.7239   -0.7622   27.5880 C   0  0  0  0  0  0  0  0  0  0  0  0
  -25.5519    0.6193   27.0040 C   0  0  0  0  0  0  0  0  0  0  0  0
  -26.0470    1.0369   26.0821 C   0  0  0  0  0  0  0  0  0  0  0  0
  -25.8428    2.4188   25.6596 C   0  0  0  0  0  0  0  0  0  0  0  0
  -24.8681    3.2299   26.3403 C   0  0  0  0  0  0  0  0  0  0  0  0
  -24.1995    2.6394   27.4198 C   0  0  0  0  0  0  0  0  0  0  0  0
  -24.5074    1.4050   27.8530 C   0  0  0  0  0  0  0  0  0  0  0  0
  -23.5339    0.7692   27.5804 N   0  0  0  0  0  0  0  0  0  0  0  0
  -22.1145   -0.8207   28.7376 O   0  0  0  0  0  0  0  0  0  0  0  0
  -22.7265    1.3248   26.5676 C   0  0  0  0  0  0  0  0  0  0  0  0
  2  7  1  0
  4  8  1  0
  8  9  1  0
  9 10  1  0
  9 12  1  0
 12 13  1  0
 11 14  1  0
  3 15  1  0
 15 16  1  0
 21 22  1  0
 12 23  2  0
 22 24  1  0
 10 11  1  0
 14 13  1  0
  1  2  2  0
  2  5  1  0
  5  6  2  0
  6  4  1  0
  4  3  2  0
  3  1  1  0
 16 17  2  0
 17 18  1  0
 18 19  2  0
 19 20  1  0
 20 21  2  0
 21 16  1  0
M  END

$$$$
