No_2404-gen_results/8p0m/2024-11-26-14-13-15/
     RDKit          3D

 23 25  0  0  0  0  0  0  0  0999 V2000
  -28.0162   -0.8135   28.8779 C   0  0  0  0  0  0  0  0  0  0  0  0
  -27.0636   -0.1189   28.6079 C   0  0  0  0  0  0  0  0  0  0  0  0
  -25.7923   -0.4302   29.0761 C   0  0  0  0  0  0  0  0  0  0  0  0
  -25.5756   -1.5654   29.9363 C   0  0  0  0  0  0  0  0  0  0  0  0
  -26.7354   -2.3004   30.2173 C   0  0  0  0  0  0  0  0  0  0  0  0
  -27.9184   -1.9537   29.7629 C   0  0  0  0  0  0  0  0  0  0  0  0
  -29.0001   -2.7012   30.1151 O   0  0  0  0  0  0  0  0  0  0  0  0
  -24.6795    0.2962   28.8383 F   0  0  0  0  0  0  0  0  0  0  0  0
  -30.0953   -2.0921   30.6113 C   0  0  0  0  0  0  0  0  0  0  0  0
  -30.6488   -2.8666   31.6217 C   0  0  0  0  0  0  0  0  0  0  0  0
  -31.8274   -2.3181   32.2446 C   0  0  0  0  0  0  0  0  0  0  0  0
  -32.3207   -1.0968   31.7469 C   0  0  0  0  0  0  0  0  0  0  0  0
  -31.6832   -0.4632   30.7465 C   0  0  0  0  0  0  0  0  0  0  0  0
  -30.5519   -0.9323   30.1887 C   0  0  0  0  0  0  0  0  0  0  0  0
  -27.1316    1.0967   27.6967 C   0  0  0  0  0  0  0  0  0  0  0  0
  -27.9630    0.9725   26.5863 C   0  0  0  0  0  0  0  0  0  0  0  0
  -28.0328    2.0616   25.7202 C   0  0  0  0  0  0  0  0  0  0  0  0
  -27.2464    3.2114   25.9053 C   0  0  0  0  0  0  0  0  0  0  0  0
  -26.4235    3.2994   27.0343 C   0  0  0  0  0  0  0  0  0  0  0  0
  -26.3165    2.2541   27.8719 C   0  0  0  0  0  0  0  0  0  0  0  0
  -32.2302    0.8866   30.2787 C   0  0  0  0  0  0  0  0  0  0  0  0
  -32.8909    1.5391   30.8163 F   0  0  0  0  0  0  0  0  0  0  0  0
  -31.9634    1.1170   29.0028 F   0  0  0  0  0  0  0  0  0  0  0  0
  6  7  1  0
  3  8  1  0
  7  9  1  0
  2 15  1  0
 13 21  1  0
 21 22  1  0
 21 23  1  0
 15 16  2  0
 16 17  1  0
 17 18  2  0
 18 19  1  0
 19 20  2  0
 20 15  1  0
  1  2  2  0
  2  3  1  0
  3  4  2  0
  4  5  1  0
  5  6  2  0
  6  1  1  0
  9 10  2  0
 10 11  1  0
 11 12  2  0
 12 13  1  0
 13 14  2  0
 14  9  1  0
M  END

$$$$
