No_2528-gen_results/8p0m/2024-11-26-14-13-15/
     RDKit          3D

 12 12  0  0  0  0  0  0  0  0999 V2000
  -28.0162   -0.8135   28.8779 C   0  0  0  0  0  0  0  0  0  0  0  0
  -28.4690   -0.7850   29.8287 C   0  0  0  0  0  0  0  0  0  0  0  0
  -27.2166   -0.0832   27.9639 C   0  0  0  0  0  0  0  0  0  0  0  0
  -26.5094   -0.3500   26.9456 C   0  0  0  0  0  0  0  0  0  0  0  0
  -25.5425    0.3811   26.5228 C   0  0  0  0  0  0  0  0  0  0  0  0
  -25.1854    1.6624   26.9424 C   0  0  0  0  0  0  0  0  0  0  0  0
  -25.9212    2.0637   28.0484 C   0  0  0  0  0  0  0  0  0  0  0  0
  -26.8361    1.2142   28.5896 C   0  0  0  0  0  0  0  0  0  0  0  0
  -29.2909   -1.6732   30.5589 C   0  0  0  0  0  0  0  0  0  0  0  0
  -30.4114   -1.4639   31.1443 C   0  0  0  0  0  0  0  0  0  0  0  0
  -30.5715   -0.1043   31.6693 C   0  0  0  0  0  0  0  0  0  0  0  0
  -29.7344    0.8601   31.2252 C   0  0  0  0  0  0  0  0  0  0  0  0
  1  2  3  0
  1  3  1  0
  2  9  1  0
  9 10  2  3
 10 11  1  0
 11 12  2  0
  3  4  2  0
  4  5  1  0
  5  6  2  0
  6  7  1  0
  7  8  2  0
  8  3  1  0
M  END

$$$$
