No_2641-gen_results/8p0m/2024-11-26-14-13-15/
     RDKit          3D

 14 16  0  0  0  0  0  0  0  0999 V2000
  -28.0162   -0.8135   28.8779 C   0  0  0  0  0  0  0  0  0  0  0  0
  -28.4690   -0.7850   29.8287 C   0  0  0  0  0  0  0  0  0  0  0  0
  -27.1356    0.2359   28.5352 C   0  0  0  0  0  0  0  0  0  0  0  0
  -26.8050    1.0509   29.2763 C   0  0  0  0  0  0  0  0  0  0  0  0
  -29.4120   -1.8886   30.3141 C   0  0  0  0  0  0  0  0  0  0  0  0
  -27.3211    1.1276   30.6065 C   0  0  0  0  0  0  0  0  0  0  0  0
  -28.1972    0.0819   30.9803 C   0  0  0  0  0  0  0  0  0  0  0  0
  -29.8418   -1.8299   31.5831 N   0  0  0  0  0  0  0  0  0  0  0  0
  -29.6194   -0.9364   32.5060 C   0  0  0  0  0  0  0  0  0  0  0  0
  -28.7907    0.0486   32.2686 C   0  0  0  0  0  0  0  0  0  0  0  0
  -26.4680    0.1928   27.0750 C   0  0  0  0  0  0  0  0  0  0  0  0
  -26.2541    1.0472   26.4153 C   0  0  0  0  0  0  0  0  0  0  0  0
  -25.9790    2.3596   27.0922 C   0  0  0  0  0  0  0  0  0  0  0  0
  -26.3391    2.3708   28.5211 C   0  0  0  0  0  0  0  0  0  0  0  0
  4 14  2  0
 14 13  1  0
 13 12  2  0
 12 11  1  0
 11  3  2  0
  2  5  1  0
  5  8  2  0
  8  9  1  0
  9 10  2  0
 10  7  1  0
  1  2  2  0
  2  7  1  0
  7  6  2  0
  6  4  1  0
  4  3  1  0
  3  1  1  0
M  END

$$$$
