No_2779-gen_results/8p0m/2024-11-26-14-13-15/
     RDKit          3D

 18 19  0  0  0  0  0  0  0  0999 V2000
  -28.0162   -0.8135   28.8779 C   0  0  0  0  0  0  0  0  0  0  0  0
  -27.0636   -0.1189   28.6079 C   0  0  0  0  0  0  0  0  0  0  0  0
  -26.9716    0.7139   27.5060 C   0  0  0  0  0  0  0  0  0  0  0  0
  -25.8206    1.4910   27.1160 C   0  0  0  0  0  0  0  0  0  0  0  0
  -24.6562    1.4242   27.9180 C   0  0  0  0  0  0  0  0  0  0  0  0
  -24.6847    0.5901   29.0659 C   0  0  0  0  0  0  0  0  0  0  0  0
  -25.8099   -0.1265   29.3338 C   0  0  0  0  0  0  0  0  0  0  0  0
  -28.6943   -0.4734   30.1587 C   0  0  0  0  0  0  0  0  0  0  0  0
  -28.5789    0.8148   30.8542 Cl  0  0  0  0  0  0  0  0  0  0  0  0
  -29.5095   -1.5007   30.7262 O   0  0  0  0  0  0  0  0  0  0  0  0
  -23.5637    2.1564   27.6264 O   0  0  0  0  0  0  0  0  0  0  0  0
  -23.3246    2.3905   26.3215 C   0  0  0  0  0  0  0  0  0  0  0  0
  -28.1045    0.7662   26.5697 C   0  0  0  0  0  0  0  0  0  0  0  0
  -27.9583    0.6631   25.2291 C   0  0  0  0  0  0  0  0  0  0  0  0
  -29.0050    0.6332   24.3363 C   0  0  0  0  0  0  0  0  0  0  0  0
  -30.0471    0.4832   24.6714 C   0  0  0  0  0  0  0  0  0  0  0  0
  -30.4505    0.4480   26.1072 C   0  0  0  0  0  0  0  0  0  0  0  0
  -29.4347    0.6013   27.0449 C   0  0  0  0  0  0  0  0  0  0  0  0
  1  8  1  0
  8  9  1  0
  8 10  1  0
  5 11  1  0
 11 12  1  0
  3 13  1  0
  1  2  1  0
  2  3  2  0
  3  4  1  0
  4  5  2  0
  5  6  1  0
  6  7  2  0
  7  2  1  0
 13 14  2  0
 14 15  1  0
 15 16  2  0
 16 17  1  0
 17 18  2  0
 18 13  1  0
M  END

$$$$
