No_2288-gen_results/8p0m/2024-11-26-14-13-15/
     RDKit          3D

 35 38  0  0  0  0  0  0  0  0999 V2000
  -28.0544   -1.0498   28.7246 N   0  0  0  0  0  0  0  0  0  0  0  0
  -28.6544   -0.5669   29.5076 C   0  0  0  0  0  0  0  0  0  0  0  0
  -26.6945   -1.3221   29.0236 C   0  0  0  0  0  0  0  0  0  0  0  0
  -26.3171   -1.0619   30.3116 N   0  0  0  0  0  0  0  0  0  0  0  0
  -30.0524   -0.2833   29.1917 N   0  0  0  0  0  0  0  0  0  0  0  0
  -28.2268   -0.2923   30.8776 C   0  0  0  0  0  0  0  0  0  0  0  0
  -27.0274   -0.5120   31.2177 C   0  0  0  0  0  0  0  0  0  0  0  0
  -31.0720   -0.9094   29.7517 C   0  0  0  0  0  0  0  0  0  0  0  0
  -31.0986   -1.5796   30.6134 C   0  0  0  0  0  0  0  0  0  0  0  0
  -32.2725   -2.3503   31.1579 C   0  0  0  0  0  0  0  0  0  0  0  0
  -33.4380   -2.0805   30.4532 C   0  0  0  0  0  0  0  0  0  0  0  0
  -32.3627   -0.7519   29.0444 C   0  0  0  0  0  0  0  0  0  0  0  0
  -33.4612   -1.3165   29.4036 C   0  0  0  0  0  0  0  0  0  0  0  0
  -30.1787    1.1128   28.8827 C   0  0  0  0  0  0  0  0  0  0  0  0
  -30.2531    1.3252   27.4621 C   0  0  0  0  0  0  0  0  0  0  0  0
  -29.5523    1.9247   26.8902 C   0  0  0  0  0  0  0  0  0  0  0  0
  -29.5033    1.9756   25.4435 C   0  0  0  0  0  0  0  0  0  0  0  0
  -30.3901    1.1989   24.7024 C   0  0  0  0  0  0  0  0  0  0  0  0
  -31.0184    0.4065   26.5407 C   0  0  0  0  0  0  0  0  0  0  0  0
  -31.1163    0.4108   25.3224 C   0  0  0  0  0  0  0  0  0  0  0  0
  -30.3558    2.0819   29.6244 O   0  0  0  0  0  0  0  0  0  0  0  0
  -34.7091   -2.8121   30.9232 C   0  0  0  0  0  0  0  0  0  0  0  0
  -35.6055   -3.0309   30.4002 O   0  0  0  0  0  0  0  0  0  0  0  0
  -34.7610   -2.8515   32.3318 O   0  0  0  0  0  0  0  0  0  0  0  0
  -25.7735   -1.7608   28.1665 N   0  0  0  0  0  0  0  0  0  0  0  0
  -24.5269   -2.1099   28.6789 C   0  0  0  0  0  0  0  0  0  0  0  0
  -23.5241   -1.3038   28.7536 C   0  0  0  0  0  0  0  0  0  0  0  0
  -23.6058    0.0544   28.3878 C   0  0  0  0  0  0  0  0  0  0  0  0
  -22.4311    0.8973   28.4336 C   0  0  0  0  0  0  0  0  0  0  0  0
  -21.2422    0.3241   28.7821 C   0  0  0  0  0  0  0  0  0  0  0  0
  -21.1286   -1.0202   29.1232 C   0  0  0  0  0  0  0  0  0  0  0  0
  -22.2108   -1.7863   29.1225 C   0  0  0  0  0  0  0  0  0  0  0  0
  -24.4006   -3.3915   28.8420 F   0  0  0  0  0  0  0  0  0  0  0  0
  -26.5382   -0.3437   32.4730 N   0  0  0  0  0  0  0  0  0  0  0  0
  -25.9878    0.8494   32.9272 C   0  0  0  0  0  0  0  0  0  0  0  0
  2  5  1  0
  5  8  1  0
  5 14  1  0
 14 15  1  0
 14 21  2  0
 11 22  1  0
 22 23  2  0
 22 24  1  0
  3 25  1  0
 25 26  1  0
 26 27  1  0
 26 33  1  0
  7 34  1  0
 34 35  1  0
 15 16  2  0
 16 17  1  0
 17 18  2  0
 18 20  1  0
 20 19  2  0
 19 15  1  0
 27 28  2  0
 28 29  1  0
 29 30  2  0
 30 31  1  0
 31 32  2  0
 32 27  1  0
  1  2  2  0
  2  6  1  0
  6  7  2  0
  7  4  1  0
  4  3  2  0
  3  1  1  0
  8  9  2  0
  9 10  1  0
 10 11  2  0
 11 13  1  0
 13 12  2  0
 12  8  1  0
M  END

$$$$
