No_2117-gen_results/8p0m/2024-11-26-14-13-15/
     RDKit          3D

 13 14  0  0  0  0  0  0  0  0999 V2000
  -28.0162   -0.8135   28.8779 C   0  0  0  0  0  0  0  0  0  0  0  0
  -27.0636   -0.1190   28.6079 C   0  0  0  0  0  0  0  0  0  0  0  0
  -26.8756    1.1325   28.9134 C   0  0  0  0  0  0  0  0  0  0  0  0
  -25.6883    1.9515   28.5672 C   0  0  0  0  0  0  0  0  0  0  0  0
  -24.6394    1.2834   27.8753 C   0  0  0  0  0  0  0  0  0  0  0  0
  -23.4556    1.9996   27.5653 C   0  0  0  0  0  0  0  0  0  0  0  0
  -25.8432   -0.7373   27.9210 C   0  0  0  0  0  0  0  0  0  0  0  0
  -24.6903   -0.0521   27.5832 C   0  0  0  0  0  0  0  0  0  0  0  0
  -22.3908    1.7594   27.5914 O   0  0  0  0  0  0  0  0  0  0  0  0
  -23.7359    3.2888   27.1098 O   0  0  0  0  0  0  0  0  0  0  0  0
  -29.2618   -0.1760   29.2653 C   0  0  0  0  0  0  0  0  0  0  0  0
  -29.1782    1.1939   29.5172 C   0  0  0  0  0  0  0  0  0  0  0  0
  -27.9911    1.8928   29.3703 C   0  0  0  0  0  0  0  0  0  0  0  0
  5  6  1  0
  6  9  2  0
  6 10  1  0
  3  4  1  0
  4  5  2  0
  5  8  1  0
  8  7  2  0
  7  2  1  0
  1  2  2  0
  2  3  1  0
  3 13  2  0
 13 12  1  0
 12 11  2  0
 11  1  1  0
M  END

$$$$
