No_2448-gen_results/8p0m/2024-11-26-14-13-15/
     RDKit          3D

 30 31  0  0  0  0  0  0  0  0999 V2000
  -28.0162   -0.8135   28.8779 C   0  0  0  0  0  0  0  0  0  0  0  0
  -27.0636   -0.1190   28.6079 C   0  0  0  0  0  0  0  0  0  0  0  0
  -26.9515    1.1286   28.9566 N   0  0  0  0  0  0  0  0  0  0  0  0
  -29.1088   -0.2102   29.6318 C   0  0  0  0  0  0  0  0  0  0  0  0
  -30.1959   -1.0433   29.9956 C   0  0  0  0  0  0  0  0  0  0  0  0
  -29.0643    1.1092   29.9938 C   0  0  0  0  0  0  0  0  0  0  0  0
  -27.9090    1.7990   29.6019 C   0  0  0  0  0  0  0  0  0  0  0  0
  -29.9689   -2.2243   30.1696 F   0  0  0  0  0  0  0  0  0  0  0  0
  -30.7803   -0.5976   31.1434 F   0  0  0  0  0  0  0  0  0  0  0  0
  -31.3429   -0.9926   29.2345 F   0  0  0  0  0  0  0  0  0  0  0  0
  -25.8845   -0.6147   27.9504 N   0  0  0  0  0  0  0  0  0  0  0  0
  -24.7292   -0.8724   28.7253 C   0  0  0  0  0  0  0  0  0  0  0  0
  -24.3956   -2.1439   29.0116 C   0  0  0  0  0  0  0  0  0  0  0  0
  -23.8242    0.1696   28.9228 C   0  0  0  0  0  0  0  0  0  0  0  0
  -22.5402   -0.1644   29.5281 C   0  0  0  0  0  0  0  0  0  0  0  0
  -25.2613   -3.2604   28.7959 C   0  0  0  0  0  0  0  0  0  0  0  0
  -22.2710   -1.4787   29.8976 C   0  0  0  0  0  0  0  0  0  0  0  0
  -23.1692   -2.4184   29.6569 C   0  0  0  0  0  0  0  0  0  0  0  0
  -24.8897   -4.5398   29.2064 C   0  0  0  0  0  0  0  0  0  0  0  0
  -25.8989   -5.5578   29.2124 C   0  0  0  0  0  0  0  0  0  0  0  0
  -25.6125    0.1504   26.7033 C   0  0  0  0  0  0  0  0  0  0  0  0
  -26.4321   -0.1057   25.5946 C   0  0  0  0  0  0  0  0  0  0  0  0
  -26.5124    0.8297   24.6107 C   0  0  0  0  0  0  0  0  0  0  0  0
  -27.5572    0.7162   23.7128 C   0  0  0  0  0  0  0  0  0  0  0  0
  -28.6364   -0.1671   23.9728 C   0  0  0  0  0  0  0  0  0  0  0  0
  -29.8414    0.1390   24.4028 C   0  0  0  0  0  0  0  0  0  0  0  0
  -30.1700    1.4824   24.7693 C   0  0  0  0  0  0  0  0  0  0  0  0
  -31.4095    1.7428   25.3174 C   0  0  0  0  0  0  0  0  0  0  0  0
  -32.2805    0.6646   25.5615 C   0  0  0  0  0  0  0  0  0  0  0  0
  -31.9697   -0.6236   25.2523 C   0  0  0  0  0  0  0  0  0  0  0  0
  4  5  1  0
  5  8  1  0
  5  9  1  0
  5 10  1  0
  2 11  1  0
 11 12  1  0
 13 16  1  0
 16 19  2  3
 19 20  1  0
 11 21  1  0
 21 22  1  0
 22 23  2  3
 23 24  1  0
 24 25  2  3
 25 26  1  0
 26 27  2  3
 27 28  1  0
 28 29  2  3
 29 30  1  0
 12 13  2  0
 13 18  1  0
 18 17  2  0
 17 15  1  0
 15 14  2  0
 14 12  1  0
  1  2  2  0
  2  3  1  0
  3  7  2  0
  7  6  1  0
  6  4  2  0
  4  1  1  0
M  END

$$$$
