No_2244-gen_results/8p0m/2024-11-26-14-13-15/
     RDKit          3D

 33 36  0  0  0  0  0  0  0  0999 V2000
  -28.1229   -1.3353   28.4874 O   0  0  0  0  0  0  0  0  0  0  0  0
  -28.5208   -0.4363   29.0779 C   0  0  0  0  0  0  0  0  0  0  0  0
  -28.5894    0.5916   28.9464 C   0  0  0  0  0  0  0  0  0  0  0  0
  -28.7866   -0.8872   30.4874 N   0  0  0  0  0  0  0  0  0  0  0  0
  -27.7841    1.2822   27.9869 C   0  0  0  0  0  0  0  0  0  0  0  0
  -28.0838    1.5823   26.7801 C   0  0  0  0  0  0  0  0  0  0  0  0
  -27.1210    2.0132   25.7117 C   0  0  0  0  0  0  0  0  0  0  0  0
  -25.7656    2.1252   26.0617 C   0  0  0  0  0  0  0  0  0  0  0  0
  -25.3777    1.7748   27.4171 C   0  0  0  0  0  0  0  0  0  0  0  0
  -26.3154    1.3420   28.2647 C   0  0  0  0  0  0  0  0  0  0  0  0
  -28.7205   -2.2974   30.9281 C   0  0  0  0  0  0  0  0  0  0  0  0
  -29.3202    0.0098   31.4965 C   0  0  0  0  0  0  0  0  0  0  0  0
  -23.9534    1.8973   27.7332 C   0  0  0  0  0  0  0  0  0  0  0  0
  -23.5811    2.0324   28.9822 N   0  0  0  0  0  0  0  0  0  0  0  0
  -22.9912    2.0105   26.8836 O   0  0  0  0  0  0  0  0  0  0  0  0
  -29.7377   -3.1239   30.3847 C   0  0  0  0  0  0  0  0  0  0  0  0
  -30.9140   -2.7159   30.1485 C   0  0  0  0  0  0  0  0  0  0  0  0
  -31.8109   -3.2709   30.6973 C   0  0  0  0  0  0  0  0  0  0  0  0
  -31.7717   -4.7226   31.0139 C   0  0  0  0  0  0  0  0  0  0  0  0
  -30.4742   -5.2697   31.2619 C   0  0  0  0  0  0  0  0  0  0  0  0
  -29.3760   -4.4643   30.9339 C   0  0  0  0  0  0  0  0  0  0  0  0
  -30.5841    0.3960   31.4361 C   0  0  0  0  0  0  0  0  0  0  0  0
  -31.0484    1.1368   32.4063 C   0  0  0  0  0  0  0  0  0  0  0  0
  -28.4444    0.4617   32.4374 C   0  0  0  0  0  0  0  0  0  0  0  0
  -26.9784    0.0945   32.5324 C   0  0  0  0  0  0  0  0  0  0  0  0
  -30.2406    1.6070   33.4335 C   0  0  0  0  0  0  0  0  0  0  0  0
  -28.8610    1.2845   33.4870 C   0  0  0  0  0  0  0  0  0  0  0  0
  -26.4360   -0.1383   33.7099 C   0  0  0  0  0  0  0  0  0  0  0  0
  -25.0720   -0.5454   33.6618 C   0  0  0  0  0  0  0  0  0  0  0  0
  -24.3582   -0.7240   32.5147 C   0  0  0  0  0  0  0  0  0  0  0  0
  -24.9900   -0.4037   31.2829 C   0  0  0  0  0  0  0  0  0  0  0  0
  -26.3285    0.0231   31.3087 C   0  0  0  0  0  0  0  0  0  0  0  0
  -27.9105   -2.4793   31.8431 O   0  0  0  0  0  0  0  0  0  0  0  0
  1  2  2  0
  2  3  1  0
  2  4  1  0
  3  5  1  0
  4 11  1  0
  4 12  1  0
  9 13  1  0
 13 14  1  0
 13 15  2  0
 11 16  1  0
 24 25  1  0
 11 33  2  0
 25 28  2  0
 28 29  1  0
 29 30  2  0
 30 31  1  0
 31 32  2  0
 32 25  1  0
 16 17  2  0
 17 18  1  0
 18 19  2  0
 19 20  1  0
 20 21  2  0
 21 16  1  0
  5  6  2  0
  6  7  1  0
  7  8  2  0
  8  9  1  0
  9 10  2  0
 10  5  1  0
 12 22  2  0
 22 23  1  0
 23 26  2  0
 26 27  1  0
 27 24  2  0
 24 12  1  0
M  END

$$$$
