No_2959-gen_results/8p0m/2024-11-26-14-13-15/
     RDKit          3D

 16 16  0  0  0  0  0  0  0  0999 V2000
  -28.1229   -1.3353   28.4874 O   0  0  0  0  0  0  0  0  0  0  0  0
  -28.5208   -0.4363   29.0779 C   0  0  0  0  0  0  0  0  0  0  0  0
  -29.6977    0.0507   28.9764 C   0  0  0  0  0  0  0  0  0  0  0  0
  -27.5405    0.1756   30.0054 N   0  0  0  0  0  0  0  0  0  0  0  0
  -26.2376   -0.0526   30.0396 C   0  0  0  0  0  0  0  0  0  0  0  0
  -25.3557    0.2853   29.1255 C   0  0  0  0  0  0  0  0  0  0  0  0
  -24.0909   -0.2772   29.0359 C   0  0  0  0  0  0  0  0  0  0  0  0
  -23.0519    0.1177   28.0800 C   0  0  0  0  0  0  0  0  0  0  0  0
  -23.3867    1.1601   27.2065 C   0  0  0  0  0  0  0  0  0  0  0  0
  -24.6885    1.7008   27.2019 C   0  0  0  0  0  0  0  0  0  0  0  0
  -25.6028    1.3178   28.1053 C   0  0  0  0  0  0  0  0  0  0  0  0
  -29.9302   -0.0518   27.9938 F   0  0  0  0  0  0  0  0  0  0  0  0
  -29.8023    1.3406   29.4044 F   0  0  0  0  0  0  0  0  0  0  0  0
  -30.5102   -0.6824   29.7946 F   0  0  0  0  0  0  0  0  0  0  0  0
  -24.9216    2.6776   26.2581 N   0  0  0  0  0  0  0  0  0  0  0  0
  -25.9107   -0.4556   31.2332 O   0  0  0  0  0  0  0  0  0  0  0  0
  1  2  2  0
  2  3  1  0
  2  4  1  0
  4  5  1  0
  5  6  1  0
  3 12  1  0
  3 13  1  0
  3 14  1  0
 10 15  1  0
  5 16  2  0
  6  7  2  0
  7  8  1  0
  8  9  2  0
  9 10  1  0
 10 11  2  0
 11  6  1  0
M  END

$$$$
