No_2118-gen_results/8p0m/2024-11-26-14-13-15/
     RDKit          3D

 21 24  0  0  0  0  0  0  0  0999 V2000
  -28.0162   -0.8135   28.8779 C   0  0  0  0  0  0  0  0  0  0  0  0
  -27.0636   -0.1189   28.6079 C   0  0  0  0  0  0  0  0  0  0  0  0
  -25.7923   -0.4302   29.0761 C   0  0  0  0  0  0  0  0  0  0  0  0
  -24.5456    0.3494   28.8225 C   0  0  0  0  0  0  0  0  0  0  0  0
  -24.6586    1.4196   27.8878 C   0  0  0  0  0  0  0  0  0  0  0  0
  -25.9471    1.6811   27.3792 C   0  0  0  0  0  0  0  0  0  0  0  0
  -27.1795    1.0029   27.7610 C   0  0  0  0  0  0  0  0  0  0  0  0
  -28.0151   -1.6905   30.1149 C   0  0  0  0  0  0  0  0  0  0  0  0
  -26.7106   -2.1310   30.5357 C   0  0  0  0  0  0  0  0  0  0  0  0
  -25.5792   -1.4348   30.1142 C   0  0  0  0  0  0  0  0  0  0  0  0
  -23.2155    0.0212   29.3039 C   0  0  0  0  0  0  0  0  0  0  0  0
  -22.0933    0.4354   28.6192 C   0  0  0  0  0  0  0  0  0  0  0  0
  -22.1979    1.5025   27.6844 C   0  0  0  0  0  0  0  0  0  0  0  0
  -23.4834    2.0108   27.3047 C   0  0  0  0  0  0  0  0  0  0  0  0
  -28.3993    1.3763   27.1283 C   0  0  0  0  0  0  0  0  0  0  0  0
  -28.4090    2.0732   26.0433 C   0  0  0  0  0  0  0  0  0  0  0  0
  -27.2504    2.9630   25.7241 C   0  0  0  0  0  0  0  0  0  0  0  0
  -26.0454    2.7304   26.3509 C   0  0  0  0  0  0  0  0  0  0  0  0
  -29.1655   -2.4746   30.4925 C   0  0  0  0  0  0  0  0  0  0  0  0
  -30.1814   -2.1088   30.5380 O   0  0  0  0  0  0  0  0  0  0  0  0
  -28.9100   -3.7241   30.9329 O   0  0  0  0  0  0  0  0  0  0  0  0
  8 19  1  0
 19 20  2  0
 19 21  1  0
  5 14  2  0
 14 13  1  0
 13 12  2  0
 12 11  1  0
 11  4  2  0
  3  4  1  0
  4  5  1  0
  5  6  1  0
  7  2  1  0
  1  2  2  0
  2  3  1  0
  3 10  2  0
 10  9  1  0
  9  8  2  0
  8  1  1  0
  6  7  2  0
  7 15  1  0
 15 16  2  0
 16 17  1  0
 17 18  2  0
 18  6  1  0
M  END

$$$$
