No_2655-gen_results/8p0m/2024-11-26-14-13-15/
     RDKit          3D

 18 19  0  0  0  0  0  0  0  0999 V2000
  -28.0162   -0.8135   28.8779 C   0  0  0  0  0  0  0  0  0  0  0  0
  -27.0636   -0.1190   28.6079 C   0  0  0  0  0  0  0  0  0  0  0  0
  -26.8756    1.1325   28.9134 C   0  0  0  0  0  0  0  0  0  0  0  0
  -27.9014    1.8066   29.6436 C   0  0  0  0  0  0  0  0  0  0  0  0
  -28.9449    1.0388   30.0360 C   0  0  0  0  0  0  0  0  0  0  0  0
  -29.0273   -0.2890   29.7051 C   0  0  0  0  0  0  0  0  0  0  0  0
  -25.8229    1.8477   28.5391 F   0  0  0  0  0  0  0  0  0  0  0  0
  -30.1454   -1.1949   30.1072 C   0  0  0  0  0  0  0  0  0  0  0  0
  -31.1329   -1.1799   29.6073 O   0  0  0  0  0  0  0  0  0  0  0  0
  -29.8547   -2.0907   31.0903 O   0  0  0  0  0  0  0  0  0  0  0  0
  -25.8198   -0.7142   27.7664 C   0  0  0  0  0  0  0  0  0  0  0  0
  -24.4914   -0.3702   28.2309 C   0  0  0  0  0  0  0  0  0  0  0  0
  -24.0212   -0.0030   29.1194 C   0  0  0  0  0  0  0  0  0  0  0  0
  -22.5719   -0.0431   29.4028 C   0  0  0  0  0  0  0  0  0  0  0  0
  -22.0392    0.0088   30.5837 C   0  0  0  0  0  0  0  0  0  0  0  0
  -22.9834    0.3907   31.6554 C   0  0  0  0  0  0  0  0  0  0  0  0
  -24.5283    0.1434   30.5874 C   0  0  0  0  0  0  0  0  0  0  0  0
  -29.9344    1.5578   30.7559 F   0  0  0  0  0  0  0  0  0  0  0  0
  3  7  1  0
  6  8  1  0
  8  9  2  0
  8 10  1  0
  2 11  1  0
 11 12  1  0
 12 13  2  3
 13 14  1  0
 14 15  2  0
 15 16  1  0
 13 17  1  0
 16 17  2  0
  5 18  1  0
  1  2  2  0
  2  3  1  0
  3  4  2  0
  4  5  1  0
  5  6  2  0
  6  1  1  0
M  END

$$$$
