No_2365-gen_results/8p0m/2024-11-26-14-13-15/
     RDKit          3D

 23 24  0  0  0  0  0  0  0  0999 V2000
  -28.0162   -0.8135   28.8779 C   0  0  0  0  0  0  0  0  0  0  0  0
  -27.0636   -0.1189   28.6079 C   0  0  0  0  0  0  0  0  0  0  0  0
  -26.9287    1.1713   29.0083 C   0  0  0  0  0  0  0  0  0  0  0  0
  -25.7702    2.0341   28.6884 C   0  0  0  0  0  0  0  0  0  0  0  0
  -24.7141    1.4431   27.9188 C   0  0  0  0  0  0  0  0  0  0  0  0
  -24.8590    0.0783   27.5836 C   0  0  0  0  0  0  0  0  0  0  0  0
  -25.9647   -0.6606   27.9164 C   0  0  0  0  0  0  0  0  0  0  0  0
  -28.6995   -0.6441   30.0766 N   0  0  0  0  0  0  0  0  0  0  0  0
  -29.8035   -1.3645   30.5061 C   0  0  0  0  0  0  0  0  0  0  0  0
  -30.3751   -2.1790   29.7448 C   0  0  0  0  0  0  0  0  0  0  0  0
  -30.4579   -3.5171   30.2214 C   0  0  0  0  0  0  0  0  0  0  0  0
  -29.6573   -4.0825   30.4221 C   0  0  0  0  0  0  0  0  0  0  0  0
  -29.6808   -5.4848   30.9341 C   0  0  0  0  0  0  0  0  0  0  0  0
  -30.9140   -6.0897   30.8424 C   0  0  0  0  0  0  0  0  0  0  0  0
  -31.9964   -5.4447   30.4178 C   0  0  0  0  0  0  0  0  0  0  0  0
  -31.7989   -4.1157   30.0513 C   0  0  0  0  0  0  0  0  0  0  0  0
  -23.5305    2.1681   27.5713 C   0  0  0  0  0  0  0  0  0  0  0  0
  -22.4064    2.1671   27.9539 N   0  0  0  0  0  0  0  0  0  0  0  0
  -23.7633    2.9297   26.2613 C   0  0  0  0  0  0  0  0  0  0  0  0
  -30.1658   -1.1973   31.7336 O   0  0  0  0  0  0  0  0  0  0  0  0
  -21.3811    1.1909   27.8255 C   0  0  0  0  0  0  0  0  0  0  0  0
  -21.2020    0.2660   28.9808 C   0  0  0  0  0  0  0  0  0  0  0  0
  -21.1561   -1.1187   28.4553 C   0  0  0  0  0  0  0  0  0  0  0  0
  1  2  1  0
  1  8  1  0
  8  9  1  0
  9 10  1  0
  5 17  1  0
 17 18  2  3
 17 19  1  0
  9 20  2  0
 18 21  1  0
 21 22  1  0
 22 23  1  0
 10 11  1  0
 11 12  2  0
 12 13  1  0
 13 14  2  0
 14 15  1  0
 15 16  2  0
 16 11  1  0
  2  3  2  0
  3  4  1  0
  4  5  2  0
  5  6  1  0
  6  7  2  0
  7  2  1  0
M  END

$$$$
