No_2352-gen_results/8p0m/2024-11-26-14-13-15/
     RDKit          3D

 25 27  0  0  0  0  0  0  0  0999 V2000
  -28.0162   -0.8135   28.8779 C   0  0  0  0  0  0  0  0  0  0  0  0
  -27.0636   -0.1189   28.6079 C   0  0  0  0  0  0  0  0  0  0  0  0
  -27.0010    0.6913   27.4910 C   0  0  0  0  0  0  0  0  0  0  0  0
  -25.8548    1.4825   27.0830 C   0  0  0  0  0  0  0  0  0  0  0  0
  -24.6901    1.4526   27.8807 C   0  0  0  0  0  0  0  0  0  0  0  0
  -24.7379    0.6010   29.0416 C   0  0  0  0  0  0  0  0  0  0  0  0
  -25.8234   -0.1688   29.3887 C   0  0  0  0  0  0  0  0  0  0  0  0
  -28.7300   -0.5298   30.0429 N   0  0  0  0  0  0  0  0  0  0  0  0
  -28.9322    0.3226   30.5381 C   0  0  0  0  0  0  0  0  0  0  0  0
  -29.3038    1.0059   31.2658 C   0  0  0  0  0  0  0  0  0  0  0  0
  -29.9269    0.8580   32.5350 C   0  0  0  0  0  0  0  0  0  0  0  0
  -30.1001   -0.4124   32.9701 C   0  0  0  0  0  0  0  0  0  0  0  0
  -29.1958   -1.7949   30.7128 C   0  0  0  0  0  0  0  0  0  0  0  0
  -29.6854   -1.8577   31.7487 C   0  0  0  0  0  0  0  0  0  0  0  0
  -23.4945    2.1918   27.5449 C   0  0  0  0  0  0  0  0  0  0  0  0
  -22.5285    2.2375   28.5301 C   0  0  0  0  0  0  0  0  0  0  0  0
  -22.5450    1.3220   29.5504 C   0  0  0  0  0  0  0  0  0  0  0  0
  -23.6023    0.5969   29.8903 C   0  0  0  0  0  0  0  0  0  0  0  0
  -25.8099   -0.9734   30.5821 C   0  0  0  0  0  0  0  0  0  0  0  0
  -28.1667    0.7830   26.5605 C   0  0  0  0  0  0  0  0  0  0  0  0
  -28.1831    0.5689   25.4471 O   0  0  0  0  0  0  0  0  0  0  0  0
  -29.3209    1.1061   27.1650 O   0  0  0  0  0  0  0  0  0  0  0  0
  -25.0125   -1.7434   31.2191 C   0  0  0  0  0  0  0  0  0  0  0  0
  -26.8910   -0.5500   31.6116 C   0  0  0  0  0  0  0  0  0  0  0  0
  -28.0799    0.8344   30.4189 O   0  0  0  0  0  0  0  0  0  0  0  0
  1  2  1  0
  1  8  1  0
  8  9  1  0
  9 10  1  0
 10 11  2  0
 11 12  1  0
  8 13  1  0
 12 14  1  0
 13 14  2  0
  7 19  1  0
  3 20  1  0
 20 21  2  0
 20 22  1  0
 19 23  2  0
 19 24  1  0
  9 25  1  0
  2  3  2  0
  3  4  1  0
  4  5  2  0
  6  7  2  0
  7  2  1  0
  5  6  1  0
  6 18  1  0
 18 17  2  0
 17 16  1  0
 16 15  2  0
 15  5  1  0
M  END

$$$$
