No_2406-gen_results/8p0m/2024-11-26-14-13-15/
     RDKit          3D

 24 26  0  0  0  0  0  0  0  0999 V2000
  -28.0162   -0.8135   28.8779 C   0  0  0  0  0  0  0  0  0  0  0  0
  -27.0636   -0.1189   28.6079 C   0  0  0  0  0  0  0  0  0  0  0  0
  -27.0010    0.6913   27.4910 C   0  0  0  0  0  0  0  0  0  0  0  0
  -25.8548    1.4825   27.0830 C   0  0  0  0  0  0  0  0  0  0  0  0
  -24.6901    1.4526   27.8807 C   0  0  0  0  0  0  0  0  0  0  0  0
  -24.7379    0.6010   29.0416 C   0  0  0  0  0  0  0  0  0  0  0  0
  -25.8234   -0.1688   29.3887 C   0  0  0  0  0  0  0  0  0  0  0  0
  -29.2252   -0.0469   29.2805 C   0  0  0  0  0  0  0  0  0  0  0  0
  -29.3751    0.2221   30.4723 N   0  0  0  0  0  0  0  0  0  0  0  0
  -29.7455    0.8609   31.1639 C   0  0  0  0  0  0  0  0  0  0  0  0
  -30.4351    2.0676   30.6525 C   0  0  0  0  0  0  0  0  0  0  0  0
  -30.7463    3.1646   31.2726 C   0  0  0  0  0  0  0  0  0  0  0  0
  -30.7255    1.9840   29.2226 C   0  0  0  0  0  0  0  0  0  0  0  0
  -29.8399    0.8946   28.3966 C   0  0  0  0  0  0  0  0  0  0  0  0
  -23.4963    2.1561   27.5463 C   0  0  0  0  0  0  0  0  0  0  0  0
  -23.5279    2.8744   26.5830 F   0  0  0  0  0  0  0  0  0  0  0  0
  -22.3355    1.8164   27.9557 F   0  0  0  0  0  0  0  0  0  0  0  0
  -31.8093    3.5570   31.3903 N   0  0  0  0  0  0  0  0  0  0  0  0
  -32.8526    3.0053   30.9399 C   0  0  0  0  0  0  0  0  0  0  0  0
  -33.9820    3.4172   30.8926 C   0  0  0  0  0  0  0  0  0  0  0  0
  -35.1626    2.7271   30.4108 C   0  0  0  0  0  0  0  0  0  0  0  0
  -34.8553    1.4547   29.8707 C   0  0  0  0  0  0  0  0  0  0  0  0
  -33.6234    0.9422   29.8360 C   0  0  0  0  0  0  0  0  0  0  0  0
  -32.5452    1.7154   30.3827 C   0  0  0  0  0  0  0  0  0  0  0  0
  1  2  1  0
  1  8  1  0
  5 15  1  0
 15 16  1  0
 15 17  1  0
 12 18  2  3
 18 19  1  0
 12 11  1  0
  2  3  2  0
  3  4  1  0
  4  5  2  0
  5  6  1  0
  6  7  2  0
  7  2  1  0
  8  9  2  0
  9 10  1  0
 10 11  2  0
 11 13  1  0
 13 14  2  0
 14  8  1  0
 19 20  2  0
 20 21  1  0
 21 22  2  0
 22 23  1  0
 23 24  2  0
 24 19  1  0
M  END

$$$$
