No_298-gen_results/8p0m/2024-11-26-14-13-15/
     RDKit          3D

 20 21  0  0  0  0  0  0  0  0999 V2000
  -28.0162   -0.8135   28.8779 C   0  0  0  0  0  0  0  0  0  0  0  0
  -28.4690   -0.7850   29.8287 C   0  0  0  0  0  0  0  0  0  0  0  0
  -26.5042   -0.7777   28.8766 C   0  0  0  0  0  0  0  0  0  0  0  0
  -25.8103   -0.8531   30.1028 C   0  0  0  0  0  0  0  0  0  0  0  0
  -30.0136   -0.8410   29.8508 C   0  0  0  0  0  0  0  0  0  0  0  0
  -26.5670   -0.8850   31.2517 C   0  0  0  0  0  0  0  0  0  0  0  0
  -27.9411   -0.9069   31.1850 C   0  0  0  0  0  0  0  0  0  0  0  0
  -30.6493   -0.0573   30.6757 O   0  0  0  0  0  0  0  0  0  0  0  0
  -30.5985   -1.8622   29.3538 O   0  0  0  0  0  0  0  0  0  0  0  0
  -25.5331   -0.7119   27.4686 Cl  0  0  0  0  0  0  0  0  0  0  0  0
  -24.3373   -0.8146   30.1590 C   0  0  0  0  0  0  0  0  0  0  0  0
  -23.4456   -0.2983   29.7474 C   0  0  0  0  0  0  0  0  0  0  0  0
  -23.3786    1.1753   29.6314 C   0  0  0  0  0  0  0  0  0  0  0  0
  -22.5516    1.8738   28.7400 C   0  0  0  0  0  0  0  0  0  0  0  0
  -21.6804    1.0563   27.9446 C   0  0  0  0  0  0  0  0  0  0  0  0
  -22.5640   -0.9256   28.7523 C   0  0  0  0  0  0  0  0  0  0  0  0
  -21.6631   -0.2354   28.0351 C   0  0  0  0  0  0  0  0  0  0  0  0
  -24.2432    1.8980   30.4956 N   0  0  0  0  0  0  0  0  0  0  0  0
  -25.2148    2.7300   30.1774 C   0  0  0  0  0  0  0  0  0  0  0  0
  -25.9474    3.3737   31.2244 C   0  0  0  0  0  0  0  0  0  0  0  0
  2  5  1  0
  5  8  2  0
  5  9  1  0
  3 10  1  0
  4 11  1  0
 11 12  1  0
 13 18  1  0
 18 19  1  0
 19 20  2  0
 12 13  2  0
 13 14  1  0
 14 15  2  0
 15 17  1  0
 17 16  2  0
 16 12  1  0
  1  2  2  0
  2  7  1  0
  7  6  2  0
  6  4  1  0
  4  3  2  0
  3  1  1  0
M  END

$$$$
