No_2336-gen_results/8p0m/2024-11-26-14-13-15/
     RDKit          3D

 35 37  0  0  0  0  0  0  0  0999 V2000
  -28.0162   -0.8135   28.8779 C   0  0  0  0  0  0  0  0  0  0  0  0
  -28.4690   -0.7850   29.8287 C   0  0  0  0  0  0  0  0  0  0  0  0
  -27.0871    0.2903   28.6377 C   0  0  0  0  0  0  0  0  0  0  0  0
  -26.8317    1.2487   29.5869 C   0  0  0  0  0  0  0  0  0  0  0  0
  -28.3914    0.0801   31.0065 C   0  0  0  0  0  0  0  0  0  0  0  0
  -27.4940    1.1521   30.7841 C   0  0  0  0  0  0  0  0  0  0  0  0
  -26.3172    0.3994   27.3653 C   0  0  0  0  0  0  0  0  0  0  0  0
  -26.8815    0.9711   26.3721 C   0  0  0  0  0  0  0  0  0  0  0  0
  -26.1464    0.9703   25.0973 C   0  0  0  0  0  0  0  0  0  0  0  0
  -24.7793    0.5609   25.1117 C   0  0  0  0  0  0  0  0  0  0  0  0
  -25.0074   -0.1159   27.2986 C   0  0  0  0  0  0  0  0  0  0  0  0
  -24.2881    0.0057   26.2234 C   0  0  0  0  0  0  0  0  0  0  0  0
  -24.3927   -0.7309   28.5286 C   0  0  0  0  0  0  0  0  0  0  0  0
  -23.5733   -1.2064   29.0224 C   0  0  0  0  0  0  0  0  0  0  0  0
  -22.4103   -1.4745   29.7716 C   0  0  0  0  0  0  0  0  0  0  0  0
  -28.2777    1.4744   26.2682 C   0  0  0  0  0  0  0  0  0  0  0  0
  -29.1316    0.9785   25.6396 O   0  0  0  0  0  0  0  0  0  0  0  0
  -28.5288    2.4853   27.1638 O   0  0  0  0  0  0  0  0  0  0  0  0
  -29.5067   -1.9754   30.2546 C   0  0  0  0  0  0  0  0  0  0  0  0
  -30.5982   -1.9340   29.8765 O   0  0  0  0  0  0  0  0  0  0  0  0
  -29.0361   -2.9839   30.9001 O   0  0  0  0  0  0  0  0  0  0  0  0
  -27.2919    2.1734   31.8621 C   0  0  0  0  0  0  0  0  0  0  0  0
  -27.6303    3.0971   32.1269 O   0  0  0  0  0  0  0  0  0  0  0  0
  -26.3965    1.4679   32.7836 O   0  0  0  0  0  0  0  0  0  0  0  0
  -29.2534    3.5891   26.7230 C   0  0  0  0  0  0  0  0  0  0  0  0
  -30.5443    3.4672   26.8315 C   0  0  0  0  0  0  0  0  0  0  0  0
  -31.2047    4.0995   26.1302 O   0  0  0  0  0  0  0  0  0  0  0  0
  -31.1304    2.6811   27.7602 N   0  0  0  0  0  0  0  0  0  0  0  0
  -32.0678    2.4213   28.1810 C   0  0  0  0  0  0  0  0  0  0  0  0
  -32.3023    1.2909   29.1026 C   0  0  0  0  0  0  0  0  0  0  0  0
  -32.7743    3.5884   28.8614 C   0  0  0  0  0  0  0  0  0  0  0  0
  -34.0608    3.3539   29.6047 C   0  0  0  0  0  0  0  0  0  0  0  0
  -34.6925    4.4121   30.1206 C   0  0  0  0  0  0  0  0  0  0  0  0
  -34.3598    2.0468   29.9345 C   0  0  0  0  0  0  0  0  0  0  0  0
  -33.1329    1.1326   29.9864 C   0  0  0  0  0  0  0  0  0  0  0  0
  3  7  1  0
 11 13  1  0
 13 14  3  0
 14 15  1  0
  8 16  1  0
 16 17  2  0
 16 18  1  0
  2 19  1  0
 19 20  1  0
 19 21  2  0
  6 22  1  0
 22 23  1  0
 22 24  2  0
 18 25  1  0
 25 26  1  0
 26 27  2  0
 26 28  1  0
 28 29  1  0
 33 32  1  0
  7  8  1  0
  8  9  2  0
  9 10  1  0
 10 12  2  0
 12 11  1  0
 11  7  2  0
 29 30  2  0
 30 35  1  0
 35 34  2  0
 34 32  1  0
 32 31  2  0
 31 29  1  0
  1  2  2  0
  2  5  1  0
  5  6  2  0
  6  4  1  0
  4  3  2  0
  3  1  1  0
M  END

$$$$
