No_2098-gen_results/8p0m/2024-11-26-14-13-15/
     RDKit          3D

 30 32  0  0  0  0  0  0  0  0999 V2000
  -28.0162   -0.8135   28.8779 C   0  0  0  0  0  0  0  0  0  0  0  0
  -28.4690   -0.7850   29.8287 C   0  0  0  0  0  0  0  0  0  0  0  0
  -26.5042   -0.7777   28.8766 C   0  0  0  0  0  0  0  0  0  0  0  0
  -25.8103   -0.8531   30.1028 C   0  0  0  0  0  0  0  0  0  0  0  0
  -27.9906   -0.8916   31.2257 C   0  0  0  0  0  0  0  0  0  0  0  0
  -26.6042   -0.8676   31.2652 C   0  0  0  0  0  0  0  0  0  0  0  0
  -30.2937   -0.8377   29.8355 Cl  0  0  0  0  0  0  0  0  0  0  0  0
  -24.3700   -0.8208   30.1393 C   0  0  0  0  0  0  0  0  0  0  0  0
  -23.7914    0.5375   30.1250 C   0  0  0  0  0  0  0  0  0  0  0  0
  -24.1925    1.5531   30.5907 C   0  0  0  0  0  0  0  0  0  0  0  0
  -24.5541    2.6008   30.4140 C   0  0  0  0  0  0  0  0  0  0  0  0
  -25.8097    3.5115   30.3222 C   0  0  0  0  0  0  0  0  0  0  0  0
  -25.7976    4.7999   30.0223 C   0  0  0  0  0  0  0  0  0  0  0  0
  -26.6222    5.5345   30.2763 C   0  0  0  0  0  0  0  0  0  0  0  0
  -27.9564    5.0618   30.6253 C   0  0  0  0  0  0  0  0  0  0  0  0
  -28.0778    3.6765   30.8524 C   0  0  0  0  0  0  0  0  0  0  0  0
  -26.9650    2.8694   30.8110 C   0  0  0  0  0  0  0  0  0  0  0  0
  -22.5780    0.5553   29.2116 C   0  0  0  0  0  0  0  0  0  0  0  0
  -22.4617    1.3799   28.3787 O   0  0  0  0  0  0  0  0  0  0  0  0
  -21.8735   -0.6062   29.1451 O   0  0  0  0  0  0  0  0  0  0  0  0
  -25.7293   -0.6522   27.6388 C   0  0  0  0  0  0  0  0  0  0  0  0
  -29.1859    5.9176   30.7819 C   0  0  0  0  0  0  0  0  0  0  0  0
  -29.0899    7.3745   31.3628 Cl  0  0  0  0  0  0  0  0  0  0  0  0
  -30.3864    5.3943   30.3081 C   0  0  0  0  0  0  0  0  0  0  0  0
  -31.0013    5.7471   29.4258 C   0  0  0  0  0  0  0  0  0  0  0  0
  -30.5929    6.8759   28.5669 C   0  0  0  0  0  0  0  0  0  0  0  0
  -31.4064    7.2130   27.3525 C   0  0  0  0  0  0  0  0  0  0  0  0
  -32.4774    6.3989   27.0367 C   0  0  0  0  0  0  0  0  0  0  0  0
  -32.8376    5.3314   27.7664 C   0  0  0  0  0  0  0  0  0  0  0  0
  -32.1457    5.0003   28.8679 C   0  0  0  0  0  0  0  0  0  0  0  0
  2  7  1  0
  4  8  1  0
  8  9  1  0
  9 10  2  3
 10 11  1  0
  9 18  1  0
 18 19  1  0
 18 20  2  0
  3 21  1  0
 15 22  1  0
 22 23  1  0
 22 24  1  0
 24 25  1  0
 11 12  1  0
 12 13  2  0
 13 14  1  0
 14 15  2  0
 15 16  1  0
 16 17  2  0
 17 12  1  0
 25 26  2  0
 26 27  1  0
 27 28  2  0
 28 29  1  0
 29 30  2  0
 30 25  1  0
  1  2  2  0
  2  5  1  0
  5  6  2  0
  6  4  1  0
  4  3  2  0
  3  1  1  0
M  END

$$$$
