No_282-gen_results/8p0m/2024-11-26-14-13-15/
     RDKit          3D

 15 16  0  0  0  0  0  0  0  0999 V2000
  -28.0727   -1.2542   28.5316 F   0  0  0  0  0  0  0  0  0  0  0  0
  -27.3591   -0.3792   28.7224 C   0  0  0  0  0  0  0  0  0  0  0  0
  -26.3323   -0.6441   29.4520 C   0  0  0  0  0  0  0  0  0  0  0  0
  -25.2562    0.3203   29.7818 C   0  0  0  0  0  0  0  0  0  0  0  0
  -25.4242    1.6275   29.2026 C   0  0  0  0  0  0  0  0  0  0  0  0
  -26.5263    1.8254   28.4032 C   0  0  0  0  0  0  0  0  0  0  0  0
  -27.4513    0.8601   28.1355 C   0  0  0  0  0  0  0  0  0  0  0  0
  -28.5399    1.2022   27.2448 C   0  0  0  0  0  0  0  0  0  0  0  0
  -28.4423    2.0101   26.2543 C   0  0  0  0  0  0  0  0  0  0  0  0
  -27.3504    3.0613   26.3829 C   0  0  0  0  0  0  0  0  0  0  0  0
  -26.3722    2.9149   27.3677 C   0  0  0  0  0  0  0  0  0  0  0  0
  -25.2900    3.9215   27.4925 C   0  0  0  0  0  0  0  0  0  0  0  0
  -24.2055    3.3563   27.6519 F   0  0  0  0  0  0  0  0  0  0  0  0
  -25.5268    4.6649   28.6602 F   0  0  0  0  0  0  0  0  0  0  0  0
  -25.2632    4.8110   26.5535 F   0  0  0  0  0  0  0  0  0  0  0  0
  1  2  1  0
 11 12  1  0
 12 13  1  0
 12 14  1  0
 12 15  1  0
  2  3  2  0
  3  4  1  0
  4  5  2  0
  5  6  1  0
  7  2  1  0
  6  7  2  0
  7  8  1  0
  8  9  2  0
  9 10  1  0
 10 11  2  0
 11  6  1  0
M  END

$$$$
