No_2073-gen_results/8p0m/2024-11-26-14-13-15/
     RDKit          3D

 27 30  0  0  0  0  0  0  0  0999 V2000
  -28.0162   -0.8135   28.8779 C   0  0  0  0  0  0  0  0  0  0  0  0
  -28.4690   -0.7850   29.8287 C   0  0  0  0  0  0  0  0  0  0  0  0
  -28.1816    0.4277   28.1134 C   0  0  0  0  0  0  0  0  0  0  0  0
  -27.4498    0.6435   26.8500 C   0  0  0  0  0  0  0  0  0  0  0  0
  -27.8596    1.4573   25.9076 C   0  0  0  0  0  0  0  0  0  0  0  0
  -29.4263    0.1097   30.4178 C   0  0  0  0  0  0  0  0  0  0  0  0
  -29.6233    1.2198   29.7351 C   0  0  0  0  0  0  0  0  0  0  0  0
  -28.9609    1.4529   28.5513 C   0  0  0  0  0  0  0  0  0  0  0  0
  -28.7869    2.5467   26.3167 C   0  0  0  0  0  0  0  0  0  0  0  0
  -29.4265    2.4288   27.5639 C   0  0  0  0  0  0  0  0  0  0  0  0
  -26.5515   -0.2951   26.4177 O   0  0  0  0  0  0  0  0  0  0  0  0
  -25.1731    0.2028   26.5187 C   0  0  0  0  0  0  0  0  0  0  0  0
  -24.6781    0.8646   27.6287 C   0  0  0  0  0  0  0  0  0  0  0  0
  -24.8653    0.5755   28.7201 C   0  0  0  0  0  0  0  0  0  0  0  0
  -24.2276    1.2675   29.8546 C   0  0  0  0  0  0  0  0  0  0  0  0
  -23.5836    1.8176   27.3341 C   0  0  0  0  0  0  0  0  0  0  0  0
  -24.7272    1.0550   31.2240 C   0  0  0  0  0  0  0  0  0  0  0  0
  -23.1454    2.0955   29.6563 C   0  0  0  0  0  0  0  0  0  0  0  0
  -22.8085    2.3778   28.3249 C   0  0  0  0  0  0  0  0  0  0  0  0
  -25.5483    2.0115   31.8257 C   0  0  0  0  0  0  0  0  0  0  0  0
  -26.0316    3.1437   31.2157 C   0  0  0  0  0  0  0  0  0  0  0  0
  -25.7783    3.4197   29.9025 C   0  0  0  0  0  0  0  0  0  0  0  0
  -26.4564    4.6640   29.3758 C   0  0  0  0  0  0  0  0  0  0  0  0
  -27.3111    5.3285   30.1930 C   0  0  0  0  0  0  0  0  0  0  0  0
  -27.5802    4.9827   31.4896 C   0  0  0  0  0  0  0  0  0  0  0  0
  -27.0032    3.9052   32.0281 C   0  0  0  0  0  0  0  0  0  0  0  0
  -24.3145   -0.1804   31.8249 C   0  0  0  0  0  0  0  0  0  0  0  0
  4 11  1  0
 11 12  1  0
 12 13  1  0
 15 17  1  0
 17 20  1  0
 17 27  1  0
 20 21  1  0
 13 14  2  0
 14 15  1  0
 15 18  2  0
 18 19  1  0
 19 16  2  0
 16 13  1  0
  3  4  2  0
  4  5  1  0
  5  9  2  0
  9 10  1  0
 10  8  2  0
  1  2  2  0
  2  6  1  0
  6  7  2  0
  7  8  1  0
  8  3  1  0
  3  1  1  0
 21 22  2  0
 22 23  1  0
 23 24  2  0
 24 25  1  0
 25 26  2  0
 26 21  1  0
M  END

$$$$
