No_2024-gen_results/8p0m/2024-11-26-14-13-15/
     RDKit          3D

 28 29  0  0  0  0  0  0  0  0999 V2000
  -28.0162   -0.8135   28.8779 C   0  0  0  0  0  0  0  0  0  0  0  0
  -28.4690   -0.7850   29.8287 C   0  0  0  0  0  0  0  0  0  0  0  0
  -27.1356    0.2359   28.5352 C   0  0  0  0  0  0  0  0  0  0  0  0
  -26.8745    1.2825   29.3982 C   0  0  0  0  0  0  0  0  0  0  0  0
  -28.3613    0.1987   30.9244 C   0  0  0  0  0  0  0  0  0  0  0  0
  -27.5277    1.2234   30.6356 C   0  0  0  0  0  0  0  0  0  0  0  0
  -26.3987    0.2949   27.2279 C   0  0  0  0  0  0  0  0  0  0  0  0
  -25.1481    0.1287   27.3794 N   0  0  0  0  0  0  0  0  0  0  0  0
  -26.9676    0.3869   26.1430 O   0  0  0  0  0  0  0  0  0  0  0  0
  -24.2288    0.5417   26.9352 C   0  0  0  0  0  0  0  0  0  0  0  0
  -23.5826    1.7477   27.6776 C   0  0  0  0  0  0  0  0  0  0  0  0
  -22.4249    1.7518   28.0733 C   0  0  0  0  0  0  0  0  0  0  0  0
  -24.3238    3.0549   27.5633 C   0  0  0  0  0  0  0  0  0  0  0  0
  -21.6335    0.5465   28.1701 C   0  0  0  0  0  0  0  0  0  0  0  0
  -25.0191    3.8884   27.5641 N   0  0  0  0  0  0  0  0  0  0  0  0
  -21.8329   -0.3041   29.2890 C   0  0  0  0  0  0  0  0  0  0  0  0
  -23.1278   -0.7676   29.5212 C   0  0  0  0  0  0  0  0  0  0  0  0
  -23.3438   -1.6094   30.7124 C   0  0  0  0  0  0  0  0  0  0  0  0
  -24.3435   -1.1062   31.5364 C   0  0  0  0  0  0  0  0  0  0  0  0
  -24.1271   -0.1379   32.4366 C   0  0  0  0  0  0  0  0  0  0  0  0
  -25.2317    0.4014   33.2799 C   0  0  0  0  0  0  0  0  0  0  0  0
  -25.7324   -1.6217   31.3469 C   0  0  0  0  0  0  0  0  0  0  0  0
  -26.7201   -1.2431   32.3664 C   0  0  0  0  0  0  0  0  0  0  0  0
  -26.4087   -0.2488   33.3018 C   0  0  0  0  0  0  0  0  0  0  0  0
  -27.5133    0.2510   34.1649 C   0  0  0  0  0  0  0  0  0  0  0  0
  -28.6282   -0.3857   34.4454 C   0  0  0  0  0  0  0  0  0  0  0  0
  -28.8645   -1.6449   33.8326 C   0  0  0  0  0  0  0  0  0  0  0  0
  -27.9035   -1.9737   32.6198 C   0  0  0  0  0  0  0  0  0  0  0  0
  3  7  1  0
  7  8  1  0
  7  9  2  0
  8 10  1  0
 10 11  1  0
 11 12  2  3
 11 13  1  0
 12 14  1  0
 13 15  3  0
 14 16  1  0
 16 17  1  0
 17 18  2  3
 18 19  1  0
 24 25  1  0
 25 26  2  3
 26 27  1  0
 27 28  1  0
 19 20  2  0
 20 21  1  0
 21 24  2  0
 24 23  1  0
 23 22  2  0
 22 19  1  0
  1  2  2  0
  2  5  1  0
  5  6  2  0
  6  4  1  0
  4  3  2  0
  3  1  1  0
M  END

$$$$
