No_2270-gen_results/8p0m/2024-11-26-14-13-15/
     RDKit          3D

 20 22  0  0  0  0  0  0  0  0999 V2000
  -28.0162   -0.8135   28.8779 C   0  0  0  0  0  0  0  0  0  0  0  0
  -28.4690   -0.7850   29.8287 C   0  0  0  0  0  0  0  0  0  0  0  0
  -28.1960    0.3478   28.0550 C   0  0  0  0  0  0  0  0  0  0  0  0
  -29.0191    1.3501   28.3782 C   0  0  0  0  0  0  0  0  0  0  0  0
  -29.4107    0.1803   30.3782 C   0  0  0  0  0  0  0  0  0  0  0  0
  -29.2236    2.4924   27.5425 C   0  0  0  0  0  0  0  0  0  0  0  0
  -29.5873    1.2242   29.6185 C   0  0  0  0  0  0  0  0  0  0  0  0
  -28.8767    3.6034   28.0657 C   0  0  0  0  0  0  0  0  0  0  0  0
  -29.1545    3.8376   29.5027 C   0  0  0  0  0  0  0  0  0  0  0  0
  -29.3948    2.6199   30.2722 C   0  0  0  0  0  0  0  0  0  0  0  0
  -27.5433    0.2591   26.6551 C   0  0  0  0  0  0  0  0  0  0  0  0
  -26.0493    0.2280   26.6406 C   0  0  0  0  0  0  0  0  0  0  0  0
  -25.3749    0.8965   25.6704 C   0  0  0  0  0  0  0  0  0  0  0  0
  -24.4599    1.8761   25.8920 C   0  0  0  0  0  0  0  0  0  0  0  0
  -23.6364    1.7962   27.1069 C   0  0  0  0  0  0  0  0  0  0  0  0
  -24.1704    0.8614   28.1130 C   0  0  0  0  0  0  0  0  0  0  0  0
  -25.4468    0.2590   27.9960 C   0  0  0  0  0  0  0  0  0  0  0  0
  -28.2259    0.0819   25.5146 C   0  0  0  0  0  0  0  0  0  0  0  0
  -29.4111    0.2421   25.2543 N   0  0  0  0  0  0  0  0  0  0  0  0
  -30.0543   -0.1283   24.1853 C   0  0  0  0  0  0  0  0  0  0  0  0
  3 11  1  0
 11 12  1  0
 11 18  1  0
 18 19  1  0
 19 20  1  0
 12 13  2  0
 13 14  1  0
 14 15  2  0
 15 16  1  0
 16 17  2  0
 17 12  1  0
  4  6  1  0
  6  8  2  0
  8  9  1  0
  9 10  2  0
 10  7  1  0
  1  2  2  0
  2  5  1  0
  5  7  2  0
  7  4  1  0
  4  3  2  0
  3  1  1  0
M  END

$$$$
