No_2509-gen_results/8p0m/2024-11-26-14-13-15/
     RDKit          3D

 21 23  0  0  0  0  0  0  0  0999 V2000
  -28.0162   -0.8135   28.8779 C   0  0  0  0  0  0  0  0  0  0  0  0
  -27.0636   -0.1189   28.6079 C   0  0  0  0  0  0  0  0  0  0  0  0
  -26.9716    0.7139   27.5060 C   0  0  0  0  0  0  0  0  0  0  0  0
  -28.1053    0.7744   26.6421 C   0  0  0  0  0  0  0  0  0  0  0  0
  -29.2008    0.1044   27.0527 C   0  0  0  0  0  0  0  0  0  0  0  0
  -29.2096   -0.6029   28.1853 C   0  0  0  0  0  0  0  0  0  0  0  0
  -30.2850    0.2735   26.0122 C   0  0  0  0  0  0  0  0  0  0  0  0
  -30.2004    0.4222   24.8730 O   0  0  0  0  0  0  0  0  0  0  0  0
  -31.4556   -0.3905   26.4832 O   0  0  0  0  0  0  0  0  0  0  0  0
  -25.7078   -0.2062   29.4460 C   0  0  0  0  0  0  0  0  0  0  0  0
  -25.1994    1.0069   30.0366 C   0  0  0  0  0  0  0  0  0  0  0  0
  -25.4827    1.3472   30.9934 C   0  0  0  0  0  0  0  0  0  0  0  0
  -25.9284    0.6986   32.0603 C   0  0  0  0  0  0  0  0  0  0  0  0
  -26.2859    1.2428   33.3928 C   0  0  0  0  0  0  0  0  0  0  0  0
  -26.1574    2.5940   33.5753 C   0  0  0  0  0  0  0  0  0  0  0  0
  -25.3650    2.9084   31.4035 C   0  0  0  0  0  0  0  0  0  0  0  0
  -25.6889    3.4209   32.5957 C   0  0  0  0  0  0  0  0  0  0  0  0
  -23.6533    0.9537   29.7193 C   0  0  0  0  0  0  0  0  0  0  0  0
  -23.0256   -0.1168   29.2314 C   0  0  0  0  0  0  0  0  0  0  0  0
  -24.5879   -1.0017   28.6485 C   0  0  0  0  0  0  0  0  0  0  0  0
  -25.9317   -1.0499   30.7411 C   0  0  0  0  0  0  0  0  0  0  0  0
  5  7  1  0
  7  8  2  0
  7  9  1  0
  2 10  1  0
 10 11  1  0
 11 12  1  0
 11 18  1  0
 18 19  2  0
 10 20  1  0
 19 20  1  0
 10 21  1  0
 12 13  2  0
 13 14  1  0
 14 15  2  0
 15 17  1  0
 17 16  2  0
 16 12  1  0
  1  2  2  0
  2  3  1  0
  3  4  2  0
  4  5  1  0
  5  6  2  0
  6  1  1  0
M  END

$$$$
