No_2708-gen_results/8p0m/2024-11-26-14-13-15/
     RDKit          3D

 27 28  0  0  0  0  0  0  0  0999 V2000
  -28.0162   -0.8135   28.8779 C   0  0  0  0  0  0  0  0  0  0  0  0
  -27.0636   -0.1190   28.6079 C   0  0  0  0  0  0  0  0  0  0  0  0
  -26.9716    0.7139   27.5060 C   0  0  0  0  0  0  0  0  0  0  0  0
  -25.8205    1.4909   27.1160 C   0  0  0  0  0  0  0  0  0  0  0  0
  -24.8579    1.3421   27.6008 C   0  0  0  0  0  0  0  0  0  0  0  0
  -24.6224    0.5295   28.8144 C   0  0  0  0  0  0  0  0  0  0  0  0
  -25.7344   -0.1811   29.1908 C   0  0  0  0  0  0  0  0  0  0  0  0
  -28.6330   -0.4621   30.2455 C   0  0  0  0  0  0  0  0  0  0  0  0
  -29.6709   -0.4110   30.5321 C   0  0  0  0  0  0  0  0  0  0  0  0
  -30.1992   -0.0547   31.8752 C   0  0  0  0  0  0  0  0  0  0  0  0
  -29.2903    0.1709   32.8841 C   0  0  0  0  0  0  0  0  0  0  0  0
  -27.9304    0.0181   32.5897 C   0  0  0  0  0  0  0  0  0  0  0  0
  -27.5589   -0.3042   31.3736 C   0  0  0  0  0  0  0  0  0  0  0  0
  -23.5183    2.1266   27.2480 C   0  0  0  0  0  0  0  0  0  0  0  0
  -23.2399    1.9076   26.0344 F   0  0  0  0  0  0  0  0  0  0  0  0
  -22.4045    1.7276   27.9453 F   0  0  0  0  0  0  0  0  0  0  0  0
  -23.7158    3.4486   27.4052 F   0  0  0  0  0  0  0  0  0  0  0  0
  -28.0801    0.9175   26.8023 F   0  0  0  0  0  0  0  0  0  0  0  0
  -26.9254    0.2504   33.6427 C   0  0  0  0  0  0  0  0  0  0  0  0
  -26.0661    1.3413   33.5333 C   0  0  0  0  0  0  0  0  0  0  0  0
  -26.7996   -0.6604   34.7118 C   0  0  0  0  0  0  0  0  0  0  0  0
  -26.4515    2.6677   34.0336 C   0  0  0  0  0  0  0  0  0  0  0  0
  -25.9259    3.8365   33.3349 C   0  0  0  0  0  0  0  0  0  0  0  0
  -26.2147    3.9881   32.1038 C   0  0  0  0  0  0  0  0  0  0  0  0
  -27.5001    3.7014   31.4399 Cl  0  0  0  0  0  0  0  0  0  0  0  0
  -25.0790    4.5592   31.2235 C   0  0  0  0  0  0  0  0  0  0  0  0
  -24.0783    4.6153   31.5194 O   0  0  0  0  0  0  0  0  0  0  0  0
  1  2  2  3
  2  3  1  0
  3  4  1  0
  4  5  1  0
  5  6  1  0
  2  7  1  0
  6  7  1  0
  1  8  1  0
  5 14  1  0
 14 15  1  0
 14 16  1  0
 14 17  1  0
  3 18  1  0
 12 19  1  0
 19 20  1  0
 19 21  1  0
 20 22  1  0
 22 23  2  3
 23 24  1  0
 24 25  1  0
 24 26  1  0
 26 27  2  0
  8  9  2  0
  9 10  1  0
 10 11  2  0
 11 12  1  0
 12 13  2  0
 13  8  1  0
M  END

$$$$
