No_295-gen_results/8p0m/2024-11-26-14-13-15/
     RDKit          3D

 21 22  0  0  0  0  0  0  0  0999 V2000
  -28.0162   -0.8135   28.8779 C   0  0  0  0  0  0  0  0  0  0  0  0
  -28.4690   -0.7850   29.8287 C   0  0  0  0  0  0  0  0  0  0  0  0
  -26.5455   -0.8762   28.8500 C   0  0  0  0  0  0  0  0  0  0  0  0
  -25.6825   -0.7773   27.6829 C   0  0  0  0  0  0  0  0  0  0  0  0
  -27.9181   -1.0034   31.1877 C   0  0  0  0  0  0  0  0  0  0  0  0
  -26.5308   -1.0794   31.2463 C   0  0  0  0  0  0  0  0  0  0  0  0
  -25.7798   -1.0462   30.0905 C   0  0  0  0  0  0  0  0  0  0  0  0
  -25.8976    0.2387   26.7449 C   0  0  0  0  0  0  0  0  0  0  0  0
  -25.6318    1.4984   27.0379 C   0  0  0  0  0  0  0  0  0  0  0  0
  -25.9064    2.5028   26.1402 C   0  0  0  0  0  0  0  0  0  0  0  0
  -26.5787    2.1721   24.9744 C   0  0  0  0  0  0  0  0  0  0  0  0
  -26.6336    0.0222   25.5558 C   0  0  0  0  0  0  0  0  0  0  0  0
  -26.9368    0.9400   24.7148 C   0  0  0  0  0  0  0  0  0  0  0  0
  -24.3787   -1.1965   30.1022 C   0  0  0  0  0  0  0  0  0  0  0  0
  -23.6194   -0.7492   30.6980 C   0  0  0  0  0  0  0  0  0  0  0  0
  -22.1176   -0.8278   30.5863 C   0  0  0  0  0  0  0  0  0  0  0  0
  -23.9290   -2.5152   29.4410 C   0  0  0  0  0  0  0  0  0  0  0  0
  -24.7535   -3.2817   28.9485 F   0  0  0  0  0  0  0  0  0  0  0  0
  -21.7702   -0.7117   29.2860 C   0  0  0  0  0  0  0  0  0  0  0  0
  -20.5763   -0.0463   29.1189 N   0  0  0  0  0  0  0  0  0  0  0  0
  -22.9503   -2.2507   28.5951 F   0  0  0  0  0  0  0  0  0  0  0  0
  3  4  1  0
  4  8  1  0
  7 14  1  0
 14 15  2  3
 15 16  1  0
 14 17  1  0
 17 18  1  0
 16 19  1  0
 19 20  1  0
 17 21  1  0
  1  2  2  0
  2  5  1  0
  5  6  2  0
  6  7  1  0
  7  3  2  0
  3  1  1  0
  8  9  2  0
  9 10  1  0
 10 11  2  0
 11 13  1  0
 13 12  2  0
 12  8  1  0
M  END

$$$$
