No_2186-gen_results/8p0m/2024-11-26-14-13-15/
     RDKit          3D

 25 27  0  0  0  0  0  0  0  0999 V2000
  -28.0162   -0.8135   28.8779 C   0  0  0  0  0  0  0  0  0  0  0  0
  -27.0636   -0.1190   28.6079 C   0  0  0  0  0  0  0  0  0  0  0  0
  -26.9716    0.7139   27.5060 C   0  0  0  0  0  0  0  0  0  0  0  0
  -28.1053    0.7744   26.6421 C   0  0  0  0  0  0  0  0  0  0  0  0
  -29.2008    0.1044   27.0527 C   0  0  0  0  0  0  0  0  0  0  0  0
  -28.0219   -1.5899   30.0879 C   0  0  0  0  0  0  0  0  0  0  0  0
  -29.1640   -0.6394   28.1484 C   0  0  0  0  0  0  0  0  0  0  0  0
  -27.0665   -2.4543   30.3037 N   0  0  0  0  0  0  0  0  0  0  0  0
  -29.0149   -1.6588   30.8762 O   0  0  0  0  0  0  0  0  0  0  0  0
  -30.3863    0.2057   26.1774 C   0  0  0  0  0  0  0  0  0  0  0  0
  -31.2733   -0.4044   26.3348 O   0  0  0  0  0  0  0  0  0  0  0  0
  -30.5542    1.2897   25.4602 F   0  0  0  0  0  0  0  0  0  0  0  0
  -26.4916   -3.1440   29.7277 C   0  0  0  0  0  0  0  0  0  0  0  0
  -26.7877   -4.4986   29.6727 C   0  0  0  0  0  0  0  0  0  0  0  0
  -25.2155   -2.8274   29.0194 C   0  0  0  0  0  0  0  0  0  0  0  0
  -24.3349   -3.8389   28.5619 C   0  0  0  0  0  0  0  0  0  0  0  0
  -27.8642   -4.8562   30.4554 N   0  0  0  0  0  0  0  0  0  0  0  0
  -24.7064   -5.1878   28.7613 C   0  0  0  0  0  0  0  0  0  0  0  0
  -25.8494   -5.4768   29.3748 C   0  0  0  0  0  0  0  0  0  0  0  0
  -25.7134    1.4380   27.1246 C   0  0  0  0  0  0  0  0  0  0  0  0
  -25.6007    2.7369   27.4604 C   0  0  0  0  0  0  0  0  0  0  0  0
  -24.4442    3.4544   27.0409 C   0  0  0  0  0  0  0  0  0  0  0  0
  -23.3684    2.7607   26.4135 C   0  0  0  0  0  0  0  0  0  0  0  0
  -24.7235    0.7801   26.4290 C   0  0  0  0  0  0  0  0  0  0  0  0
  -23.5376    1.4736   26.0817 C   0  0  0  0  0  0  0  0  0  0  0  0
  1  6  1  0
  6  8  1  0
  6  9  2  0
  5 10  1  0
 10 11  2  0
 10 12  1  0
  8 13  1  0
 14 17  1  0
  3 20  1  0
 13 14  2  0
 14 19  1  0
 19 18  2  0
 18 16  1  0
 16 15  2  0
 15 13  1  0
  1  2  2  0
  2  3  1  0
  3  4  2  0
  4  5  1  0
  5  7  2  0
  7  1  1  0
 20 21  2  0
 21 22  1  0
 22 23  2  0
 23 25  1  0
 25 24  2  0
 24 20  1  0
M  END

$$$$
