No_2652-gen_results/8p0m/2024-11-26-14-13-15/
     RDKit          3D

 18 19  0  0  0  0  0  0  0  0999 V2000
  -28.0162   -0.8135   28.8779 C   0  0  0  0  0  0  0  0  0  0  0  0
  -28.4690   -0.7850   29.8287 C   0  0  0  0  0  0  0  0  0  0  0  0
  -28.1816    0.4277   28.1134 C   0  0  0  0  0  0  0  0  0  0  0  0
  -27.4498    0.6435   26.8500 C   0  0  0  0  0  0  0  0  0  0  0  0
  -27.8596    1.4573   25.9076 C   0  0  0  0  0  0  0  0  0  0  0  0
  -28.3080   -1.9885   30.8635 C   0  0  0  0  0  0  0  0  0  0  0  0
  -27.5277   -3.0190   30.3596 C   0  0  0  0  0  0  0  0  0  0  0  0
  -26.7389   -2.8481   29.2719 C   0  0  0  0  0  0  0  0  0  0  0  0
  -26.9091   -1.6576   28.5337 C   0  0  0  0  0  0  0  0  0  0  0  0
  -28.9559    2.3522   26.0931 C   0  0  0  0  0  0  0  0  0  0  0  0
  -29.6155    2.2334   27.3096 C   0  0  0  0  0  0  0  0  0  0  0  0
  -29.2776    1.2382   28.2547 C   0  0  0  0  0  0  0  0  0  0  0  0
  -25.7922   -3.7572   28.9720 O   0  0  0  0  0  0  0  0  0  0  0  0
  -24.4400   -3.3394   29.0680 C   0  0  0  0  0  0  0  0  0  0  0  0
  -26.8887    1.6323   24.5032 Cl  0  0  0  0  0  0  0  0  0  0  0  0
  -29.2086   -2.2171   32.0445 C   0  0  0  0  0  0  0  0  0  0  0  0
  -30.0743   -1.6020   32.0927 O   0  0  0  0  0  0  0  0  0  0  0  0
  -28.7327   -3.0489   32.8309 O   0  0  0  0  0  0  0  0  0  0  0  0
  8 13  1  0
 13 14  1  0
  5 15  1  0
  6 16  1  0
 16 17  2  0
 16 18  1  0
  3  1  1  0
  3  4  2  0
  4  5  1  0
  5 10  2  0
 10 11  1  0
 11 12  2  0
 12  3  1  0
  1  2  2  0
  2  6  1  0
  6  7  2  0
  7  8  1  0
  8  9  2  0
  9  1  1  0
M  END

$$$$
