No_2894-gen_results/8p0m/2024-11-26-14-13-15/
     RDKit          3D

 13 13  0  0  0  0  0  0  0  0999 V2000
  -28.0162   -0.8135   28.8779 C   0  0  0  0  0  0  0  0  0  0  0  0
  -27.0636   -0.1189   28.6079 C   0  0  0  0  0  0  0  0  0  0  0  0
  -25.7923   -0.4302   29.0761 C   0  0  0  0  0  0  0  0  0  0  0  0
  -25.5756   -1.5654   29.9363 C   0  0  0  0  0  0  0  0  0  0  0  0
  -26.7354   -2.3004   30.2173 C   0  0  0  0  0  0  0  0  0  0  0  0
  -27.9184   -1.9537   29.7629 C   0  0  0  0  0  0  0  0  0  0  0  0
  -29.0001   -2.7012   30.1151 O   0  0  0  0  0  0  0  0  0  0  0  0
  -24.4133    0.1621   28.8546 C   0  0  0  0  0  0  0  0  0  0  0  0
  -24.0445    1.2607   29.5470 C   0  0  0  0  0  0  0  0  0  0  0  0
  -24.7286    1.8717   30.4589 C   0  0  0  0  0  0  0  0  0  0  0  0
  -23.4186    2.2220   28.5525 C   0  0  0  0  0  0  0  0  0  0  0  0
  -22.7297    0.6895   30.4157 C   0  0  0  0  0  0  0  0  0  0  0  0
  -23.8483   -0.1876   27.7461 O   0  0  0  0  0  0  0  0  0  0  0  0
  6  7  1  0
  3  8  1  0
  8  9  1  0
  9 10  1  0
  9 11  1  0
  9 12  1  0
  8 13  2  0
  1  2  2  0
  2  3  1  0
  3  4  2  0
  4  5  1  0
  5  6  2  0
  6  1  1  0
M  END

$$$$
