No_2439-gen_results/8p0m/2024-11-26-14-13-15/
     RDKit          3D

 20 22  0  0  0  0  0  0  0  0999 V2000
  -28.0162   -0.8135   28.8779 C   0  0  0  0  0  0  0  0  0  0  0  0
  -28.4690   -0.7850   29.8287 C   0  0  0  0  0  0  0  0  0  0  0  0
  -27.1356    0.2359   28.5352 C   0  0  0  0  0  0  0  0  0  0  0  0
  -26.8745    1.2825   29.3982 C   0  0  0  0  0  0  0  0  0  0  0  0
  -28.3613    0.1987   30.9244 C   0  0  0  0  0  0  0  0  0  0  0  0
  -27.5277    1.2234   30.6356 C   0  0  0  0  0  0  0  0  0  0  0  0
  -26.3987    0.2949   27.2279 C   0  0  0  0  0  0  0  0  0  0  0  0
  -26.9022    0.7280   26.2134 C   0  0  0  0  0  0  0  0  0  0  0  0
  -26.1747    0.6364   24.9259 C   0  0  0  0  0  0  0  0  0  0  0  0
  -25.0769   -0.2067   27.2393 C   0  0  0  0  0  0  0  0  0  0  0  0
  -24.2656   -0.1217   26.1499 C   0  0  0  0  0  0  0  0  0  0  0  0
  -24.8747    0.2819   24.9272 C   0  0  0  0  0  0  0  0  0  0  0  0
  -24.4075   -0.6566   28.5073 C   0  0  0  0  0  0  0  0  0  0  0  0
  -23.4554   -0.8332   29.0517 C   0  0  0  0  0  0  0  0  0  0  0  0
  -23.1737   -1.4385   30.2392 C   0  0  0  0  0  0  0  0  0  0  0  0
  -24.3945   -1.5873   30.9325 C   0  0  0  0  0  0  0  0  0  0  0  0
  -25.4479   -1.0625   29.6531 C   0  0  0  0  0  0  0  0  0  0  0  0
  -25.7469   -2.5465   29.3482 C   0  0  0  0  0  0  0  0  0  0  0  0
  -25.2874   -3.4853   30.3661 C   0  0  0  0  0  0  0  0  0  0  0  0
  -24.7686   -2.9682   31.1958 O   0  0  0  0  0  0  0  0  0  0  0  0
  3  7  1  0
 10 13  1  0
 13 14  1  0
 14 15  2  0
 15 16  1  0
 13 17  1  0
 16 17  2  0
 17 18  1  0
 18 19  1  0
 19 20  2  0
  1  2  2  0
  2  5  1  0
  5  6  2  0
  6  4  1  0
  4  3  2  0
  3  1  1  0
  7  8  2  0
  8  9  1  0
  9 12  2  0
 12 11  1  0
 11 10  2  0
 10  7  1  0
M  END

$$$$
