No_2559-gen_results/8p0m/2024-11-26-14-13-15/
     RDKit          3D

 21 22  0  0  0  0  0  0  0  0999 V2000
  -28.0162   -0.8135   28.8779 C   0  0  0  0  0  0  0  0  0  0  0  0
  -28.4690   -0.7850   29.8287 C   0  0  0  0  0  0  0  0  0  0  0  0
  -26.6082   -0.9454   28.8569 N   0  0  0  0  0  0  0  0  0  0  0  0
  -25.9102   -0.3004   29.3281 C   0  0  0  0  0  0  0  0  0  0  0  0
  -26.3299    0.1873   30.7599 C   0  0  0  0  0  0  0  0  0  0  0  0
  -27.7846    0.0850   31.0018 C   0  0  0  0  0  0  0  0  0  0  0  0
  -29.9812   -0.8886   30.2138 C   0  0  0  0  0  0  0  0  0  0  0  0
  -30.2802   -2.1104   30.7797 C   0  0  0  0  0  0  0  0  0  0  0  0
  -29.4288   -2.8540   31.3569 C   0  0  0  0  0  0  0  0  0  0  0  0
  -29.7227   -4.2706   31.7940 C   0  0  0  0  0  0  0  0  0  0  0  0
  -30.9863   -4.7042   31.5908 C   0  0  0  0  0  0  0  0  0  0  0  0
  -31.9333   -3.8912   30.9572 C   0  0  0  0  0  0  0  0  0  0  0  0
  -31.5873   -2.6737   30.5549 C   0  0  0  0  0  0  0  0  0  0  0  0
  -30.7550   -0.0296   29.9202 O   0  0  0  0  0  0  0  0  0  0  0  0
  -24.4158   -0.2573   29.2317 C   0  0  0  0  0  0  0  0  0  0  0  0
  -23.4115   -0.9959   29.6904 C   0  0  0  0  0  0  0  0  0  0  0  0
  -23.9125    1.0865   28.6851 C   0  0  0  0  0  0  0  0  0  0  0  0
  -23.0073    1.2137   28.2478 C   0  0  0  0  0  0  0  0  0  0  0  0
  -21.7282    0.4875   28.6203 C   0  0  0  0  0  0  0  0  0  0  0  0
  -22.0257   -0.6978   29.3173 C   0  0  0  0  0  0  0  0  0  0  0  0
  -23.7003   -2.4342   30.4842 Cl  0  0  0  0  0  0  0  0  0  0  0  0
  2  7  1  0
  7  8  1  0
  7 14  2  0
  4 15  1  0
 15 16  1  0
 15 17  1  0
 17 18  2  3
 18 19  1  0
 19 20  2  0
 16 21  1  0
  1  2  2  0
  2  6  1  0
  6  5  2  0
  5  4  1  0
  4  3  2  0
  3  1  1  0
  8  9  2  0
  9 10  1  0
 10 11  2  0
 11 12  1  0
 12 13  2  0
 13  8  1  0
M  END

$$$$
