No_2752-gen_results/8p0m/2024-11-26-14-13-15/
     RDKit          3D

 17 18  0  0  0  0  0  0  0  0999 V2000
  -28.0162   -0.8135   28.8779 C   0  0  0  0  0  0  0  0  0  0  0  0
  -27.0636   -0.1189   28.6079 C   0  0  0  0  0  0  0  0  0  0  0  0
  -26.9287    1.1713   29.0083 C   0  0  0  0  0  0  0  0  0  0  0  0
  -27.9560    1.7411   29.7840 C   0  0  0  0  0  0  0  0  0  0  0  0
  -29.0569   -0.3271   29.7466 C   0  0  0  0  0  0  0  0  0  0  0  0
  -28.9828    0.9722   30.1516 C   0  0  0  0  0  0  0  0  0  0  0  0
  -25.8907   -0.6263   27.7857 C   0  0  0  0  0  0  0  0  0  0  0  0
  -25.4633    0.1123   26.6815 C   0  0  0  0  0  0  0  0  0  0  0  0
  -26.2851    1.1179   26.2362 C   0  0  0  0  0  0  0  0  0  0  0  0
  -27.4558    1.2665   26.2588 C   0  0  0  0  0  0  0  0  0  0  0  0
  -28.0252    2.3085   25.3760 C   0  0  0  0  0  0  0  0  0  0  0  0
  -29.4066    2.5065   25.3313 C   0  0  0  0  0  0  0  0  0  0  0  0
  -30.2290    1.6254   26.0318 C   0  0  0  0  0  0  0  0  0  0  0  0
  -29.7359    0.6030   26.7604 C   0  0  0  0  0  0  0  0  0  0  0  0
  -28.4223    0.3711   26.8666 C   0  0  0  0  0  0  0  0  0  0  0  0
  -28.1456   -0.7556   26.8950 O   0  0  0  0  0  0  0  0  0  0  0  0
  -27.3857   -1.7842   29.9254 O   0  0  0  0  0  0  0  0  0  0  0  0
  2  7  1  0
  7  8  2  3
  8  9  1  0
 15 16  1  0
  1 17  1  0
  9 10  1  0
  1  2  2  0
  2  3  1  0
  3  4  2  0
  4  6  1  0
  6  5  2  0
  5  1  1  0
 10 11  2  0
 11 12  1  0
 12 13  2  0
 13 14  1  0
 14 15  2  0
 15 10  1  0
M  END

$$$$
