No_2967-gen_results/8p0m/2024-11-26-14-13-15/
     RDKit          3D

 15 16  0  0  0  0  0  0  0  0999 V2000
  -28.0162   -0.8135   28.8779 C   0  0  0  0  0  0  0  0  0  0  0  0
  -28.4690   -0.7850   29.8287 C   0  0  0  0  0  0  0  0  0  0  0  0
  -26.5042   -0.7777   28.8766 C   0  0  0  0  0  0  0  0  0  0  0  0
  -25.6540   -0.6597   27.7191 C   0  0  0  0  0  0  0  0  0  0  0  0
  -27.9180   -0.9374   31.1824 C   0  0  0  0  0  0  0  0  0  0  0  0
  -26.5423   -0.9399   31.2606 C   0  0  0  0  0  0  0  0  0  0  0  0
  -25.7832   -0.8935   30.1201 C   0  0  0  0  0  0  0  0  0  0  0  0
  -24.3632   -0.5034   27.8686 N   0  0  0  0  0  0  0  0  0  0  0  0
  -23.6484   -0.7379   29.0114 C   0  0  0  0  0  0  0  0  0  0  0  0
  -24.3919   -0.8177   30.2070 C   0  0  0  0  0  0  0  0  0  0  0  0
  -21.9653   -0.5785   29.0188 Cl  0  0  0  0  0  0  0  0  0  0  0  0
  -26.1131   -0.4945   26.5865 O   0  0  0  0  0  0  0  0  0  0  0  0
  -30.0621   -0.8493   29.8761 C   0  0  0  0  0  0  0  0  0  0  0  0
  -30.6390   -0.1799   29.1344 O   0  0  0  0  0  0  0  0  0  0  0  0
  -30.6725   -1.3580   30.9251 O   0  0  0  0  0  0  0  0  0  0  0  0
  3  4  1  0
  4  8  1  0
  7 10  1  0
  9 10  1  0
  9 11  1  0
  4 12  2  0
  2 13  1  0
 13 14  2  0
 13 15  1  0
  9  8  1  0
  1  2  2  0
  2  5  1  0
  5  6  2  0
  6  7  1  0
  7  3  2  0
  3  1  1  0
M  END

$$$$
