No_2020-gen_results/8p0m/2024-11-26-14-13-15/
     RDKit          3D

 16 16  0  0  0  0  0  0  0  0999 V2000
  -28.0162   -0.8135   28.8779 C   0  0  0  0  0  0  0  0  0  0  0  0
  -28.4690   -0.7850   29.8287 C   0  0  0  0  0  0  0  0  0  0  0  0
  -28.1816    0.4277   28.1134 C   0  0  0  0  0  0  0  0  0  0  0  0
  -28.9841    1.4155   28.5154 C   0  0  0  0  0  0  0  0  0  0  0  0
  -29.3802    0.1384   30.4612 C   0  0  0  0  0  0  0  0  0  0  0  0
  -29.5415    1.2736   29.7242 C   0  0  0  0  0  0  0  0  0  0  0  0
  -27.4197    0.5685   26.5139 Cl  0  0  0  0  0  0  0  0  0  0  0  0
  -30.3718    2.2088   30.2507 O   0  0  0  0  0  0  0  0  0  0  0  0
  -31.2050    2.7726   29.6901 C   0  0  0  0  0  0  0  0  0  0  0  0
  -31.1640    4.1094   29.6310 C   0  0  0  0  0  0  0  0  0  0  0  0
  -30.6111    4.8674   30.6403 C   0  0  0  0  0  0  0  0  0  0  0  0
  -30.3330    5.9013   30.8169 C   0  0  0  0  0  0  0  0  0  0  0  0
  -29.6805    6.5425   31.9801 C   0  0  0  0  0  0  0  0  0  0  0  0
  -29.3215    5.6321   33.0056 C   0  0  0  0  0  0  0  0  0  0  0  0
  -29.5599    4.2968   32.8446 C   0  0  0  0  0  0  0  0  0  0  0  0
  -30.1380    3.8634   31.7215 C   0  0  0  0  0  0  0  0  0  0  0  0
  3  7  1  0
  6  8  1  0
  8  9  1  0
  9 10  1  0
 10 11  2  3
 11 12  1  0
 12 13  2  3
 13 14  1  0
 14 15  2  3
 15 16  1  0
  1  2  2  0
  2  5  1  0
  5  6  2  0
  6  4  1  0
  4  3  2  0
  3  1  1  0
M  END

$$$$
