No_2131-gen_results/8p0m/2024-11-26-14-13-15/
     RDKit          3D

 27 29  0  0  0  0  0  0  0  0999 V2000
  -28.0162   -0.8135   28.8779 C   0  0  0  0  0  0  0  0  0  0  0  0
  -28.4690   -0.7850   29.8287 C   0  0  0  0  0  0  0  0  0  0  0  0
  -27.0871    0.2903   28.6377 C   0  0  0  0  0  0  0  0  0  0  0  0
  -26.8317    1.2487   29.5869 C   0  0  0  0  0  0  0  0  0  0  0  0
  -28.3914    0.0801   31.0065 C   0  0  0  0  0  0  0  0  0  0  0  0
  -27.4940    1.1521   30.7841 C   0  0  0  0  0  0  0  0  0  0  0  0
  -26.3109    0.3918   27.3640 C   0  0  0  0  0  0  0  0  0  0  0  0
  -26.7672    1.0252   26.3723 C   0  0  0  0  0  0  0  0  0  0  0  0
  -26.0109    1.0160   25.1236 C   0  0  0  0  0  0  0  0  0  0  0  0
  -25.0722   -0.2318   27.3154 C   0  0  0  0  0  0  0  0  0  0  0  0
  -24.2244   -0.1270   26.2435 C   0  0  0  0  0  0  0  0  0  0  0  0
  -24.7408    0.4870   25.0666 C   0  0  0  0  0  0  0  0  0  0  0  0
  -24.5259   -0.8827   28.4277 N   0  0  0  0  0  0  0  0  0  0  0  0
  -23.4389   -0.4379   29.1533 C   0  0  0  0  0  0  0  0  0  0  0  0
  -22.6782    0.4635   28.8940 C   0  0  0  0  0  0  0  0  0  0  0  0
  -25.0495   -2.2357   28.6893 C   0  0  0  0  0  0  0  0  0  0  0  0
  -23.3498   -1.1459   30.4731 C   0  0  0  0  0  0  0  0  0  0  0  0
  -24.3762   -3.0716   29.3697 C   0  0  0  0  0  0  0  0  0  0  0  0
  -24.8467   -4.3478   29.5850 N   0  0  0  0  0  0  0  0  0  0  0  0
  -23.7625   -2.4589   30.7600 C   0  0  0  0  0  0  0  0  0  0  0  0
  -26.1625   -4.5186   29.7212 C   0  0  0  0  0  0  0  0  0  0  0  0
  -26.8901   -5.4189   30.3498 C   0  0  0  0  0  0  0  0  0  0  0  0
  -28.3240   -5.2754   30.4611 C   0  0  0  0  0  0  0  0  0  0  0  0
  -29.2553   -4.6930   30.7941 C   0  0  0  0  0  0  0  0  0  0  0  0
  -30.4971   -4.7972   30.7343 C   0  0  0  0  0  0  0  0  0  0  0  0
  -30.9502   -5.8750   29.9190 C   0  0  0  0  0  0  0  0  0  0  0  0
  -30.2118   -6.4483   29.0884 C   0  0  0  0  0  0  0  0  0  0  0  0
  3  7  1  0
 10 13  1  0
 13 14  1  0
 14 15  1  0
 13 16  1  0
 14 17  1  0
 18 19  1  0
 18 20  1  0
 19 21  1  0
 21 22  1  0
 22 23  2  3
 23 24  1  0
 24 25  2  3
 25 26  1  0
 26 27  2  0
 17 20  1  0
 18 16  1  0
  1  2  2  0
  2  5  1  0
  5  6  2  0
  6  4  1  0
  4  3  2  0
  3  1  1  0
  7  8  2  0
  8  9  1  0
  9 12  2  0
 12 11  1  0
 11 10  2  0
 10  7  1  0
M  END

$$$$
