No_2219-gen_results/8p0m/2024-11-26-14-13-15/
     RDKit          3D

  9  8  0  0  0  0  0  0  0  0999 V2000
  -28.1229   -1.3353   28.4874 O   0  0  0  0  0  0  0  0  0  0  0  0
  -28.5208   -0.4363   29.0779 C   0  0  0  0  0  0  0  0  0  0  0  0
  -29.6218   -0.0586   29.1075 O   0  0  0  0  0  0  0  0  0  0  0  0
  -27.4030    0.3231   29.9118 C   0  0  0  0  0  0  0  0  0  0  0  0
  -26.3404   -0.0483   29.9852 C   0  0  0  0  0  0  0  0  0  0  0  0
  -25.3187    0.0244   29.6539 C   0  0  0  0  0  0  0  0  0  0  0  0
  -24.0190   -0.6826   29.9852 C   0  0  0  0  0  0  0  0  0  0  0  0
  -24.2620   -1.8117   30.7704 C   0  0  0  0  0  0  0  0  0  0  0  0
  -25.4942   -2.1691   31.1526 C   0  0  0  0  0  0  0  0  0  0  0  0
  1  2  2  0
  2  3  1  0
  2  4  1  0
  4  5  2  3
  5  6  1  0
  6  7  2  3
  7  8  1  0
  8  9  2  0
M  END

$$$$
