No_269-gen_results/8p0m/2024-11-26-14-13-15/
     RDKit          3D

 25 26  0  0  0  0  0  0  0  0999 V2000
  -28.0162   -0.8135   28.8779 C   0  0  0  0  0  0  0  0  0  0  0  0
  -27.0636   -0.1189   28.6079 C   0  0  0  0  0  0  0  0  0  0  0  0
  -27.0010    0.6913   27.4910 C   0  0  0  0  0  0  0  0  0  0  0  0
  -25.8548    1.4825   27.0830 C   0  0  0  0  0  0  0  0  0  0  0  0
  -24.9008    1.3894   27.5922 C   0  0  0  0  0  0  0  0  0  0  0  0
  -24.6783    0.5764   28.8299 C   0  0  0  0  0  0  0  0  0  0  0  0
  -25.7704   -0.2051   29.2800 C   0  0  0  0  0  0  0  0  0  0  0  0
  -27.8957   -1.5414   30.0594 N   0  0  0  0  0  0  0  0  0  0  0  0
  -23.5769    2.1908   27.3210 C   0  0  0  0  0  0  0  0  0  0  0  0
  -23.5816    2.7557   26.2476 F   0  0  0  0  0  0  0  0  0  0  0  0
  -23.2333    3.0786   28.2852 F   0  0  0  0  0  0  0  0  0  0  0  0
  -22.4516    1.3675   27.2519 F   0  0  0  0  0  0  0  0  0  0  0  0
  -29.0889   -0.8138   28.3889 O   0  0  0  0  0  0  0  0  0  0  0  0
  -29.0059   -2.4450   30.6140 C   0  0  0  0  0  0  0  0  0  0  0  0
  -28.8275   -3.7811   30.2713 C   0  0  0  0  0  0  0  0  0  0  0  0
  -29.0375   -4.6151   31.2014 O   0  0  0  0  0  0  0  0  0  0  0  0
  -30.3902   -4.8717   31.4549 C   0  0  0  0  0  0  0  0  0  0  0  0
  -31.0049   -4.3985   32.4734 C   0  0  0  0  0  0  0  0  0  0  0  0
  -31.6859   -3.5353   32.5051 C   0  0  0  0  0  0  0  0  0  0  0  0
  -31.5634   -2.4290   33.4267 C   0  0  0  0  0  0  0  0  0  0  0  0
  -30.9874   -2.7153   34.7355 C   0  0  0  0  0  0  0  0  0  0  0  0
  -30.2440   -3.9240   34.7880 C   0  0  0  0  0  0  0  0  0  0  0  0
  -30.1356   -4.7050   33.6887 C   0  0  0  0  0  0  0  0  0  0  0  0
  -30.3282   -6.4673   31.4260 C   0  0  0  0  0  0  0  0  0  0  0  0
  -31.1935   -4.6696   30.1864 C   0  0  0  0  0  0  0  0  0  0  0  0
  1  2  1  0
  1  8  1  0
  5  9  1  0
  9 10  1  0
  9 11  1  0
  9 12  1  0
  1 13  2  0
  8 14  1  0
 14 15  1  0
 15 16  1  0
 16 17  1  0
 17 18  1  0
 17 24  1  0
 17 25  1  0
 18 19  2  0
 19 20  1  0
 20 21  2  0
 21 22  1  0
 22 23  2  0
 23 18  1  0
  2  3  2  0
  3  4  1  0
  4  5  2  0
  5  6  1  0
  6  7  2  0
  7  2  1  0
M  END

$$$$
