No_2569-gen_results/8p0m/2024-11-26-14-13-15/
     RDKit          3D

 19 20  0  0  0  0  0  0  0  0999 V2000
  -28.0162   -0.8135   28.8779 C   0  0  0  0  0  0  0  0  0  0  0  0
  -27.0636   -0.1189   28.6079 C   0  0  0  0  0  0  0  0  0  0  0  0
  -25.7647   -0.3897   29.0360 C   0  0  0  0  0  0  0  0  0  0  0  0
  -25.5296   -1.5302   29.9014 C   0  0  0  0  0  0  0  0  0  0  0  0
  -26.6577   -2.2915   30.2035 C   0  0  0  0  0  0  0  0  0  0  0  0
  -27.8548   -1.9555   29.7630 C   0  0  0  0  0  0  0  0  0  0  0  0
  -24.4274    0.2189   28.7748 C   0  0  0  0  0  0  0  0  0  0  0  0
  -24.3113    1.1727   27.7997 C   0  0  0  0  0  0  0  0  0  0  0  0
  -23.0643    1.6843   27.4644 C   0  0  0  0  0  0  0  0  0  0  0  0
  -21.8818    1.3041   28.1364 C   0  0  0  0  0  0  0  0  0  0  0  0
  -23.0977   -0.2547   29.1536 C   0  0  0  0  0  0  0  0  0  0  0  0
  -21.9096    0.2926   28.9283 C   0  0  0  0  0  0  0  0  0  0  0  0
  -29.0366   -2.7735   30.1870 C   0  0  0  0  0  0  0  0  0  0  0  0
  -29.3181   -2.7243   31.4233 N   0  0  0  0  0  0  0  0  0  0  0  0
  -29.5164   -1.7130   32.0505 C   0  0  0  0  0  0  0  0  0  0  0  0
  -29.8347   -1.7995   33.5277 C   0  0  0  0  0  0  0  0  0  0  0  0
  -29.4758   -0.7772   34.3640 C   0  0  0  0  0  0  0  0  0  0  0  0
  -29.1445    0.5203   33.8342 C   0  0  0  0  0  0  0  0  0  0  0  0
  -28.7993    0.5872   32.4670 C   0  0  0  0  0  0  0  0  0  0  0  0
  3  7  1  0
  6 13  1  0
 13 14  1  0
 14 15  2  3
 15 16  1  0
 16 17  2  3
 17 18  1  0
 18 19  2  0
  7  8  2  0
  8  9  1  0
  9 10  2  0
 10 12  1  0
 12 11  2  0
 11  7  1  0
  1  2  2  0
  2  3  1  0
  3  4  2  0
  4  5  1  0
  5  6  2  0
  6  1  1  0
M  END

$$$$
