No_2104-gen_results/8p0m/2024-11-26-14-13-15/
     RDKit          3D

 12 12  0  0  0  0  0  0  0  0999 V2000
  -28.1229   -1.3353   28.4874 O   0  0  0  0  0  0  0  0  0  0  0  0
  -27.0637   -0.8242   28.8687 C   0  0  0  0  0  0  0  0  0  0  0  0
  -26.8938   -0.2656   29.6815 N   0  0  0  0  0  0  0  0  0  0  0  0
  -25.7432   -1.2103   28.0363 C   0  0  0  0  0  0  0  0  0  0  0  0
  -24.4803   -0.7282   28.5465 C   0  0  0  0  0  0  0  0  0  0  0  0
  -24.4901    0.0865   29.6488 C   0  0  0  0  0  0  0  0  0  0  0  0
  -25.7163    0.3234   30.3074 C   0  0  0  0  0  0  0  0  0  0  0  0
  -23.0095    0.7455   30.2417 P   0  0  0  0  0  0  0  0  0  0  0  0
  -22.3870    1.5713   29.4108 O   0  0  0  0  0  0  0  0  0  0  0  0
  -23.5034    1.5529   31.5018 O   0  0  0  0  0  0  0  0  0  0  0  0
  -22.2591   -0.4394   30.7305 O   0  0  0  0  0  0  0  0  0  0  0  0
  -24.6664    0.9618   29.0228 F   0  0  0  0  0  0  0  0  0  0  0  0
  1  2  2  0
  2  3  1  0
  2  4  1  0
  5  6  1  0
  6  7  1  0
  6  8  1  0
  8  9  1  0
  8 10  1  0
  8 11  2  0
  6 12  1  0
  3  7  1  0
  5  4  1  0
M  END

$$$$
