No_2575-gen_results/8p0m/2024-11-26-14-13-15/
     RDKit          3D

 19 21  0  0  0  0  0  0  0  0999 V2000
  -28.0162   -0.8135   28.8779 C   0  0  0  0  0  0  0  0  0  0  0  0
  -27.0636   -0.1189   28.6079 C   0  0  0  0  0  0  0  0  0  0  0  0
  -25.7923   -0.4302   29.0761 C   0  0  0  0  0  0  0  0  0  0  0  0
  -24.5456    0.3494   28.8225 C   0  0  0  0  0  0  0  0  0  0  0  0
  -24.6586    1.4196   27.8878 C   0  0  0  0  0  0  0  0  0  0  0  0
  -25.9471    1.6811   27.3792 C   0  0  0  0  0  0  0  0  0  0  0  0
  -27.0439    0.9739   27.6871 C   0  0  0  0  0  0  0  0  0  0  0  0
  -28.6597   -0.4600   30.2006 C   0  0  0  0  0  0  0  0  0  0  0  0
  -28.5440    0.4585   30.7537 N   0  0  0  0  0  0  0  0  0  0  0  0
  -28.7793    1.5636   30.5258 C   0  0  0  0  0  0  0  0  0  0  0  0
  -28.6601    2.5411   30.8115 C   0  0  0  0  0  0  0  0  0  0  0  0
  -28.0167    2.6667   32.1973 C   0  0  0  0  0  0  0  0  0  0  0  0
  -27.7133    1.4671   32.8461 C   0  0  0  0  0  0  0  0  0  0  0  0
  -27.8782    0.2808   32.1310 C   0  0  0  0  0  0  0  0  0  0  0  0
  -29.2676   -1.4831   30.6615 O   0  0  0  0  0  0  0  0  0  0  0  0
  -23.4321    2.1281   27.5396 C   0  0  0  0  0  0  0  0  0  0  0  0
  -22.2450    1.7307   28.0630 N   0  0  0  0  0  0  0  0  0  0  0  0
  -22.1742    0.6550   28.9485 C   0  0  0  0  0  0  0  0  0  0  0  0
  -23.2860   -0.0415   29.3293 C   0  0  0  0  0  0  0  0  0  0  0  0
  1  2  1  0
  1  8  1  0
  8  9  1  0
  9 10  1  0
 11 12  1  0
  9 14  1  0
 13 14  1  0
  8 15  2  0
 10 11  1  0
 12 13  1  0
  2  3  2  0
  3  4  1  0
  5  6  1  0
  6  7  2  0
  7  2  1  0
  4  5  2  0
  5 16  1  0
 16 17  2  0
 17 18  1  0
 18 19  2  0
 19  4  1  0
M  END

$$$$
