No_2425-gen_results/8p0m/2024-11-26-14-13-15/
     RDKit          3D

 35 38  0  0  0  0  0  0  0  0999 V2000
  -28.0162   -0.8135   28.8779 C   0  0  0  0  0  0  0  0  0  0  0  0
  -28.4690   -0.7850   29.8287 C   0  0  0  0  0  0  0  0  0  0  0  0
  -26.5042   -0.7777   28.8766 C   0  0  0  0  0  0  0  0  0  0  0  0
  -25.8103   -0.8531   30.1028 C   0  0  0  0  0  0  0  0  0  0  0  0
  -27.9906   -0.8916   31.2257 C   0  0  0  0  0  0  0  0  0  0  0  0
  -26.6042   -0.8676   31.2652 C   0  0  0  0  0  0  0  0  0  0  0  0
  -30.0739   -0.8360   29.8615 C   0  0  0  0  0  0  0  0  0  0  0  0
  -30.6891   -1.6554   30.2229 O   0  0  0  0  0  0  0  0  0  0  0  0
  -30.6139    0.2846   29.2227 N   0  0  0  0  0  0  0  0  0  0  0  0
  -32.0200    0.3382   29.0215 C   0  0  0  0  0  0  0  0  0  0  0  0
  -29.8434    1.4263   28.7504 C   0  0  0  0  0  0  0  0  0  0  0  0
  -30.0696    2.5922   29.5725 C   0  0  0  0  0  0  0  0  0  0  0  0
  -29.3221    3.5645   29.2494 C   0  0  0  0  0  0  0  0  0  0  0  0
  -29.2624    4.8163   30.1016 C   0  0  0  0  0  0  0  0  0  0  0  0
  -30.2470    4.8573   31.1195 C   0  0  0  0  0  0  0  0  0  0  0  0
  -31.0352    3.7563   31.3590 C   0  0  0  0  0  0  0  0  0  0  0  0
  -30.8963    2.5993   30.6584 C   0  0  0  0  0  0  0  0  0  0  0  0
  -25.6671   -0.6749   27.6581 C   0  0  0  0  0  0  0  0  0  0  0  0
  -25.2415    0.6840   27.3226 C   0  0  0  0  0  0  0  0  0  0  0  0
  -25.5029    1.1492   26.0828 C   0  0  0  0  0  0  0  0  0  0  0  0
  -26.1781    0.3992   25.1382 C   0  0  0  0  0  0  0  0  0  0  0  0
  -27.1697    0.1428   24.8202 C   0  0  0  0  0  0  0  0  0  0  0  0
  -28.2967    0.9086   25.1866 C   0  0  0  0  0  0  0  0  0  0  0  0
  -29.0984    1.3945   24.4115 C   0  0  0  0  0  0  0  0  0  0  0  0
  -30.1298    2.2836   24.7655 C   0  0  0  0  0  0  0  0  0  0  0  0
  -31.3028    2.4534   24.1054 C   0  0  0  0  0  0  0  0  0  0  0  0
  -31.3891    1.7244   22.8999 C   0  0  0  0  0  0  0  0  0  0  0  0
  -30.4985    0.8539   22.5128 C   0  0  0  0  0  0  0  0  0  0  0  0
  -29.4643    0.6345   23.2168 C   0  0  0  0  0  0  0  0  0  0  0  0
  -24.7111    1.5145   28.2065 C   0  0  0  0  0  0  0  0  0  0  0  0
  -24.0023    1.2705   29.1772 N   0  0  0  0  0  0  0  0  0  0  0  0
  -25.3791    2.8185   28.3776 C   0  0  0  0  0  0  0  0  0  0  0  0
  -25.0371    3.8022   27.4263 C   0  0  0  0  0  0  0  0  0  0  0  0
  -25.2914    3.6267   26.0072 C   0  0  0  0  0  0  0  0  0  0  0  0
  -25.1232    2.5493   25.6821 C   0  0  0  0  0  0  0  0  0  0  0  0
  2  7  1  0
  7  8  2  0
  7  9  1  0
  9 10  1  0
  9 11  1  0
 11 12  1  0
  3 18  1  0
 18 19  1  0
 19 20  2  0
 20 21  1  0
 21 22  2  3
 22 23  1  0
 19 30  1  0
 30 31  1  0
 30 32  1  0
 32 33  1  0
 33 34  2  0
 20 35  1  0
 34 35  1  0
 23 24  1  0
 12 13  2  0
 13 14  1  0
 14 15  2  0
 15 16  1  0
 16 17  2  0
 17 12  1  0
 24 25  2  0
 25 26  1  0
 26 27  2  0
 27 28  1  0
 28 29  2  0
 29 24  1  0
  1  2  2  0
  2  5  1  0
  5  6  2  0
  6  4  1  0
  4  3  2  0
  3  1  1  0
M  END

$$$$
