No_2572-gen_results/8p0m/2024-11-26-14-13-15/
     RDKit          3D

 10 10  0  0  0  0  0  0  0  0999 V2000
  -28.0544   -1.0498   28.7246 N   0  0  0  0  0  0  0  0  0  0  0  0
  -26.9659   -0.4722   28.7709 C   0  0  0  0  0  0  0  0  0  0  0  0
  -25.8527   -0.9249   29.3786 C   0  0  0  0  0  0  0  0  0  0  0  0
  -25.9072   -2.2339   30.0315 C   0  0  0  0  0  0  0  0  0  0  0  0
  -27.1345   -2.8280   29.9947 C   0  0  0  0  0  0  0  0  0  0  0  0
  -28.1751   -2.2461   29.4397 C   0  0  0  0  0  0  0  0  0  0  0  0
  -26.7934    1.0926   28.0144 Cl  0  0  0  0  0  0  0  0  0  0  0  0
  -27.2405   -4.0499   30.5772 F   0  0  0  0  0  0  0  0  0  0  0  0
  -24.4635   -0.2681   29.3398 C   0  0  0  0  0  0  0  0  0  0  0  0
  -24.1104    0.5670   28.4413 C   0  0  0  0  0  0  0  0  0  0  0  0
  2  7  1  0
  5  8  1  0
  3  9  1  0
  9 10  2  0
  1  2  2  0
  2  3  1  0
  3  4  2  0
  4  5  1  0
  5  6  2  0
  6  1  1  0
M  END

$$$$
