No_2646-gen_results/8p0m/2024-11-26-14-13-15/
     RDKit          3D

 22 24  0  0  0  0  0  0  0  0999 V2000
  -28.0162   -0.8135   28.8779 C   0  0  0  0  0  0  0  0  0  0  0  0
  -27.0636   -0.1189   28.6079 C   0  0  0  0  0  0  0  0  0  0  0  0
  -25.7923   -0.4302   29.0761 C   0  0  0  0  0  0  0  0  0  0  0  0
  -25.5756   -1.5654   29.9363 C   0  0  0  0  0  0  0  0  0  0  0  0
  -26.7354   -2.3004   30.2173 C   0  0  0  0  0  0  0  0  0  0  0  0
  -27.9184   -1.9537   29.7629 C   0  0  0  0  0  0  0  0  0  0  0  0
  -29.0001   -2.7012   30.1151 O   0  0  0  0  0  0  0  0  0  0  0  0
  -24.5290    0.3490   28.7998 C   0  0  0  0  0  0  0  0  0  0  0  0
  -24.4808    1.2113   27.7998 C   0  0  0  0  0  0  0  0  0  0  0  0
  -23.2478    1.8974   27.4951 C   0  0  0  0  0  0  0  0  0  0  0  0
  -22.0497    1.5890   28.1642 C   0  0  0  0  0  0  0  0  0  0  0  0
  -23.3926    0.2168   29.6790 C   0  0  0  0  0  0  0  0  0  0  0  0
  -22.1330    0.8031   29.2514 C   0  0  0  0  0  0  0  0  0  0  0  0
  -30.1252   -2.1329   30.5825 C   0  0  0  0  0  0  0  0  0  0  0  0
  -30.2230   -1.1442   31.0402 C   0  0  0  0  0  0  0  0  0  0  0  0
  -31.5264   -0.5262   31.4154 C   0  0  0  0  0  0  0  0  0  0  0  0
  -31.2934   -3.0194   30.3386 C   0  0  0  0  0  0  0  0  0  0  0  0
  -32.5431   -2.5534   30.6131 C   0  0  0  0  0  0  0  0  0  0  0  0
  -32.6286   -1.3009   31.2301 C   0  0  0  0  0  0  0  0  0  0  0  0
  -33.9767   -0.7876   31.6164 C   0  0  0  0  0  0  0  0  0  0  0  0
  -34.1708   -0.3201   32.6455 O   0  0  0  0  0  0  0  0  0  0  0  0
  -34.8580   -0.9367   30.6665 O   0  0  0  0  0  0  0  0  0  0  0  0
  6  7  1  0
  3  8  1  0
  7 14  1  0
 19 20  1  0
 20 21  2  0
 20 22  1  0
  1  2  2  0
  2  3  1  0
  3  4  2  0
  4  5  1  0
  5  6  2  0
  6  1  1  0
 14 15  2  0
 15 16  1  0
 16 19  2  0
 19 18  1  0
 18 17  2  0
 17 14  1  0
  8  9  2  0
  9 10  1  0
 10 11  2  0
 11 13  1  0
 13 12  2  0
 12  8  1  0
M  END

$$$$
