No_238-gen_results/8p0m/2024-11-26-14-13-15/
     RDKit          3D

 21 22  0  0  0  0  0  0  0  0999 V2000
  -28.0162   -0.8135   28.8779 C   0  0  0  0  0  0  0  0  0  0  0  0
  -27.0636   -0.1190   28.6079 C   0  0  0  0  0  0  0  0  0  0  0  0
  -27.0010    0.6913   27.4910 C   0  0  0  0  0  0  0  0  0  0  0  0
  -28.1373    0.7363   26.6350 C   0  0  0  0  0  0  0  0  0  0  0  0
  -29.2360    0.0765   27.0690 C   0  0  0  0  0  0  0  0  0  0  0  0
  -29.2177   -0.6429   28.1747 C   0  0  0  0  0  0  0  0  0  0  0  0
  -30.6116    0.1653   26.0711 Cl  0  0  0  0  0  0  0  0  0  0  0  0
  -25.7122   -0.2157   29.4104 C   0  0  0  0  0  0  0  0  0  0  0  0
  -24.5659   -0.4815   28.8147 C   0  0  0  0  0  0  0  0  0  0  0  0
  -23.3200   -0.4691   29.5092 C   0  0  0  0  0  0  0  0  0  0  0  0
  -23.3263   -0.3536   30.8461 C   0  0  0  0  0  0  0  0  0  0  0  0
  -25.6055   -0.0215   30.8070 C   0  0  0  0  0  0  0  0  0  0  0  0
  -24.4589   -0.0754   31.5377 C   0  0  0  0  0  0  0  0  0  0  0  0
  -28.0857   -1.6362   29.9921 O   0  0  0  0  0  0  0  0  0  0  0  0
  -28.4665   -2.4947   30.3862 C   0  0  0  0  0  0  0  0  0  0  0  0
  -29.5671   -2.3830   31.1840 C   0  0  0  0  0  0  0  0  0  0  0  0
  -28.0148   -3.8544   30.0997 C   0  0  0  0  0  0  0  0  0  0  0  0
  -29.9293   -1.2656   31.5588 F   0  0  0  0  0  0  0  0  0  0  0  0
  -29.3212   -3.0440   32.4218 F   0  0  0  0  0  0  0  0  0  0  0  0
  -30.5961   -3.0721   30.5962 F   0  0  0  0  0  0  0  0  0  0  0  0
  -28.6257   -4.7020   30.2475 O   0  0  0  0  0  0  0  0  0  0  0  0
  5  7  1  0
  2  8  1  0
  1 14  1  0
 14 15  1  0
 15 16  1  0
 15 17  1  0
 16 18  1  0
 16 19  1  0
 16 20  1  0
 17 21  2  0
  1  2  2  0
  2  3  1  0
  3  4  2  0
  4  5  1  0
  5  6  2  0
  6  1  1  0
  8  9  2  0
  9 10  1  0
 10 11  2  0
 11 13  1  0
 13 12  2  0
 12  8  1  0
M  END

$$$$
