No_2290-gen_results/8p0m/2024-11-26-14-13-15/
     RDKit          3D

 17 17  0  0  0  0  0  0  0  0999 V2000
  -28.0162   -0.8135   28.8779 C   0  0  0  0  0  0  0  0  0  0  0  0
  -27.0636   -0.1189   28.6079 C   0  0  0  0  0  0  0  0  0  0  0  0
  -25.7923   -0.4302   29.0761 C   0  0  0  0  0  0  0  0  0  0  0  0
  -24.5456    0.3494   28.8225 C   0  0  0  0  0  0  0  0  0  0  0  0
  -24.6586    1.4196   27.8878 C   0  0  0  0  0  0  0  0  0  0  0  0
  -25.9471    1.6811   27.3792 C   0  0  0  0  0  0  0  0  0  0  0  0
  -27.0439    0.9739   27.6871 C   0  0  0  0  0  0  0  0  0  0  0  0
  -28.6567   -0.5529   30.0960 N   0  0  0  0  0  0  0  0  0  0  0  0
  -29.5646   -0.5256   30.5354 C   0  0  0  0  0  0  0  0  0  0  0  0
  -30.7160   -0.6890   29.7092 C   0  0  0  0  0  0  0  0  0  0  0  0
  -29.9572   -0.2776   31.8044 O   0  0  0  0  0  0  0  0  0  0  0  0
  -23.4581    2.1675   27.5881 C   0  0  0  0  0  0  0  0  0  0  0  0
  -22.3235    1.9013   28.0452 O   0  0  0  0  0  0  0  0  0  0  0  0
  -23.6048    3.2256   26.8304 O   0  0  0  0  0  0  0  0  0  0  0  0
  -31.7122   -1.5153   30.1378 C   0  0  0  0  0  0  0  0  0  0  0  0
  -31.8012   -2.3981   30.7481 N   0  0  0  0  0  0  0  0  0  0  0  0
  -32.8677   -3.2179   31.0744 C   0  0  0  0  0  0  0  0  0  0  0  0
  1  2  1  0
  1  8  1  0
  8  9  1  0
  9 10  1  0
  9 11  2  0
  5 12  1  0
 12 13  2  0
 12 14  1  0
 10 15  2  3
 15 16  1  0
 16 17  1  0
  2  3  2  0
  3  4  1  0
  4  5  2  0
  5  6  1  0
  6  7  2  0
  7  2  1  0
M  END

$$$$
