No_2961-gen_results/8p0m/2024-11-26-14-13-15/
     RDKit          3D

 20 22  0  0  0  0  0  0  0  0999 V2000
  -28.1229   -1.3353   28.4874 O   0  0  0  0  0  0  0  0  0  0  0  0
  -27.0637   -0.8242   28.8687 C   0  0  0  0  0  0  0  0  0  0  0  0
  -26.9592    0.0926   29.7582 C   0  0  0  0  0  0  0  0  0  0  0  0
  -25.8011   -1.3566   28.3971 N   0  0  0  0  0  0  0  0  0  0  0  0
  -25.7368    0.7239   30.2099 C   0  0  0  0  0  0  0  0  0  0  0  0
  -24.5490   -0.8600   28.7870 C   0  0  0  0  0  0  0  0  0  0  0  0
  -24.4828    0.1831   29.6937 C   0  0  0  0  0  0  0  0  0  0  0  0
  -28.1693    0.6967   30.3635 C   0  0  0  0  0  0  0  0  0  0  0  0
  -28.7123    0.1955   31.3396 C   0  0  0  0  0  0  0  0  0  0  0  0
  -29.9526    0.6935   31.8942 C   0  0  0  0  0  0  0  0  0  0  0  0
  -28.7419    1.7369   29.6483 C   0  0  0  0  0  0  0  0  0  0  0  0
  -29.9426    2.3164   30.0926 C   0  0  0  0  0  0  0  0  0  0  0  0
  -30.5312    1.7988   31.2264 C   0  0  0  0  0  0  0  0  0  0  0  0
  -30.4920    3.4669   29.3894 C   0  0  0  0  0  0  0  0  0  0  0  0
  -30.7446    4.5270   30.1183 C   0  0  0  0  0  0  0  0  0  0  0  0
  -30.2359    4.6768   31.4255 C   0  0  0  0  0  0  0  0  0  0  0  0
  -30.8626    5.7013   32.2509 C   0  0  0  0  0  0  0  0  0  0  0  0
  -31.6782    6.6126   31.5964 C   0  0  0  0  0  0  0  0  0  0  0  0
  -32.0842    6.5237   30.3547 C   0  0  0  0  0  0  0  0  0  0  0  0
  -31.6519    5.4502   29.5810 C   0  0  0  0  0  0  0  0  0  0  0  0
  1  2  2  0
  2  3  1  0
  2  4  1  0
  3  5  1  0
  4  6  1  0
  3  8  1  0
 12 14  1  0
 14 15  1  0
  5  7  1  0
  7  6  1  0
 15 16  2  0
 16 17  1  0
 17 18  2  0
 18 19  1  0
 19 20  2  0
 20 15  1  0
  8  9  2  0
  9 10  1  0
 10 13  2  0
 13 12  1  0
 12 11  2  0
 11  8  1  0
M  END

$$$$
