No_2601-gen_results/8p0m/2024-11-26-14-13-15/
     RDKit          3D

 32 35  0  0  0  0  0  0  0  0999 V2000
  -28.1229   -1.3353   28.4874 O   0  0  0  0  0  0  0  0  0  0  0  0
  -27.4806   -0.4044   28.7094 C   0  0  0  0  0  0  0  0  0  0  0  0
  -26.3804   -0.0867   27.9394 C   0  0  0  0  0  0  0  0  0  0  0  0
  -27.4232    0.1749   30.0549 N   0  0  0  0  0  0  0  0  0  0  0  0
  -25.8482    1.0048   27.9942 C   0  0  0  0  0  0  0  0  0  0  0  0
  -25.8487    1.7377   29.2952 C   0  0  0  0  0  0  0  0  0  0  0  0
  -26.7619    1.3299   30.2362 C   0  0  0  0  0  0  0  0  0  0  0  0
  -24.7793    1.5541   27.0752 C   0  0  0  0  0  0  0  0  0  0  0  0
  -23.7643    1.4868   27.0840 C   0  0  0  0  0  0  0  0  0  0  0  0
  -22.8391    2.1506   26.0367 C   0  0  0  0  0  0  0  0  0  0  0  0
  -25.5168    2.0719   25.8338 C   0  0  0  0  0  0  0  0  0  0  0  0
  -22.8229    1.0374   28.2753 C   0  0  0  0  0  0  0  0  0  0  0  0
  -23.1152   -0.0413   29.0128 C   0  0  0  0  0  0  0  0  0  0  0  0
  -22.2070   -0.5174   29.9572 C   0  0  0  0  0  0  0  0  0  0  0  0
  -22.6846   -1.3550   30.8798 N   0  0  0  0  0  0  0  0  0  0  0  0
  -24.0673   -1.5528   30.9012 C   0  0  0  0  0  0  0  0  0  0  0  0
  -24.4135   -0.5438   29.4544 C   0  0  0  0  0  0  0  0  0  0  0  0
  -24.7089   -1.5479   28.8532 C   0  0  0  0  0  0  0  0  0  0  0  0
  -28.5015   -0.2833   30.9681 C   0  0  0  0  0  0  0  0  0  0  0  0
  -27.0053   -0.0979   26.5870 O   0  0  0  0  0  0  0  0  0  0  0  0
  -23.6720   -2.5813   28.8618 C   0  0  0  0  0  0  0  0  0  0  0  0
  -24.5265   -0.7441   32.0898 O   0  0  0  0  0  0  0  0  0  0  0  0
  -25.8160   -2.4222   29.2871 O   0  0  0  0  0  0  0  0  0  0  0  0
  -25.6012   -3.7891   29.1654 C   0  0  0  0  0  0  0  0  0  0  0  0
  -24.3076   -3.9786   28.8118 C   0  0  0  0  0  0  0  0  0  0  0  0
  -26.0512   -4.5054   30.3056 N   0  0  0  0  0  0  0  0  0  0  0  0
  -22.4834   -2.5496   28.5183 O   0  0  0  0  0  0  0  0  0  0  0  0
  -27.9699   -0.5811   32.1652 C   0  0  0  0  0  0  0  0  0  0  0  0
  -28.6637   -0.5337   33.1964 C   0  0  0  0  0  0  0  0  0  0  0  0
  -30.0809   -0.6053   33.1687 C   0  0  0  0  0  0  0  0  0  0  0  0
  -30.6309   -0.3322   31.8702 C   0  0  0  0  0  0  0  0  0  0  0  0
  -29.6813    0.2389   31.0315 C   0  0  0  0  0  0  0  0  0  0  0  0
  1  2  2  0
  2  3  1  0
  2  4  1  0
  5  6  1  0
  4  7  1  0
  5  8  1  0
  8  9  1  0
  9 10  1  0
  8 11  1  0
  9 12  1  0
 12 13  2  3
 13 14  1  0
 14 15  2  0
 15 16  1  0
 13 17  1  0
 16 17  2  0
 17 18  1  0
  4 19  1  0
  3 20  1  0
 18 21  1  0
 16 22  1  0
 18 23  1  0
 23 24  1  0
 21 25  1  0
 24 25  1  0
 24 26  1  0
 21 27  2  0
  3  5  1  0
  6  7  1  0
 19 28  2  0
 28 29  1  0
 29 30  2  0
 30 31  1  0
 31 32  2  0
 32 19  1  0
M  END

$$$$
