No_2236-gen_results/8p0m/2024-11-26-14-13-15/
     RDKit          3D

  7  7  0  0  0  0  0  0  0  0999 V2000
  -28.0727   -1.2542   28.5316 F   0  0  0  0  0  0  0  0  0  0  0  0
  -27.3591   -0.3792   28.7224 C   0  0  0  0  0  0  0  0  0  0  0  0
  -27.7014    0.7608   29.1249 C   0  0  0  0  0  0  0  0  0  0  0  0
  -25.8844   -0.6918   28.4374 C   0  0  0  0  0  0  0  0  0  0  0  0
  -24.9212    0.3779   28.6013 C   0  0  0  0  0  0  0  0  0  0  0  0
  -26.6914    1.8696   29.2705 C   0  0  0  0  0  0  0  0  0  0  0  0
  -25.3451    1.6252   29.0013 C   0  0  0  0  0  0  0  0  0  0  0  0
  1  2  1  0
  2  3  2  0
  3  6  1  0
  6  7  2  0
  7  5  1  0
  5  4  2  0
  4  2  1  0
M  END

$$$$
