No_2146-gen_results/8p0m/2024-11-26-14-13-15/
     RDKit          3D

 20 22  0  0  0  0  0  0  0  0999 V2000
  -28.0544   -1.0498   28.7246 N   0  0  0  0  0  0  0  0  0  0  0  0
  -28.6544   -0.5669   29.5076 C   0  0  0  0  0  0  0  0  0  0  0  0
  -28.8748    0.2766   30.0555 C   0  0  0  0  0  0  0  0  0  0  0  0
  -27.0225   -0.1580   28.2812 C   0  0  0  0  0  0  0  0  0  0  0  0
  -25.9330   -0.5100   27.4175 C   0  0  0  0  0  0  0  0  0  0  0  0
  -26.9508    1.1325   28.7036 C   0  0  0  0  0  0  0  0  0  0  0  0
  -27.9513    1.4249   29.7214 C   0  0  0  0  0  0  0  0  0  0  0  0
  -24.6960   -0.9395   27.9960 C   0  0  0  0  0  0  0  0  0  0  0  0
  -26.0176   -0.6385   26.2145 C   0  0  0  0  0  0  0  0  0  0  0  0
  -27.0367    0.0923   25.4003 C   0  0  0  0  0  0  0  0  0  0  0  0
  -27.6130   -0.3529   24.3270 C   0  0  0  0  0  0  0  0  0  0  0  0
  -28.7573    0.3740   23.7802 C   0  0  0  0  0  0  0  0  0  0  0  0
  -29.1002    1.6118   24.3775 C   0  0  0  0  0  0  0  0  0  0  0  0
  -28.4678    2.1288   25.4537 C   0  0  0  0  0  0  0  0  0  0  0  0
  -27.4380    1.3873   26.0232 C   0  0  0  0  0  0  0  0  0  0  0  0
  -24.2289   -1.3080   28.9854 C   0  0  0  0  0  0  0  0  0  0  0  0
  -22.9119   -1.4715   29.4265 C   0  0  0  0  0  0  0  0  0  0  0  0
  -22.0004   -0.5248   28.8913 C   0  0  0  0  0  0  0  0  0  0  0  0
  -22.4086    0.4614   27.9634 C   0  0  0  0  0  0  0  0  0  0  0  0
  -23.6970   -0.3279   27.1476 C   0  0  0  0  0  0  0  0  0  0  0  0
  4  5  1  0
  5  8  1  0
  5  9  1  0
  9 10  1  0
  8 16  2  0
 16 17  1  0
 17 18  2  0
 18 19  1  0
 19 20  2  0
 20  8  1  0
 10 11  2  0
 11 12  1  0
 12 13  2  0
 13 14  1  0
 14 15  2  0
 15 10  1  0
  1  2  2  0
  2  3  1  0
  3  7  2  0
  7  6  1  0
  6  4  2  0
  4  1  1  0
M  END

$$$$
