No_2441-gen_results/8p0m/2024-11-26-14-13-15/
     RDKit          3D

 14 15  0  0  0  0  0  0  0  0999 V2000
  -28.1229   -1.3353   28.4874 O   0  0  0  0  0  0  0  0  0  0  0  0
  -27.0637   -0.8242   28.8687 C   0  0  0  0  0  0  0  0  0  0  0  0
  -26.4017   -0.0623   28.6224 C   0  0  0  0  0  0  0  0  0  0  0  0
  -26.5721   -1.5844   30.1172 N   0  0  0  0  0  0  0  0  0  0  0  0
  -25.0209    0.3561   29.0444 C   0  0  0  0  0  0  0  0  0  0  0  0
  -24.6541   -0.3468   30.2523 C   0  0  0  0  0  0  0  0  0  0  0  0
  -25.4243   -1.3432   30.6966 C   0  0  0  0  0  0  0  0  0  0  0  0
  -26.6993    0.8154   27.3435 C   0  0  0  0  0  0  0  0  0  0  0  0
  -25.8211    1.5527   26.7172 C   0  0  0  0  0  0  0  0  0  0  0  0
  -24.5526    1.9190   27.3303 C   0  0  0  0  0  0  0  0  0  0  0  0
  -24.1132    1.2417   28.4594 C   0  0  0  0  0  0  0  0  0  0  0  0
  -22.7813    1.5122   28.9535 C   0  0  0  0  0  0  0  0  0  0  0  0
  -21.8806    1.9097   28.0981 O   0  0  0  0  0  0  0  0  0  0  0  0
  -22.5529    1.5677   30.2161 O   0  0  0  0  0  0  0  0  0  0  0  0
  1  2  2  0
  2  3  1  0
  2  4  1  0
  6  7  1  0
 11 12  1  0
 12 13  2  0
 12 14  1  0
  5  6  1  0
  7  4  1  0
  3  5  2  0
  5 11  1  0
 11 10  2  0
 10  9  1  0
  9  8  2  0
  8  3  1  0
M  END

$$$$
