No_2832-gen_results/8p0m/2024-11-26-14-13-15/
     RDKit          3D

 14 14  0  0  0  0  0  0  0  0999 V2000
  -28.0162   -0.8135   28.8779 C   0  0  0  0  0  0  0  0  0  0  0  0
  -27.0636   -0.1189   28.6079 C   0  0  0  0  0  0  0  0  0  0  0  0
  -26.9716    0.7139   27.5060 C   0  0  0  0  0  0  0  0  0  0  0  0
  -28.1053    0.7744   26.6421 C   0  0  0  0  0  0  0  0  0  0  0  0
  -29.2041    0.1179   27.0477 C   0  0  0  0  0  0  0  0  0  0  0  0
  -30.3488    0.2568   26.2203 C   0  0  0  0  0  0  0  0  0  0  0  0
  -29.1817   -0.6758   28.1173 C   0  0  0  0  0  0  0  0  0  0  0  0
  -31.3387   -0.2347   26.5001 O   0  0  0  0  0  0  0  0  0  0  0  0
  -30.2776    0.8651   25.0275 O   0  0  0  0  0  0  0  0  0  0  0  0
  -25.6595    1.4147   27.1427 C   0  0  0  0  0  0  0  0  0  0  0  0
  -24.7463    0.6484   27.2145 F   0  0  0  0  0  0  0  0  0  0  0  0
  -25.4411    2.3465   28.0977 F   0  0  0  0  0  0  0  0  0  0  0  0
  -25.7260    2.0521   25.9916 F   0  0  0  0  0  0  0  0  0  0  0  0
  -26.4522    1.5798   27.1129 Cl  0  0  0  0  0  0  0  0  0  0  0  0
  1  2  2  0
  2  3  1  0
  3  4  1  0
  4  5  1  0
  5  6  1  0
  1  7  1  0
  5  7  1  0
  6  8  1  0
  6  9  2  0
  3 10  1  0
 10 11  1  0
 10 12  1  0
 10 13  1  0
  3 14  1  0
M  END

$$$$
