No_2-gen_results/8p0m/2024-11-26-14-13-15/
     RDKit          3D

 35 36  0  0  0  0  0  0  0  0999 V2000
  -28.0162   -0.8135   28.8779 C   0  0  0  0  0  0  0  0  0  0  0  0
  -28.4690   -0.7850   29.8287 C   0  0  0  0  0  0  0  0  0  0  0  0
  -26.5042   -0.7777   28.8766 C   0  0  0  0  0  0  0  0  0  0  0  0
  -25.8305   -1.6807   29.6849 C   0  0  0  0  0  0  0  0  0  0  0  0
  -28.1490   -1.8854   30.9031 C   0  0  0  0  0  0  0  0  0  0  0  0
  -28.9302   -2.0829   32.0356 C   0  0  0  0  0  0  0  0  0  0  0  0
  -26.5519   -1.6972   31.0407 C   0  0  0  0  0  0  0  0  0  0  0  0
  -28.9826   -3.3748   32.2983 F   0  0  0  0  0  0  0  0  0  0  0  0
  -30.2517   -1.6252   31.8618 O   0  0  0  0  0  0  0  0  0  0  0  0
  -28.4375   -1.4742   33.1071 F   0  0  0  0  0  0  0  0  0  0  0  0
  -24.3589   -1.4445   29.8698 C   0  0  0  0  0  0  0  0  0  0  0  0
  -23.8874   -0.2109   29.4814 C   0  0  0  0  0  0  0  0  0  0  0  0
  -22.6194   -0.1536   28.7419 C   0  0  0  0  0  0  0  0  0  0  0  0
  -23.6954    0.7766   30.6665 C   0  0  0  0  0  0  0  0  0  0  0  0
  -28.3707    0.5388   28.1091 C   0  0  0  0  0  0  0  0  0  0  0  0
  -27.5707    1.5395   28.1599 C   0  0  0  0  0  0  0  0  0  0  0  0
  -29.4815    0.4851   27.1959 C   0  0  0  0  0  0  0  0  0  0  0  0
  -29.7372    1.4818   26.3366 C   0  0  0  0  0  0  0  0  0  0  0  0
  -27.8828    2.7186   27.3372 C   0  0  0  0  0  0  0  0  0  0  0  0
  -28.9480    2.6685   26.4535 C   0  0  0  0  0  0  0  0  0  0  0  0
  -25.9656   -3.1175   29.0269 C   0  0  0  0  0  0  0  0  0  0  0  0
  -23.6186    2.1763   30.2019 C   0  0  0  0  0  0  0  0  0  0  0  0
  -24.5475    2.6539   29.5229 O   0  0  0  0  0  0  0  0  0  0  0  0
  -25.7579   -4.0582   30.0599 C   0  0  0  0  0  0  0  0  0  0  0  0
  -26.4064   -5.1478   29.5312 C   0  0  0  0  0  0  0  0  0  0  0  0
  -27.2463   -4.9166   28.7540 O   0  0  0  0  0  0  0  0  0  0  0  0
  -31.5411   -2.3546   32.1836 P   0  0  0  0  0  0  0  0  0  0  0  0
  -31.5949   -2.9013   33.2675 O   0  0  0  0  0  0  0  0  0  0  0  0
  -32.5843   -1.2196   32.0812 O   0  0  0  0  0  0  0  0  0  0  0  0
  -31.7192   -3.1057   30.8120 O   0  0  0  0  0  0  0  0  0  0  0  0
  -24.8424   -3.1873   28.1772 O   0  0  0  0  0  0  0  0  0  0  0  0
  -24.2841    3.2242   28.2631 C   0  0  0  0  0  0  0  0  0  0  0  0
  -24.1355    2.3209   27.2452 C   0  0  0  0  0  0  0  0  0  0  0  0
  -24.4549    2.6771   26.2340 C   0  0  0  0  0  0  0  0  0  0  0  0
  -24.7697    4.4283   27.9529 C   0  0  0  0  0  0  0  0  0  0  0  0
  1  2  1  0
  1  3  1  0
  3  4  1  0
  2  5  1  0
  5  6  1  0
  4  7  1  0
  5  7  1  0
  6  8  1  0
  6  9  1  0
  6 10  1  0
  4 11  1  0
 11 12  1  0
 12 13  2  0
 12 14  1  0
  1 15  1  0
  4 21  1  0
 14 22  1  0
 22 23  1  0
 21 24  1  0
 24 25  1  0
 25 26  1  0
  9 27  1  0
 27 28  1  0
 27 29  1  0
 27 30  2  0
 21 31  1  0
 23 32  1  0
 32 33  1  0
 33 34  2  0
 32 35  1  0
 15 16  2  0
 16 19  1  0
 19 20  2  0
 20 18  1  0
 18 17  2  0
 17 15  1  0
M  END

$$$$
