No_2842-gen_results/8p0m/2024-11-26-14-13-15/
     RDKit          3D

 35 39  0  0  0  0  0  0  0  0999 V2000
  -28.0162   -0.8135   28.8779 C   0  0  0  0  0  0  0  0  0  0  0  0
  -28.4690   -0.7850   29.8287 C   0  0  0  0  0  0  0  0  0  0  0  0
  -26.5042   -0.7777   28.8766 C   0  0  0  0  0  0  0  0  0  0  0  0
  -25.8103   -0.8531   30.1028 C   0  0  0  0  0  0  0  0  0  0  0  0
  -27.9906   -0.8916   31.2257 C   0  0  0  0  0  0  0  0  0  0  0  0
  -26.6042   -0.8676   31.2652 C   0  0  0  0  0  0  0  0  0  0  0  0
  -30.0739   -0.8360   29.8615 C   0  0  0  0  0  0  0  0  0  0  0  0
  -30.5608   -0.4417   28.9417 O   0  0  0  0  0  0  0  0  0  0  0  0
  -30.7486   -1.4028   30.9473 N   0  0  0  0  0  0  0  0  0  0  0  0
  -32.1750   -1.4682   30.8889 C   0  0  0  0  0  0  0  0  0  0  0  0
  -32.7835   -2.0405   31.4467 C   0  0  0  0  0  0  0  0  0  0  0  0
  -34.2955   -2.0689   31.4277 C   0  0  0  0  0  0  0  0  0  0  0  0
  -34.8439   -1.2012   30.4640 C   0  0  0  0  0  0  0  0  0  0  0  0
  -34.0049   -0.4631   29.6725 C   0  0  0  0  0  0  0  0  0  0  0  0
  -32.6784   -0.4694   29.8433 C   0  0  0  0  0  0  0  0  0  0  0  0
  -36.3254   -1.1620   30.3477 C   0  0  0  0  0  0  0  0  0  0  0  0
  -37.0375   -2.0716   30.4573 C   0  0  0  0  0  0  0  0  0  0  0  0
  -38.5139   -1.9941   30.3304 C   0  0  0  0  0  0  0  0  0  0  0  0
  -38.9997   -0.7202   29.9600 C   0  0  0  0  0  0  0  0  0  0  0  0
  -38.1565    0.3207   29.7868 C   0  0  0  0  0  0  0  0  0  0  0  0
  -36.7685    0.2184   29.9725 C   0  0  0  0  0  0  0  0  0  0  0  0
  -38.6833    1.6634   29.4330 C   0  0  0  0  0  0  0  0  0  0  0  0
  -39.2863    2.3864   30.3853 C   0  0  0  0  0  0  0  0  0  0  0  0
  -39.8341    3.6361   30.0626 C   0  0  0  0  0  0  0  0  0  0  0  0
  -38.4107    2.1223   28.1578 C   0  0  0  0  0  0  0  0  0  0  0  0
  -38.9471    3.4008   27.8313 C   0  0  0  0  0  0  0  0  0  0  0  0
  -39.6238    4.1282   28.7567 C   0  0  0  0  0  0  0  0  0  0  0  0
  -37.7792    1.4699   27.2958 F   0  0  0  0  0  0  0  0  0  0  0  0
  -24.3656   -0.7956   30.1462 C   0  0  0  0  0  0  0  0  0  0  0  0
  -23.5949   -0.4719   29.1147 C   0  0  0  0  0  0  0  0  0  0  0  0
  -22.1605   -0.3365   29.2656 C   0  0  0  0  0  0  0  0  0  0  0  0
  -21.4942    0.1167   28.1954 N   0  0  0  0  0  0  0  0  0  0  0  0
  -22.1190    0.9577   27.3422 C   0  0  0  0  0  0  0  0  0  0  0  0
  -23.4951    1.1243   27.3111 C   0  0  0  0  0  0  0  0  0  0  0  0
  -24.2042    0.5079   28.2346 C   0  0  0  0  0  0  0  0  0  0  0  0
  2  7  1  0
  7  8  2  0
  7  9  1  0
  9 10  1  0
 13 16  1  0
 20 22  1  0
 25 28  1  0
  4 29  1  0
 29 30  1  0
 30 31  2  0
 31 32  1  0
 32 33  2  0
 33 34  1  0
 34 35  2  0
 35 30  1  0
 10 11  2  0
 11 12  1  0
 12 13  2  0
 13 14  1  0
 14 15  2  0
 15 10  1  0
 22 23  2  0
 23 24  1  0
 24 27  2  0
 27 26  1  0
 26 25  2  0
 25 22  1  0
  1  2  2  0
  2  5  1  0
  5  6  2  0
  6  4  1  0
  4  3  2  0
  3  1  1  0
 16 17  2  0
 17 18  1  0
 18 19  2  0
 19 20  1  0
 20 21  2  0
 21 16  1  0
M  END

$$$$
