No_2902-gen_results/8p0m/2024-11-26-14-13-15/
     RDKit          3D

 20 21  0  0  0  0  0  0  0  0999 V2000
  -28.0162   -0.8135   28.8779 C   0  0  0  0  0  0  0  0  0  0  0  0
  -28.4690   -0.7850   29.8287 C   0  0  0  0  0  0  0  0  0  0  0  0
  -27.0871    0.2903   28.6377 C   0  0  0  0  0  0  0  0  0  0  0  0
  -26.0238    0.3644   29.2526 C   0  0  0  0  0  0  0  0  0  0  0  0
  -26.2460    0.4334   30.7986 C   0  0  0  0  0  0  0  0  0  0  0  0
  -27.7081   -0.6876   31.1981 C   0  0  0  0  0  0  0  0  0  0  0  0
  -26.6631    0.4296   27.0711 C   0  0  0  0  0  0  0  0  0  0  0  0
  -26.2942    1.7391   26.6506 C   0  0  0  0  0  0  0  0  0  0  0  0
  -29.7942   -1.3324   30.2827 C   0  0  0  0  0  0  0  0  0  0  0  0
  -29.9852   -2.4147   30.7114 O   0  0  0  0  0  0  0  0  0  0  0  0
  -30.8477   -0.5495   29.9524 N   0  0  0  0  0  0  0  0  0  0  0  0
  -32.2190   -0.9946   30.1057 C   0  0  0  0  0  0  0  0  0  0  0  0
  -30.6739    0.8052   29.4235 C   0  0  0  0  0  0  0  0  0  0  0  0
  -31.1108    1.0150   28.2247 C   0  0  0  0  0  0  0  0  0  0  0  0
  -30.8867    2.3474   27.7413 C   0  0  0  0  0  0  0  0  0  0  0  0
  -30.1464    3.2541   28.4848 C   0  0  0  0  0  0  0  0  0  0  0  0
  -29.7570    2.9379   29.7793 C   0  0  0  0  0  0  0  0  0  0  0  0
  -30.0020    1.7084   30.2360 C   0  0  0  0  0  0  0  0  0  0  0  0
  -29.0240    3.9672   30.5858 C   0  0  0  0  0  0  0  0  0  0  0  0
  -28.9501    4.9908   30.3314 O   0  0  0  0  0  0  0  0  0  0  0  0
  1  2  1  0
  1  3  1  0
  3  4  1  0
  4  5  1  0
  2  6  1  0
  5  6  1  0
  3  7  1  0
  7  8  1  0
  2  9  1  0
  9 10  2  0
  9 11  1  0
 11 12  1  0
 11 13  1  0
 17 19  1  0
 19 20  2  0
 13 14  2  0
 14 15  1  0
 15 16  2  0
 16 17  1  0
 17 18  2  0
 18 13  1  0
M  END

$$$$
