No_2068-gen_results/8p0m/2024-11-26-14-13-15/
     RDKit          3D

 35 37  0  0  0  0  0  0  0  0999 V2000
  -28.0162   -0.8135   28.8779 C   0  0  0  0  0  0  0  0  0  0  0  0
  -28.4690   -0.7850   29.8287 C   0  0  0  0  0  0  0  0  0  0  0  0
  -26.5042   -0.7777   28.8766 C   0  0  0  0  0  0  0  0  0  0  0  0
  -25.6540   -0.6597   27.7191 C   0  0  0  0  0  0  0  0  0  0  0  0
  -27.9180   -0.9374   31.1824 C   0  0  0  0  0  0  0  0  0  0  0  0
  -26.5424   -0.9399   31.2606 C   0  0  0  0  0  0  0  0  0  0  0  0
  -25.7832   -0.8935   30.1201 C   0  0  0  0  0  0  0  0  0  0  0  0
  -25.9419    0.2435   26.7160 C   0  0  0  0  0  0  0  0  0  0  0  0
  -25.6520    1.4271   26.7255 C   0  0  0  0  0  0  0  0  0  0  0  0
  -24.6801    1.9120   27.6972 C   0  0  0  0  0  0  0  0  0  0  0  0
  -23.6388    1.0067   27.9946 C   0  0  0  0  0  0  0  0  0  0  0  0
  -24.0880   -0.1746   28.3256 C   0  0  0  0  0  0  0  0  0  0  0  0
  -22.3869    1.4301   28.5314 C   0  0  0  0  0  0  0  0  0  0  0  0
  -21.5214    0.5776   28.9098 O   0  0  0  0  0  0  0  0  0  0  0  0
  -22.1120    2.6601   28.6640 O   0  0  0  0  0  0  0  0  0  0  0  0
  -30.0728   -0.8014   29.8823 C   0  0  0  0  0  0  0  0  0  0  0  0
  -30.6878   -0.1151   29.1467 O   0  0  0  0  0  0  0  0  0  0  0  0
  -30.7016   -1.5591   30.7266 O   0  0  0  0  0  0  0  0  0  0  0  0
  -26.4079    2.4691   25.9621 C   0  0  0  0  0  0  0  0  0  0  0  0
  -27.4071    2.1810   25.1249 C   0  0  0  0  0  0  0  0  0  0  0  0
  -28.6134    1.9500   25.5364 C   0  0  0  0  0  0  0  0  0  0  0  0
  -29.6901    1.4365   24.7152 C   0  0  0  0  0  0  0  0  0  0  0  0
  -30.9577    1.1228   25.1547 C   0  0  0  0  0  0  0  0  0  0  0  0
  -31.3163    1.6698   26.3912 C   0  0  0  0  0  0  0  0  0  0  0  0
  -30.4279    2.3745   27.1967 C   0  0  0  0  0  0  0  0  0  0  0  0
  -29.1242    2.5459   26.8263 C   0  0  0  0  0  0  0  0  0  0  0  0
  -26.0661    3.7378   26.1326 F   0  0  0  0  0  0  0  0  0  0  0  0
  -31.8839    0.4693   24.3041 C   0  0  0  0  0  0  0  0  0  0  0  0
  -32.4808    1.0819   23.5710 F   0  0  0  0  0  0  0  0  0  0  0  0
  -31.1027   -0.5408   23.6489 F   0  0  0  0  0  0  0  0  0  0  0  0
  -32.7641   -0.3187   25.0567 F   0  0  0  0  0  0  0  0  0  0  0  0
  -32.0154   -1.8097   30.5519 C   0  0  0  0  0  0  0  0  0  0  0  0
  -32.8716   -0.9839   31.1198 C   0  0  0  0  0  0  0  0  0  0  0  0
  -33.9533   -0.7986   30.7378 O   0  0  0  0  0  0  0  0  0  0  0  0
  -32.3935   -0.1511   32.1448 N   0  0  0  0  0  0  0  0  0  0  0  0
  3  4  1  0
 11 13  1  0
 13 14  2  0
 13 15  1  0
  2 16  1  0
 16 17  2  0
 16 18  1  0
  9 19  1  0
 19 20  2  3
 20 21  1  0
 19 27  1  0
 23 28  1  0
 28 29  1  0
 28 30  1  0
 28 31  1  0
 18 32  1  0
 32 33  1  0
 33 34  2  0
 33 35  1  0
  4  8  2  0
  8  9  1  0
  9 10  2  0
 10 11  1  0
 11 12  2  0
 12  4  1  0
  1  2  2  0
  2  5  1  0
  5  6  2  0
  6  7  1  0
  7  3  2  0
  3  1  1  0
 21 22  2  0
 22 23  1  0
 23 24  2  0
 24 25  1  0
 25 26  2  0
 26 21  1  0
M  END

$$$$
