No_2245-gen_results/8p0m/2024-11-26-14-13-15/
     RDKit          3D

 35 39  0  0  0  0  0  0  0  0999 V2000
  -28.0162   -0.8135   28.8779 C   0  0  0  0  0  0  0  0  0  0  0  0
  -27.0636   -0.1189   28.6079 C   0  0  0  0  0  0  0  0  0  0  0  0
  -25.7647   -0.3897   29.0360 C   0  0  0  0  0  0  0  0  0  0  0  0
  -24.5516    0.4058   28.7646 C   0  0  0  0  0  0  0  0  0  0  0  0
  -23.2300    0.1178   29.2575 C   0  0  0  0  0  0  0  0  0  0  0  0
  -22.1393    0.9427   28.9224 C   0  0  0  0  0  0  0  0  0  0  0  0
  -27.8294   -1.9287   29.8545 C   0  0  0  0  0  0  0  0  0  0  0  0
  -26.5882   -2.3272   30.2682 C   0  0  0  0  0  0  0  0  0  0  0  0
  -25.4565   -1.5432   29.9146 C   0  0  0  0  0  0  0  0  0  0  0  0
  -22.2302    1.9089   27.8723 C   0  0  0  0  0  0  0  0  0  0  0  0
  -24.5538    1.4700   27.7617 C   0  0  0  0  0  0  0  0  0  0  0  0
  -23.4471    2.1666   27.3764 C   0  0  0  0  0  0  0  0  0  0  0  0
  -28.9842   -2.7701   30.2567 C   0  0  0  0  0  0  0  0  0  0  0  0
  -28.8382   -4.0775   30.4091 N   0  0  0  0  0  0  0  0  0  0  0  0
  -29.6586   -4.8147   31.2005 C   0  0  0  0  0  0  0  0  0  0  0  0
  -30.0569   -2.2457   30.4220 O   0  0  0  0  0  0  0  0  0  0  0  0
  -30.5735   -5.6289   30.3766 C   0  0  0  0  0  0  0  0  0  0  0  0
  -31.1716   -6.7267   30.9286 C   0  0  0  0  0  0  0  0  0  0  0  0
  -30.9374   -7.0533   32.3318 C   0  0  0  0  0  0  0  0  0  0  0  0
  -30.0375   -6.3013   33.0635 C   0  0  0  0  0  0  0  0  0  0  0  0
  -29.3187   -5.2539   32.4776 C   0  0  0  0  0  0  0  0  0  0  0  0
  -23.6081    3.0984   26.4092 O   0  0  0  0  0  0  0  0  0  0  0  0
  -32.1548   -7.4662   30.1889 C   0  0  0  0  0  0  0  0  0  0  0  0
  -31.6770   -8.1663   29.1447 C   0  0  0  0  0  0  0  0  0  0  0  0
  -32.4221   -8.7927   28.1648 C   0  0  0  0  0  0  0  0  0  0  0  0
  -31.7871   -9.3855   27.0287 C   0  0  0  0  0  0  0  0  0  0  0  0
  -30.4972   -9.2991   26.8767 C   0  0  0  0  0  0  0  0  0  0  0  0
  -29.7380   -8.6637   27.8277 C   0  0  0  0  0  0  0  0  0  0  0  0
  -30.2396   -8.0768   28.8588 C   0  0  0  0  0  0  0  0  0  0  0  0
  -33.6452   -7.4566   30.3232 C   0  0  0  0  0  0  0  0  0  0  0  0
  -34.2065   -6.5913   31.3024 C   0  0  0  0  0  0  0  0  0  0  0  0
  -35.5888   -6.6131   31.4409 C   0  0  0  0  0  0  0  0  0  0  0  0
  -36.3192   -7.4475   30.6377 C   0  0  0  0  0  0  0  0  0  0  0  0
  -35.7750   -8.2611   29.7175 C   0  0  0  0  0  0  0  0  0  0  0  0
  -34.3994   -8.2650   29.5851 C   0  0  0  0  0  0  0  0  0  0  0  0
  3  4  1  0
  4  5  1  0
  6 10  1  0
  4 11  1  0
 10 12  1  0
 11 12  1  0
  7 13  1  0
 13 14  1  0
 14 15  1  0
 13 16  2  0
 12 22  2  0
 18 23  1  0
 23 24  1  0
 23 30  1  0
  6  5  1  0
 24 25  2  0
 25 26  1  0
 26 27  2  0
 27 28  1  0
 28 29  2  0
 29 24  1  0
  1  2  2  0
  2  3  1  0
  3  9  2  0
  9  8  1  0
  8  7  2  0
  7  1  1  0
 30 31  2  0
 31 32  1  0
 32 33  2  0
 33 34  1  0
 34 35  2  0
 35 30  1  0
 15 17  2  0
 17 18  1  0
 18 19  2  0
 19 20  1  0
 20 21  2  0
 21 15  1  0
M  END

$$$$
