No_2187-gen_results/8p0m/2024-11-26-14-13-15/
     RDKit          3D

 28 30  0  0  0  0  0  0  0  0999 V2000
  -28.0162   -0.8135   28.8779 C   0  0  0  0  0  0  0  0  0  0  0  0
  -27.0636   -0.1190   28.6079 C   0  0  0  0  0  0  0  0  0  0  0  0
  -26.8756    1.1325   28.9134 C   0  0  0  0  0  0  0  0  0  0  0  0
  -25.6883    1.9515   28.5672 C   0  0  0  0  0  0  0  0  0  0  0  0
  -24.6394    1.2834   27.8753 C   0  0  0  0  0  0  0  0  0  0  0  0
  -24.8068   -0.0513   27.6040 C   0  0  0  0  0  0  0  0  0  0  0  0
  -25.9019   -0.7670   27.9511 C   0  0  0  0  0  0  0  0  0  0  0  0
  -28.0611   -1.4288   30.2827 C   0  0  0  0  0  0  0  0  0  0  0  0
  -27.1884   -1.8884   30.6773 O   0  0  0  0  0  0  0  0  0  0  0  0
  -29.2430   -1.4277   30.9297 N   0  0  0  0  0  0  0  0  0  0  0  0
  -23.4130    1.9745   27.5059 C   0  0  0  0  0  0  0  0  0  0  0  0
  -22.4412    1.4252   27.6431 F   0  0  0  0  0  0  0  0  0  0  0  0
  -23.5090    2.3566   26.1494 F   0  0  0  0  0  0  0  0  0  0  0  0
  -23.4404    3.3131   28.0733 F   0  0  0  0  0  0  0  0  0  0  0  0
  -29.3725   -2.1208   32.2579 C   0  0  0  0  0  0  0  0  0  0  0  0
  -30.4354   -0.8181   30.4445 C   0  0  0  0  0  0  0  0  0  0  0  0
  -31.3841   -1.5526   30.0961 C   0  0  0  0  0  0  0  0  0  0  0  0
  -32.4182   -1.0360   29.3231 C   0  0  0  0  0  0  0  0  0  0  0  0
  -32.3914    0.3289   28.9979 C   0  0  0  0  0  0  0  0  0  0  0  0
  -31.3414    1.1143   29.4043 C   0  0  0  0  0  0  0  0  0  0  0  0
  -30.3070    0.5412   30.0872 C   0  0  0  0  0  0  0  0  0  0  0  0
  -28.9963   -1.4507   33.2924 C   0  0  0  0  0  0  0  0  0  0  0  0
  -28.2352   -0.4167   33.4200 C   0  0  0  0  0  0  0  0  0  0  0  0
  -27.8719    0.2755   34.5983 C   0  0  0  0  0  0  0  0  0  0  0  0
  -28.1893   -0.3417   35.7790 C   0  0  0  0  0  0  0  0  0  0  0  0
  -29.4505   -2.0578   34.6226 C   0  0  0  0  0  0  0  0  0  0  0  0
  -29.0320   -1.4731   35.8141 C   0  0  0  0  0  0  0  0  0  0  0  0
  -29.8311   -3.2657   32.1017 O   0  0  0  0  0  0  0  0  0  0  0  0
  1  2  2  3
  2  3  1  0
  3  4  1  0
  4  5  1  0
  5  6  1  0
  2  7  1  0
  6  7  1  0
  1  8  1  0
  8  9  2  0
  8 10  1  0
  5 11  1  0
 11 12  1  0
 11 13  1  0
 11 14  1  0
 10 15  1  0
 10 16  1  0
 15 22  1  0
 15 28  2  0
 22 23  2  0
 23 24  1  0
 24 25  2  0
 25 27  1  0
 27 26  2  0
 26 22  1  0
 16 17  2  0
 17 18  1  0
 18 19  2  0
 19 20  1  0
 20 21  2  0
 21 16  1  0
M  END

$$$$
