No_2827-gen_results/8p0m/2024-11-26-14-13-15/
     RDKit          3D

 35 38  0  0  0  0  0  0  0  0999 V2000
  -28.0162   -0.8135   28.8779 C   0  0  0  0  0  0  0  0  0  0  0  0
  -27.0636   -0.1189   28.6079 C   0  0  0  0  0  0  0  0  0  0  0  0
  -25.7647   -0.3897   29.0360 C   0  0  0  0  0  0  0  0  0  0  0  0
  -25.5296   -1.5302   29.9014 C   0  0  0  0  0  0  0  0  0  0  0  0
  -26.6888   -2.2893   30.1810 C   0  0  0  0  0  0  0  0  0  0  0  0
  -27.8727   -1.9508   29.7373 C   0  0  0  0  0  0  0  0  0  0  0  0
  -29.1941   -2.9228   30.2191 Cl  0  0  0  0  0  0  0  0  0  0  0  0
  -24.5326    0.4193   28.7249 C   0  0  0  0  0  0  0  0  0  0  0  0
  -23.3426    0.1084   29.1746 C   0  0  0  0  0  0  0  0  0  0  0  0
  -23.1956   -1.1870   29.8223 C   0  0  0  0  0  0  0  0  0  0  0  0
  -24.2588   -1.9382   30.2802 C   0  0  0  0  0  0  0  0  0  0  0  0
  -22.1150    0.7984   28.7733 C   0  0  0  0  0  0  0  0  0  0  0  0
  -21.6074    1.1403   27.8582 N   0  0  0  0  0  0  0  0  0  0  0  0
  -22.4610    1.6132   26.8788 C   0  0  0  0  0  0  0  0  0  0  0  0
  -23.6683    2.2590   27.2291 C   0  0  0  0  0  0  0  0  0  0  0  0
  -24.7303    1.4633   27.7070 C   0  0  0  0  0  0  0  0  0  0  0  0
  -24.0866    3.5718   26.6959 C   0  0  0  0  0  0  0  0  0  0  0  0
  -24.8456    4.4555   27.5001 C   0  0  0  0  0  0  0  0  0  0  0  0
  -25.2237    5.7116   27.1463 C   0  0  0  0  0  0  0  0  0  0  0  0
  -26.0121    6.5373   27.9080 C   0  0  0  0  0  0  0  0  0  0  0  0
  -26.4483    6.0931   29.1552 C   0  0  0  0  0  0  0  0  0  0  0  0
  -26.1129    4.8054   29.5532 C   0  0  0  0  0  0  0  0  0  0  0  0
  -25.3166    3.9975   28.7843 C   0  0  0  0  0  0  0  0  0  0  0  0
  -26.6024    4.2829   30.8945 C   0  0  0  0  0  0  0  0  0  0  0  0
  -27.4395    4.5479   31.4363 O   0  0  0  0  0  0  0  0  0  0  0  0
  -25.7087    3.3376   31.3475 O   0  0  0  0  0  0  0  0  0  0  0  0
  -23.7522    3.8591   25.5264 O   0  0  0  0  0  0  0  0  0  0  0  0
  -29.3069   -0.4867   28.5475 O   0  0  0  0  0  0  0  0  0  0  0  0
  -30.1036    0.1910   29.4381 C   0  0  0  0  0  0  0  0  0  0  0  0
  -31.3597   -0.0415   29.3163 C   0  0  0  0  0  0  0  0  0  0  0  0
  -32.0902    0.1096   30.2210 O   0  0  0  0  0  0  0  0  0  0  0  0
  -31.8722   -0.4657   28.2321 F   0  0  0  0  0  0  0  0  0  0  0  0
  -29.5240    1.1019   30.1407 O   0  0  0  0  0  0  0  0  0  0  0  0
  -26.2080    2.2782   32.1355 C   0  0  0  0  0  0  0  0  0  0  0  0
  -25.5937    1.9750   33.1124 C   0  0  0  0  0  0  0  0  0  0  0  0
  6  7  1  0
  9 12  1  0
 12 13  2  0
 13 14  1  0
 14 15  1  0
  8 16  1  0
 15 16  2  0
 15 17  1  0
 17 18  1  0
 22 24  1  0
 24 25  2  0
 24 26  1  0
 17 27  2  0
  1 28  1  0
 28 29  1  0
 29 30  1  0
 30 31  2  0
 30 32  1  0
 29 33  2  0
 26 34  1  0
 34 35  2  0
 18 19  2  0
 19 20  1  0
 20 21  2  0
 21 22  1  0
 22 23  2  0
 23 18  1  0
  1  2  2  0
  2  3  1  0
  4  5  1  0
  5  6  2  0
  6  1  1  0
  3  4  2  0
  4 11  1  0
 11 10  2  0
 10  9  1  0
  9  8  2  0
  8  3  1  0
M  END

$$$$
