No_2684-gen_results/8p0m/2024-11-26-14-13-15/
     RDKit          3D

 35 38  0  0  0  0  0  0  0  0999 V2000
  -28.0162   -0.8135   28.8779 C   0  0  0  0  0  0  0  0  0  0  0  0
  -27.0636   -0.1189   28.6079 C   0  0  0  0  0  0  0  0  0  0  0  0
  -25.7923   -0.4302   29.0761 C   0  0  0  0  0  0  0  0  0  0  0  0
  -24.5456    0.3494   28.8225 C   0  0  0  0  0  0  0  0  0  0  0  0
  -24.6586    1.4196   27.8878 C   0  0  0  0  0  0  0  0  0  0  0  0
  -25.9471    1.6811   27.3792 C   0  0  0  0  0  0  0  0  0  0  0  0
  -27.0439    0.9739   27.6871 C   0  0  0  0  0  0  0  0  0  0  0  0
  -27.9517   -1.7518   29.9375 N   0  0  0  0  0  0  0  0  0  0  0  0
  -29.2110   -0.3383   28.7434 O   0  0  0  0  0  0  0  0  0  0  0  0
  -26.8048   -2.3569   30.3683 C   0  0  0  0  0  0  0  0  0  0  0  0
  -25.5836   -1.6019   29.9654 C   0  0  0  0  0  0  0  0  0  0  0  0
  -29.1541   -2.5828   30.3420 C   0  0  0  0  0  0  0  0  0  0  0  0
  -30.0672   -2.0803   30.8811 C   0  0  0  0  0  0  0  0  0  0  0  0
  -31.1596   -2.7689   31.2715 C   0  0  0  0  0  0  0  0  0  0  0  0
  -29.0782   -3.9721   30.2510 C   0  0  0  0  0  0  0  0  0  0  0  0
  -30.0590   -4.7751   30.6968 C   0  0  0  0  0  0  0  0  0  0  0  0
  -31.1432   -4.1903   31.2635 C   0  0  0  0  0  0  0  0  0  0  0  0
  -23.4643    2.1774   27.5331 C   0  0  0  0  0  0  0  0  0  0  0  0
  -22.8152    2.5598   28.4875 F   0  0  0  0  0  0  0  0  0  0  0  0
  -23.7968    3.2869   26.7663 F   0  0  0  0  0  0  0  0  0  0  0  0
  -22.6051    1.4317   26.7776 F   0  0  0  0  0  0  0  0  0  0  0  0
  -27.9026   -4.5874   29.7629 O   0  0  0  0  0  0  0  0  0  0  0  0
  -32.2969   -5.0156   31.7551 C   0  0  0  0  0  0  0  0  0  0  0  0
  -33.3291   -4.6465   32.1794 F   0  0  0  0  0  0  0  0  0  0  0  0
  -32.1193   -6.4487   31.5665 C   0  0  0  0  0  0  0  0  0  0  0  0
  -33.1320   -7.1029   31.2663 C   0  0  0  0  0  0  0  0  0  0  0  0
  -34.3213   -6.5572   30.9785 C   0  0  0  0  0  0  0  0  0  0  0  0
  -35.3576   -7.1916   30.6218 C   0  0  0  0  0  0  0  0  0  0  0  0
  -36.6160   -6.5278   30.3679 C   0  0  0  0  0  0  0  0  0  0  0  0
  -36.6564   -5.4604   30.3054 C   0  0  0  0  0  0  0  0  0  0  0  0
  -35.6306   -4.4856   30.5769 C   0  0  0  0  0  0  0  0  0  0  0  0
  -34.4393   -5.0370   30.8750 C   0  0  0  0  0  0  0  0  0  0  0  0
  -33.6116   -4.6292   29.5773 C   0  0  0  0  0  0  0  0  0  0  0  0
  -33.8021   -3.3382   29.1211 C   0  0  0  0  0  0  0  0  0  0  0  0
  -32.9976   -2.8722   28.0254 C   0  0  0  0  0  0  0  0  0  0  0  0
  1  2  1  0
  1  8  1  0
  1  9  2  0
  8 10  1  0
  3 11  1  0
  8 12  1  0
 12 13  1  0
 12 15  1  0
 15 16  1  0
 14 17  1  0
  5 18  1  0
 18 19  1  0
 18 20  1  0
 18 21  1  0
 15 22  2  0
 17 23  1  0
 23 24  1  0
 23 25  1  0
 25 26  2  3
 26 27  1  0
 32 33  1  0
 33 34  2  3
 34 35  1  0
 11 10  1  0
 13 14  1  0
 17 16  1  0
  2  7  2  0
  7  6  1  0
  6  5  2  0
  5  4  1  0
  4  3  2  0
  3  2  1  0
 27 28  2  0
 28 29  1  0
 29 30  2  0
 30 31  1  0
 31 32  2  0
 32 27  1  0
M  END

$$$$
