No_2659-gen_results/8p0m/2024-11-26-14-13-15/
     RDKit          3D

 20 21  0  0  0  0  0  0  0  0999 V2000
  -28.1493   -0.8198   28.9079 Cl  0  0  0  0  0  0  0  0  0  0  0  0
  -26.9116   -0.0797   28.9452 C   0  0  0  0  0  0  0  0  0  0  0  0
  -26.2828   -0.1883   27.9884 F   0  0  0  0  0  0  0  0  0  0  0  0
  -26.3333    0.5804   30.0971 C   0  0  0  0  0  0  0  0  0  0  0  0
  -25.1686    1.0521   30.0923 C   0  0  0  0  0  0  0  0  0  0  0  0
  -24.6927    2.0440   30.4442 C   0  0  0  0  0  0  0  0  0  0  0  0
  -24.0374    0.0371   29.6857 C   0  0  0  0  0  0  0  0  0  0  0  0
  -22.7066    0.4715   29.6067 C   0  0  0  0  0  0  0  0  0  0  0  0
  -25.7163    3.1149   30.9357 C   0  0  0  0  0  0  0  0  0  0  0  0
  -21.7848   -0.4830   29.0822 C   0  0  0  0  0  0  0  0  0  0  0  0
  -25.8417    4.3203   30.3293 C   0  0  0  0  0  0  0  0  0  0  0  0
  -27.0522    4.6005   29.7020 C   0  0  0  0  0  0  0  0  0  0  0  0
  -28.0230    3.9402   30.0221 C   0  0  0  0  0  0  0  0  0  0  0  0
  -29.2738    4.1637   29.3724 C   0  0  0  0  0  0  0  0  0  0  0  0
  -30.4165    3.3890   29.7328 C   0  0  0  0  0  0  0  0  0  0  0  0
  -30.2105    2.4498   30.7425 C   0  0  0  0  0  0  0  0  0  0  0  0
  -29.0637    2.2781   31.4100 C   0  0  0  0  0  0  0  0  0  0  0  0
  -27.9425    3.0510   31.0463 C   0  0  0  0  0  0  0  0  0  0  0  0
  -26.6799    2.5853   31.4934 C   0  0  0  0  0  0  0  0  0  0  0  0
  -26.5946    3.0230   32.8933 F   0  0  0  0  0  0  0  0  0  0  0  0
  1  2  1  0
  2  3  1  0
  2  4  1  0
  4  5  1  0
  5  6  2  3
  5  7  1  0
  7  8  2  3
  6  9  1  0
  8 10  1  0
 19 20  1  0
  9 11  2  0
 11 12  1  0
 12 13  2  0
 18 19  2  0
 19  9  1  0
 13 14  1  0
 14 15  2  0
 15 16  1  0
 16 17  2  0
 17 18  1  0
 18 13  1  0
M  END

$$$$
