No_2783-gen_results/8p0m/2024-11-26-14-13-15/
     RDKit          3D

 17 19  0  0  0  0  0  0  0  0999 V2000
  -28.0544   -1.0498   28.7246 N   0  0  0  0  0  0  0  0  0  0  0  0
  -27.7460   -0.0733   29.0098 C   0  0  0  0  0  0  0  0  0  0  0  0
  -27.5562    0.3369   30.3393 C   0  0  0  0  0  0  0  0  0  0  0  0
  -27.0710    1.6709   30.7899 C   0  0  0  0  0  0  0  0  0  0  0  0
  -26.6539    2.5222   29.7363 C   0  0  0  0  0  0  0  0  0  0  0  0
  -26.7304    2.0603   28.4078 C   0  0  0  0  0  0  0  0  0  0  0  0
  -27.1892    0.8153   28.0522 C   0  0  0  0  0  0  0  0  0  0  0  0
  -29.0703   -1.5859   29.5133 C   0  0  0  0  0  0  0  0  0  0  0  0
  -28.9502   -1.4760   30.9443 C   0  0  0  0  0  0  0  0  0  0  0  0
  -28.2882   -0.3542   31.3981 C   0  0  0  0  0  0  0  0  0  0  0  0
  -27.2469    0.7477   26.6359 C   0  0  0  0  0  0  0  0  0  0  0  0
  -26.5040    1.3336   25.7785 C   0  0  0  0  0  0  0  0  0  0  0  0
  -25.9171    2.5535   26.1548 C   0  0  0  0  0  0  0  0  0  0  0  0
  -25.9971    2.9818   27.4829 C   0  0  0  0  0  0  0  0  0  0  0  0
  -25.9977    3.7938   30.0998 C   0  0  0  0  0  0  0  0  0  0  0  0
  -26.6671    4.5896   30.7140 O   0  0  0  0  0  0  0  0  0  0  0  0
  -25.0102    4.1730   29.2955 O   0  0  0  0  0  0  0  0  0  0  0  0
  5 15  1  0
 15 16  1  0
 15 17  2  0
  3  4  1  0
  4  5  2  0
  5  6  1  0
  7  2  1  0
  1  2  2  0
  2  3  1  0
  3 10  2  0
 10  9  1  0
  9  8  2  0
  8  1  1  0
  6  7  2  0
  7 11  1  0
 11 12  2  0
 12 13  1  0
 13 14  2  0
 14  6  1  0
M  END

$$$$
