No_2758-gen_results/8p0m/2024-11-26-14-13-15/
     RDKit          3D

 24 25  0  0  0  0  0  0  0  0999 V2000
  -28.1229   -1.3353   28.4874 O   0  0  0  0  0  0  0  0  0  0  0  0
  -27.0637   -0.8242   28.8687 C   0  0  0  0  0  0  0  0  0  0  0  0
  -26.9592    0.0926   29.7582 C   0  0  0  0  0  0  0  0  0  0  0  0
  -25.8472   -1.5491   28.6589 N   0  0  0  0  0  0  0  0  0  0  0  0
  -25.7222    0.7178   30.1925 C   0  0  0  0  0  0  0  0  0  0  0  0
  -24.5649   -1.0740   29.0510 C   0  0  0  0  0  0  0  0  0  0  0  0
  -24.5288    0.0511   29.8479 C   0  0  0  0  0  0  0  0  0  0  0  0
  -28.1893    0.8778   30.1322 C   0  0  0  0  0  0  0  0  0  0  0  0
  -28.9221    0.3352   31.0808 C   0  0  0  0  0  0  0  0  0  0  0  0
  -30.1628    0.9705   31.5430 C   0  0  0  0  0  0  0  0  0  0  0  0
  -30.4997    2.1778   30.9182 C   0  0  0  0  0  0  0  0  0  0  0  0
  -29.6773    2.6767   29.9220 C   0  0  0  0  0  0  0  0  0  0  0  0
  -28.4648    2.0718   29.5489 C   0  0  0  0  0  0  0  0  0  0  0  0
  -23.2004    0.5435   30.2814 C   0  0  0  0  0  0  0  0  0  0  0  0
  -23.1320    1.5681   30.8527 O   0  0  0  0  0  0  0  0  0  0  0  0
  -22.1675   -0.2555   30.2708 O   0  0  0  0  0  0  0  0  0  0  0  0
  -30.0036    3.9915   29.2765 C   0  0  0  0  0  0  0  0  0  0  0  0
  -29.8984    4.0279   28.2071 F   0  0  0  0  0  0  0  0  0  0  0  0
  -31.3282    4.2844   29.6148 F   0  0  0  0  0  0  0  0  0  0  0  0
  -29.2681    4.9589   29.9191 F   0  0  0  0  0  0  0  0  0  0  0  0
  -30.9812    0.3444   32.5541 C   0  0  0  0  0  0  0  0  0  0  0  0
  -30.9377    0.5982   33.6584 O   0  0  0  0  0  0  0  0  0  0  0  0
  -31.7511   -0.5923   32.0195 O   0  0  0  0  0  0  0  0  0  0  0  0
  -25.6833    1.7935   30.9753 O   0  0  0  0  0  0  0  0  0  0  0  0
  1  2  2  0
  2  3  1  0
  2  4  1  0
  3  5  1  0
  5  7  1  0
  6  7  1  0
  3  8  1  0
  7 14  1  0
 14 15  2  0
 14 16  1  0
 12 17  1  0
 17 18  1  0
 17 19  1  0
 17 20  1  0
 10 21  1  0
 21 22  2  0
 21 23  1  0
  5 24  2  0
  6  4  1  0
  8  9  2  0
  9 10  1  0
 10 11  2  0
 11 12  1  0
 12 13  2  0
 13  8  1  0
M  END

$$$$
