No_280-gen_results/8p0m/2024-11-26-14-13-15/
     RDKit          3D

 33 37  0  0  0  0  0  0  0  0999 V2000
  -28.0162   -0.8135   28.8779 C   0  0  0  0  0  0  0  0  0  0  0  0
  -27.0636   -0.1190   28.6079 C   0  0  0  0  0  0  0  0  0  0  0  0
  -27.0010    0.6913   27.4910 C   0  0  0  0  0  0  0  0  0  0  0  0
  -28.1373    0.7363   26.6350 C   0  0  0  0  0  0  0  0  0  0  0  0
  -29.2360    0.0765   27.0690 C   0  0  0  0  0  0  0  0  0  0  0  0
  -30.3815    0.2048   26.2662 C   0  0  0  0  0  0  0  0  0  0  0  0
  -29.1803   -0.6422   28.1830 C   0  0  0  0  0  0  0  0  0  0  0  0
  -31.3262   -0.3813   26.5663 O   0  0  0  0  0  0  0  0  0  0  0  0
  -30.2374    0.5818   24.9688 O   0  0  0  0  0  0  0  0  0  0  0  0
  -25.8624   -0.2902   29.5992 C   0  0  0  0  0  0  0  0  0  0  0  0
  -25.0133    0.7000   29.9069 C   0  0  0  0  0  0  0  0  0  0  0  0
  -23.8165    1.0157   29.2957 C   0  0  0  0  0  0  0  0  0  0  0  0
  -23.4897    1.1592   28.3005 C   0  0  0  0  0  0  0  0  0  0  0  0
  -22.0854    1.4535   27.8221 C   0  0  0  0  0  0  0  0  0  0  0  0
  -21.0838    0.7685   28.4160 C   0  0  0  0  0  0  0  0  0  0  0  0
  -21.3910    0.1013   29.7012 C   0  0  0  0  0  0  0  0  0  0  0  0
  -22.7919    0.0709   30.0763 C   0  0  0  0  0  0  0  0  0  0  0  0
  -25.5341    1.8892   30.6691 C   0  0  0  0  0  0  0  0  0  0  0  0
  -25.4566    3.0728   30.3060 C   0  0  0  0  0  0  0  0  0  0  0  0
  -25.8619    4.1843   31.1063 C   0  0  0  0  0  0  0  0  0  0  0  0
  -26.4415    3.8901   32.3512 C   0  0  0  0  0  0  0  0  0  0  0  0
  -26.0499    1.5499   32.0324 C   0  0  0  0  0  0  0  0  0  0  0  0
  -26.4830    2.6123   32.8469 C   0  0  0  0  0  0  0  0  0  0  0  0
  -25.5265   -1.5860   30.0449 C   0  0  0  0  0  0  0  0  0  0  0  0
  -25.7417    5.8134   30.5895 Cl  0  0  0  0  0  0  0  0  0  0  0  0
  -24.8265   -2.4665   29.1265 C   0  0  0  0  0  0  0  0  0  0  0  0
  -24.9315   -3.9116   29.1883 C   0  0  0  0  0  0  0  0  0  0  0  0
  -26.0817   -4.4037   29.7651 C   0  0  0  0  0  0  0  0  0  0  0  0
  -27.0777   -3.5787   30.4026 C   0  0  0  0  0  0  0  0  0  0  0  0
  -26.9611   -2.2905   30.2590 C   0  0  0  0  0  0  0  0  0  0  0  0
  -27.7887   -1.5522   29.4769 N   0  0  0  0  0  0  0  0  0  0  0  0
  -24.8248   -1.5976   31.4537 C   0  0  0  0  0  0  0  0  0  0  0  0
  -24.0690   -4.6838   28.6153 O   0  0  0  0  0  0  0  0  0  0  0  0
  5  6  1  0
  6  8  1  0
  6  9  2  0
  2 10  1  0
 10 11  1  0
 11 18  1  0
 10 24  1  0
 20 25  1  0
 24 26  1  0
 26 27  1  0
 27 28  1  0
 24 30  1  0
 29 30  1  0
  1 31  1  0
 30 31  1  0
 24 32  1  0
 27 33  2  0
 11 12  1  0
 28 29  1  0
 12 13  2  0
 13 14  1  0
 14 15  2  0
 15 16  1  0
 16 17  2  0
 17 12  1  0
 18 19  2  0
 19 20  1  0
 20 21  2  0
 21 23  1  0
 23 22  2  0
 22 18  1  0
  1  2  1  0
  2  3  2  0
  3  4  1  0
  4  5  2  0
  5  7  1  0
  7  1  2  0
M  END

$$$$
