No_2344-gen_results/8p0m/2024-11-26-14-13-15/
     RDKit          3D

 28 30  0  0  0  0  0  0  0  0999 V2000
  -28.0162   -0.8135   28.8779 C   0  0  0  0  0  0  0  0  0  0  0  0
  -27.0636   -0.1189   28.6079 C   0  0  0  0  0  0  0  0  0  0  0  0
  -26.9287    1.1713   29.0083 C   0  0  0  0  0  0  0  0  0  0  0  0
  -25.7702    2.0341   28.6884 C   0  0  0  0  0  0  0  0  0  0  0  0
  -24.7141    1.4431   27.9188 C   0  0  0  0  0  0  0  0  0  0  0  0
  -24.8590    0.0783   27.5836 C   0  0  0  0  0  0  0  0  0  0  0  0
  -25.9647   -0.6606   27.9164 C   0  0  0  0  0  0  0  0  0  0  0  0
  -27.9821   -1.6367   30.0748 N   0  0  0  0  0  0  0  0  0  0  0  0
  -29.2163   -0.4132   28.6627 O   0  0  0  0  0  0  0  0  0  0  0  0
  -29.0156   -2.4825   30.5856 C   0  0  0  0  0  0  0  0  0  0  0  0
  -23.5339    2.1607   27.5674 C   0  0  0  0  0  0  0  0  0  0  0  0
  -22.3731    2.1188   28.2664 C   0  0  0  0  0  0  0  0  0  0  0  0
  -23.3236    2.1211   26.0481 C   0  0  0  0  0  0  0  0  0  0  0  0
  -26.6595   -2.0341   30.6401 C   0  0  0  0  0  0  0  0  0  0  0  0
  -29.3680   -2.1538   31.8825 C   0  0  0  0  0  0  0  0  0  0  0  0
  -30.6276   -1.5741   32.0562 C   0  0  0  0  0  0  0  0  0  0  0  0
  -31.4781   -1.5354   31.2322 C   0  0  0  0  0  0  0  0  0  0  0  0
  -31.6521   -2.6531   30.4788 C   0  0  0  0  0  0  0  0  0  0  0  0
  -30.5055   -3.1885   29.7410 C   0  0  0  0  0  0  0  0  0  0  0  0
  -32.7269   -3.2705   29.9675 O   0  0  0  0  0  0  0  0  0  0  0  0
  -25.6224    3.4198   29.0629 C   0  0  0  0  0  0  0  0  0  0  0  0
  -25.5636    3.7056   30.3503 N   0  0  0  0  0  0  0  0  0  0  0  0
  -25.9526    4.9671   30.8533 C   0  0  0  0  0  0  0  0  0  0  0  0
  -25.0127    2.7903   31.3297 C   0  0  0  0  0  0  0  0  0  0  0  0
  -26.4005    6.1081   29.9022 Cl  0  0  0  0  0  0  0  0  0  0  0  0
  -25.8222    5.1842   32.2776 C   0  0  0  0  0  0  0  0  0  0  0  0
  -25.4401    4.2959   33.2100 C   0  0  0  0  0  0  0  0  0  0  0  0
  -25.0579    3.0558   32.6503 N   0  0  0  0  0  0  0  0  0  0  0  0
  1  2  1  0
  1  8  1  0
  1  9  2  0
  8 10  1  0
  5 11  1  0
 11 12  1  0
 11 13  1  0
  8 14  1  0
 10 15  1  0
 15 16  1  0
 16 17  1  0
 17 18  1  0
 10 19  1  0
 18 19  1  0
 18 20  2  0
  4 21  1  0
 21 22  1  0
 22 23  1  0
 22 24  1  0
 23 25  1  0
 23 26  1  0
 24 28  1  0
 26 27  1  0
 27 28  1  0
  2  3  2  0
  3  4  1  0
  4  5  2  0
  5  6  1  0
  6  7  2  0
  7  2  1  0
M  END

$$$$
