No_281-gen_results/8p0m/2024-11-26-14-13-15/
     RDKit          3D

 21 23  0  0  0  0  0  0  0  0999 V2000
  -28.0162   -0.8135   28.8779 C   0  0  0  0  0  0  0  0  0  0  0  0
  -27.0636   -0.1189   28.6079 C   0  0  0  0  0  0  0  0  0  0  0  0
  -25.7647   -0.3897   29.0360 C   0  0  0  0  0  0  0  0  0  0  0  0
  -24.5516    0.4058   28.7646 C   0  0  0  0  0  0  0  0  0  0  0  0
  -23.2300    0.1178   29.2575 C   0  0  0  0  0  0  0  0  0  0  0  0
  -22.1393    0.9427   28.9224 C   0  0  0  0  0  0  0  0  0  0  0  0
  -27.8294   -1.9287   29.8545 C   0  0  0  0  0  0  0  0  0  0  0  0
  -26.5882   -2.3272   30.2682 C   0  0  0  0  0  0  0  0  0  0  0  0
  -25.4565   -1.5432   29.9146 C   0  0  0  0  0  0  0  0  0  0  0  0
  -22.2302    1.9089   27.8723 C   0  0  0  0  0  0  0  0  0  0  0  0
  -24.2829    1.2237   27.5633 C   0  0  0  0  0  0  0  0  0  0  0  0
  -23.3469    2.0355   27.2666 C   0  0  0  0  0  0  0  0  0  0  0  0
  -28.9809   -2.7680   30.2603 C   0  0  0  0  0  0  0  0  0  0  0  0
  -28.8335   -4.0748   30.4659 N   0  0  0  0  0  0  0  0  0  0  0  0
  -29.9287   -4.9047   30.7305 C   0  0  0  0  0  0  0  0  0  0  0  0
  -30.7638   -5.0557   29.6801 C   0  0  0  0  0  0  0  0  0  0  0  0
  -30.8086   -4.5083   28.7118 C   0  0  0  0  0  0  0  0  0  0  0  0
  -31.7486   -4.7147   27.5805 C   0  0  0  0  0  0  0  0  0  0  0  0
  -32.5134   -5.8749   27.6682 C   0  0  0  0  0  0  0  0  0  0  0  0
  -32.4409   -6.6799   28.8043 C   0  0  0  0  0  0  0  0  0  0  0  0
  -31.5826   -6.3305   29.8263 C   0  0  0  0  0  0  0  0  0  0  0  0
  3  4  1  0
  7 13  1  0
 13 14  2  3
 14 15  1  0
 15 16  1  0
  1  2  2  0
  2  3  1  0
  3  9  2  0
  9  8  1  0
  8  7  2  0
  7  1  1  0
  4  5  2  0
  5  6  1  0
  6 10  2  0
 10 12  1  0
 12 11  2  0
 11  4  1  0
 16 17  2  0
 17 18  1  0
 18 19  2  0
 19 20  1  0
 20 21  2  0
 21 16  1  0
M  END

$$$$
