No_2602-gen_results/8p0m/2024-11-26-14-13-15/
     RDKit          3D

 19 20  0  0  0  0  0  0  0  0999 V2000
  -28.0162   -0.8135   28.8779 C   0  0  0  0  0  0  0  0  0  0  0  0
  -28.4690   -0.7850   29.8287 C   0  0  0  0  0  0  0  0  0  0  0  0
  -26.5455   -0.8762   28.8500 C   0  0  0  0  0  0  0  0  0  0  0  0
  -25.8041   -1.0324   30.0571 C   0  0  0  0  0  0  0  0  0  0  0  0
  -27.9437   -0.9869   31.2075 C   0  0  0  0  0  0  0  0  0  0  0  0
  -26.5825   -1.0386   31.2231 C   0  0  0  0  0  0  0  0  0  0  0  0
  -30.4495   -0.7126   29.8904 Br  0  0  0  0  0  0  0  0  0  0  0  0
  -24.1260   -1.2528   30.2249 Cl  0  0  0  0  0  0  0  0  0  0  0  0
  -25.7633   -0.8879   27.7533 F   0  0  0  0  0  0  0  0  0  0  0  0
  -28.6660   -0.9610   32.3629 O   0  0  0  0  0  0  0  0  0  0  0  0
  -28.3799   -0.0990   33.2446 C   0  0  0  0  0  0  0  0  0  0  0  0
  -28.0480   -0.6227   34.4471 C   0  0  0  0  0  0  0  0  0  0  0  0
  -27.5331    0.2265   35.5292 C   0  0  0  0  0  0  0  0  0  0  0  0
  -27.4936    1.6142   35.3245 C   0  0  0  0  0  0  0  0  0  0  0  0
  -27.7994    2.0926   34.0303 C   0  0  0  0  0  0  0  0  0  0  0  0
  -28.1586    1.2432   33.0333 C   0  0  0  0  0  0  0  0  0  0  0  0
  -27.6245    3.5606   33.8040 C   0  0  0  0  0  0  0  0  0  0  0  0
  -27.3770    4.0095   32.9248 O   0  0  0  0  0  0  0  0  0  0  0  0
  -27.3202    4.1284   34.9722 F   0  0  0  0  0  0  0  0  0  0  0  0
  2  7  1  0
  4  8  1  0
  3  9  1  0
  5 10  1  0
 10 11  1  0
 15 17  1  0
 17 18  2  0
 17 19  1  0
 11 12  2  0
 12 13  1  0
 13 14  2  0
 14 15  1  0
 15 16  2  0
 16 11  1  0
  1  2  2  0
  2  5  1  0
  5  6  2  0
  6  4  1  0
  4  3  2  0
  3  1  1  0
M  END

$$$$
