No_2573-gen_results/8p0m/2024-11-26-14-13-15/
     RDKit          3D

 21 22  0  0  0  0  0  0  0  0999 V2000
  -28.0162   -0.8135   28.8779 C   0  0  0  0  0  0  0  0  0  0  0  0
  -28.4690   -0.7850   29.8287 C   0  0  0  0  0  0  0  0  0  0  0  0
  -27.1356    0.2359   28.5352 C   0  0  0  0  0  0  0  0  0  0  0  0
  -26.3351    0.2900   27.2835 C   0  0  0  0  0  0  0  0  0  0  0  0
  -28.3692    0.1957   30.9236 C   0  0  0  0  0  0  0  0  0  0  0  0
  -27.5158    1.2655   30.6540 C   0  0  0  0  0  0  0  0  0  0  0  0
  -26.8411    1.2942   29.4761 C   0  0  0  0  0  0  0  0  0  0  0  0
  -25.7256    1.3977   26.6273 Cl  0  0  0  0  0  0  0  0  0  0  0  0
  -25.1270   -0.7677   27.3838 C   0  0  0  0  0  0  0  0  0  0  0  0
  -27.1755   -0.2854   26.2441 F   0  0  0  0  0  0  0  0  0  0  0  0
  -24.0017   -0.3052   28.0750 C   0  0  0  0  0  0  0  0  0  0  0  0
  -23.3629   -1.1421   29.0546 C   0  0  0  0  0  0  0  0  0  0  0  0
  -22.2085   -0.5910   29.6580 C   0  0  0  0  0  0  0  0  0  0  0  0
  -21.6790    0.5979   29.2128 C   0  0  0  0  0  0  0  0  0  0  0  0
  -22.3181    1.3778   28.2563 C   0  0  0  0  0  0  0  0  0  0  0  0
  -23.4936    0.9147   27.7239 C   0  0  0  0  0  0  0  0  0  0  0  0
  -25.9320    2.4299   29.2745 C   0  0  0  0  0  0  0  0  0  0  0  0
  -26.2220    3.3591   28.6174 O   0  0  0  0  0  0  0  0  0  0  0  0
  -24.9131    2.5294   30.1947 O   0  0  0  0  0  0  0  0  0  0  0  0
  -23.8432   -2.2242   29.4607 O   0  0  0  0  0  0  0  0  0  0  0  0
  -24.0122   -3.2669   28.7312 C   0  0  0  0  0  0  0  0  0  0  0  0
  3  4  1  0
  4  8  1  0
  4  9  1  0
  4 10  1  0
  9 11  1  0
  7 17  1  0
 17 18  2  0
 17 19  1  0
 12 20  1  0
 20 21  1  0
 11 12  2  0
 12 13  1  0
 13 14  2  0
 14 15  1  0
 15 16  2  0
 16 11  1  0
  1  2  2  0
  2  5  1  0
  5  6  2  0
  6  7  1  0
  7  3  2  0
  3  1  1  0
M  END

$$$$
