No_2836-gen_results/8p0m/2024-11-26-14-13-15/
     RDKit          3D

 19 22  0  0  0  0  0  0  0  0999 V2000
  -28.0162   -0.8135   28.8779 C   0  0  0  0  0  0  0  0  0  0  0  0
  -27.0636   -0.1189   28.6079 C   0  0  0  0  0  0  0  0  0  0  0  0
  -26.9716    0.7139   27.5060 C   0  0  0  0  0  0  0  0  0  0  0  0
  -28.1053    0.7744   26.6421 C   0  0  0  0  0  0  0  0  0  0  0  0
  -29.2008    0.1044   27.0527 C   0  0  0  0  0  0  0  0  0  0  0  0
  -29.2096   -0.6029   28.1853 C   0  0  0  0  0  0  0  0  0  0  0  0
  -30.3702    0.2264   26.1604 C   0  0  0  0  0  0  0  0  0  0  0  0
  -30.2991    0.2342   24.9383 N   0  0  0  0  0  0  0  0  0  0  0  0
  -31.6879    0.0997   26.7606 C   0  0  0  0  0  0  0  0  0  0  0  0
  -32.7636    0.0836   25.8698 C   0  0  0  0  0  0  0  0  0  0  0  0
  -31.3039    0.2502   24.0456 C   0  0  0  0  0  0  0  0  0  0  0  0
  -32.5813    0.1828   24.5534 C   0  0  0  0  0  0  0  0  0  0  0  0
  -27.8870   -1.5657   30.0637 O   0  0  0  0  0  0  0  0  0  0  0  0
  -26.9788   -2.5475   30.0156 C   0  0  0  0  0  0  0  0  0  0  0  0
  -25.6128   -2.1553   29.9258 C   0  0  0  0  0  0  0  0  0  0  0  0
  -25.0072   -1.6773   28.7255 C   0  0  0  0  0  0  0  0  0  0  0  0
  -25.6581   -0.4183   28.2830 C   0  0  0  0  0  0  0  0  0  0  0  0
  -24.7891    0.4525   27.5422 C   0  0  0  0  0  0  0  0  0  0  0  0
  -25.7877    1.4048   26.8743 C   0  0  0  0  0  0  0  0  0  0  0  0
  5  7  1  0
  1 13  1  0
 13 14  1  0
 14 15  1  0
 15 16  2  0
  2 17  1  0
 16 17  1  0
 17 18  1  0
  3 19  1  0
 18 19  2  0
  1  2  2  0
  2  3  1  0
  3  4  2  0
  4  5  1  0
  5  6  2  0
  6  1  1  0
  7  8  2  0
  8 11  1  0
 11 12  2  0
 12 10  1  0
 10  9  2  0
  9  7  1  0
M  END

$$$$
