No_2329-gen_results/8p0m/2024-11-26-14-13-15/
     RDKit          3D

 22 23  0  0  0  0  0  0  0  0999 V2000
  -28.0162   -0.8135   28.8779 C   0  0  0  0  0  0  0  0  0  0  0  0
  -27.0636   -0.1189   28.6079 C   0  0  0  0  0  0  0  0  0  0  0  0
  -27.0010    0.6913   27.4910 C   0  0  0  0  0  0  0  0  0  0  0  0
  -25.8548    1.4825   27.0830 C   0  0  0  0  0  0  0  0  0  0  0  0
  -24.6901    1.4526   27.8807 C   0  0  0  0  0  0  0  0  0  0  0  0
  -24.7379    0.6010   29.0416 C   0  0  0  0  0  0  0  0  0  0  0  0
  -25.8234   -0.1688   29.3887 C   0  0  0  0  0  0  0  0  0  0  0  0
  -28.7568   -0.5479   30.0191 N   0  0  0  0  0  0  0  0  0  0  0  0
  -29.7597   -1.3260   30.5171 C   0  0  0  0  0  0  0  0  0  0  0  0
  -30.2314   -2.2937   29.8869 C   0  0  0  0  0  0  0  0  0  0  0  0
  -31.2839   -2.8275   30.1163 N   0  0  0  0  0  0  0  0  0  0  0  0
  -23.5283    2.2052   27.5483 C   0  0  0  0  0  0  0  0  0  0  0  0
  -22.8253    2.5469   28.4888 F   0  0  0  0  0  0  0  0  0  0  0  0
  -22.9206    1.6771   26.6585 F   0  0  0  0  0  0  0  0  0  0  0  0
  -24.0106    3.4339   27.0760 F   0  0  0  0  0  0  0  0  0  0  0  0
  -31.7973   -3.9473   29.4096 C   0  0  0  0  0  0  0  0  0  0  0  0
  -30.9537   -5.0472   29.3075 C   0  0  0  0  0  0  0  0  0  0  0  0
  -30.1872   -5.1556   30.3649 C   0  0  0  0  0  0  0  0  0  0  0  0
  -29.1117   -4.0854   30.5257 C   0  0  0  0  0  0  0  0  0  0  0  0
  -29.2649   -2.7976   30.6964 C   0  0  0  0  0  0  0  0  0  0  0  0
  -28.5692   -2.2243   31.8463 O   0  0  0  0  0  0  0  0  0  0  0  0
  -30.5409   -0.4947   31.3390 C   0  0  0  0  0  0  0  0  0  0  0  0
  1  2  1  0
  1  8  1  0
  8  9  1  0
  9 10  1  0
 10 11  1  0
  5 12  1  0
 12 13  1  0
 12 14  1  0
 12 15  1  0
 11 16  1  0
 16 17  1  0
 17 18  1  0
 18 19  1  0
 10 20  1  0
 19 20  1  0
 20 21  1  0
  9 22  1  0
  2  3  2  0
  3  4  1  0
  4  5  2  0
  5  6  1  0
  6  7  2  0
  7  2  1  0
M  END

$$$$
