No_2315-gen_results/8p0m/2024-11-26-14-13-15/
     RDKit          3D

 18 19  0  0  0  0  0  0  0  0999 V2000
  -28.0162   -0.8135   28.8779 C   0  0  0  0  0  0  0  0  0  0  0  0
  -28.4690   -0.7850   29.8287 C   0  0  0  0  0  0  0  0  0  0  0  0
  -27.0871    0.2903   28.6377 C   0  0  0  0  0  0  0  0  0  0  0  0
  -26.2516    0.4114   27.4223 C   0  0  0  0  0  0  0  0  0  0  0  0
  -28.3141   -0.1267   30.7102 C   0  0  0  0  0  0  0  0  0  0  0  0
  -27.4825    1.0076   30.8097 C   0  0  0  0  0  0  0  0  0  0  0  0
  -26.7770    1.1718   29.6871 C   0  0  0  0  0  0  0  0  0  0  0  0
  -24.9531    0.3511   27.6693 C   0  0  0  0  0  0  0  0  0  0  0  0
  -24.0414    0.5254   26.5444 C   0  0  0  0  0  0  0  0  0  0  0  0
  -24.6013    0.9045   25.3258 C   0  0  0  0  0  0  0  0  0  0  0  0
  -26.6790    0.6708   26.1657 C   0  0  0  0  0  0  0  0  0  0  0  0
  -25.9299    0.8418   25.1187 C   0  0  0  0  0  0  0  0  0  0  0  0
  -28.1734    0.6665   25.9082 C   0  0  0  0  0  0  0  0  0  0  0  0
  -28.9871    1.2032   26.6062 O   0  0  0  0  0  0  0  0  0  0  0  0
  -28.5960   -0.2880   25.0023 O   0  0  0  0  0  0  0  0  0  0  0  0
  -29.7184    0.0497   24.2477 C   0  0  0  0  0  0  0  0  0  0  0  0
  -30.8713    0.0611   24.9946 C   0  0  0  0  0  0  0  0  0  0  0  0
  -30.8623    0.7434   25.9882 O   0  0  0  0  0  0  0  0  0  0  0  0
  3  4  1  0
 11 13  1  0
 13 14  2  0
 13 15  1  0
 15 16  1  0
 16 17  1  0
 17 18  1  0
  4  8  2  0
  8  9  1  0
  9 10  2  0
 10 12  1  0
 12 11  2  0
 11  4  1  0
  1  2  2  0
  2  5  1  0
  5  6  2  0
  6  7  1  0
  7  3  2  0
  3  1  1  0
M  END

$$$$
