No_2850-gen_results/8p0m/2024-11-26-14-13-15/
     RDKit          3D

 22 24  0  0  0  0  0  0  0  0999 V2000
  -28.0162   -0.8135   28.8779 C   0  0  0  0  0  0  0  0  0  0  0  0
  -27.0636   -0.1189   28.6079 C   0  0  0  0  0  0  0  0  0  0  0  0
  -25.7647   -0.3897   29.0360 C   0  0  0  0  0  0  0  0  0  0  0  0
  -25.4887   -1.1536   29.7171 C   0  0  0  0  0  0  0  0  0  0  0  0
  -27.7606   -1.9034   29.8572 C   0  0  0  0  0  0  0  0  0  0  0  0
  -26.4781   -2.1057   30.2362 C   0  0  0  0  0  0  0  0  0  0  0  0
  -28.7676   -2.8171   30.3438 C   0  0  0  0  0  0  0  0  0  0  0  0
  -28.5723   -4.0383   30.4045 O   0  0  0  0  0  0  0  0  0  0  0  0
  -29.9624   -2.3461   30.7489 N   0  0  0  0  0  0  0  0  0  0  0  0
  -31.0161   -3.2462   31.2249 C   0  0  0  0  0  0  0  0  0  0  0  0
  -27.3531    1.2129   27.4605 Cl  0  0  0  0  0  0  0  0  0  0  0  0
  -32.0465   -2.6257   31.5847 C   0  0  0  0  0  0  0  0  0  0  0  0
  -33.1183   -3.2282   32.0804 C   0  0  0  0  0  0  0  0  0  0  0  0
  -33.0676   -4.6842   32.1620 C   0  0  0  0  0  0  0  0  0  0  0  0
  -31.9190   -5.3358   31.7578 C   0  0  0  0  0  0  0  0  0  0  0  0
  -30.8287   -4.6153   31.3247 C   0  0  0  0  0  0  0  0  0  0  0  0
  -24.4771    0.4633   28.5168 C   0  0  0  0  0  0  0  0  0  0  0  0
  -24.3505    1.2183   27.5143 C   0  0  0  0  0  0  0  0  0  0  0  0
  -23.1343    1.8024   27.1783 C   0  0  0  0  0  0  0  0  0  0  0  0
  -21.9614    1.5385   27.9499 C   0  0  0  0  0  0  0  0  0  0  0  0
  -23.2274    0.2090   29.2436 C   0  0  0  0  0  0  0  0  0  0  0  0
  -22.0173    0.7706   28.9513 C   0  0  0  0  0  0  0  0  0  0  0  0
  5  7  1  0
  7  8  2  0
  7  9  1  0
  9 10  1  0
  2 11  1  0
  3 17  1  0
 17 18  2  0
 18 19  1  0
 19 20  2  0
 20 22  1  0
 22 21  2  0
 21 17  1  0
  1  2  2  0
  2  3  1  0
  3  4  2  0
  4  6  1  0
  6  5  2  0
  5  1  1  0
 10 12  2  0
 12 13  1  0
 13 14  2  0
 14 15  1  0
 15 16  2  0
 16 10  1  0
M  END

$$$$
