No_2892-gen_results/8p0m/2024-11-26-14-13-15/
     RDKit          3D

 21 23  0  0  0  0  0  0  0  0999 V2000
  -28.0162   -0.8135   28.8779 C   0  0  0  0  0  0  0  0  0  0  0  0
  -27.0636   -0.1190   28.6079 C   0  0  0  0  0  0  0  0  0  0  0  0
  -26.9716    0.7139   27.5060 C   0  0  0  0  0  0  0  0  0  0  0  0
  -28.1053    0.7744   26.6421 C   0  0  0  0  0  0  0  0  0  0  0  0
  -29.2008    0.1044   27.0527 C   0  0  0  0  0  0  0  0  0  0  0  0
  -29.2096   -0.6029   28.1853 C   0  0  0  0  0  0  0  0  0  0  0  0
  -30.3749    0.2232   26.1670 C   0  0  0  0  0  0  0  0  0  0  0  0
  -30.2608    0.1335   24.8550 C   0  0  0  0  0  0  0  0  0  0  0  0
  -28.9609    0.6395   24.3111 C   0  0  0  0  0  0  0  0  0  0  0  0
  -27.8389    0.8320   25.1832 C   0  0  0  0  0  0  0  0  0  0  0  0
  -27.8394   -1.5698   30.2299 C   0  0  0  0  0  0  0  0  0  0  0  0
  -26.8104   -2.1027   30.5098 O   0  0  0  0  0  0  0  0  0  0  0  0
  -28.9195   -1.8008   30.8987 O   0  0  0  0  0  0  0  0  0  0  0  0
  -25.6040    1.2676   27.2012 C   0  0  0  0  0  0  0  0  0  0  0  0
  -24.5263    0.7493   27.5755 C   0  0  0  0  0  0  0  0  0  0  0  0
  -23.4180    1.3983   27.9766 C   0  0  0  0  0  0  0  0  0  0  0  0
  -22.3438    0.8632   28.7245 C   0  0  0  0  0  0  0  0  0  0  0  0
  -22.4544   -0.4385   29.0538 C   0  0  0  0  0  0  0  0  0  0  0  0
  -23.5810   -1.2054   28.8109 C   0  0  0  0  0  0  0  0  0  0  0  0
  -24.6384   -0.6190   28.1759 C   0  0  0  0  0  0  0  0  0  0  0  0
  -25.6154    2.5965   26.5202 C   0  0  0  0  0  0  0  0  0  0  0  0
  1 11  1  0
 11 12  2  0
 11 13  1  0
  3 14  1  0
 14 21  1  0
 14 15  1  0
  5  7  1  0
  7  8  2  0
  8  9  1  0
  9 10  2  0
 10  4  1  0
  1  2  2  0
  2  3  1  0
  3  4  2  0
  4  5  1  0
  5  6  2  0
  6  1  1  0
 15 16  2  0
 16 17  1  0
 17 18  2  0
 18 19  1  0
 19 20  2  0
 20 15  1  0
M  END

$$$$
