No_2985-gen_results/8p0m/2024-11-26-14-13-15/
     RDKit          3D

 15 15  0  0  0  0  0  0  0  0999 V2000
  -28.1229   -1.3353   28.4874 O   0  0  0  0  0  0  0  0  0  0  0  0
  -27.4806   -0.4044   28.7094 C   0  0  0  0  0  0  0  0  0  0  0  0
  -26.3804   -0.0867   27.9394 C   0  0  0  0  0  0  0  0  0  0  0  0
  -27.6664    0.4468   29.8988 N   0  0  0  0  0  0  0  0  0  0  0  0
  -25.1773   -0.4388   28.3946 C   0  0  0  0  0  0  0  0  0  0  0  0
  -23.9281   -0.2469   27.6677 C   0  0  0  0  0  0  0  0  0  0  0  0
  -24.0115    0.7683   26.6848 C   0  0  0  0  0  0  0  0  0  0  0  0
  -25.2436    1.2341   26.2435 C   0  0  0  0  0  0  0  0  0  0  0  0
  -26.3955    0.8712   26.8685 C   0  0  0  0  0  0  0  0  0  0  0  0
  -28.7606    0.1154   30.7715 C   0  0  0  0  0  0  0  0  0  0  0  0
  -26.8564    1.5271   30.2014 C   0  0  0  0  0  0  0  0  0  0  0  0
  -27.2650    2.5634   30.5646 C   0  0  0  0  0  0  0  0  0  0  0  0
  -27.6250    3.4377   30.1104 C   0  0  0  0  0  0  0  0  0  0  0  0
  -28.0527    4.7728   30.7024 C   0  0  0  0  0  0  0  0  0  0  0  0
  -28.0017    4.8495   32.0491 C   0  0  0  0  0  0  0  0  0  0  0  0
  1  2  2  0
  2  3  1  0
  2  4  1  0
  4 10  1  0
  4 11  1  0
 11 12  2  3
 12 13  1  0
 13 14  1  0
 14 15  2  0
  3  5  2  0
  5  6  1  0
  6  7  2  0
  7  8  1  0
  8  9  2  0
  9  3  1  0
M  END

$$$$
