No_2397-gen_results/8p0m/2024-11-26-14-13-15/
     RDKit          3D

 19 21  0  0  0  0  0  0  0  0999 V2000
  -28.0162   -0.8135   28.8779 C   0  0  0  0  0  0  0  0  0  0  0  0
  -28.4690   -0.7850   29.8287 C   0  0  0  0  0  0  0  0  0  0  0  0
  -28.1816    0.4277   28.1134 C   0  0  0  0  0  0  0  0  0  0  0  0
  -28.9841    1.4155   28.5154 C   0  0  0  0  0  0  0  0  0  0  0  0
  -29.3802    0.1384   30.4612 C   0  0  0  0  0  0  0  0  0  0  0  0
  -29.5415    1.2736   29.7242 C   0  0  0  0  0  0  0  0  0  0  0  0
  -27.5429    0.6374   26.7442 C   0  0  0  0  0  0  0  0  0  0  0  0
  -26.1537    0.5302   26.7496 C   0  0  0  0  0  0  0  0  0  0  0  0
  -25.3991    0.9524   25.6853 C   0  0  0  0  0  0  0  0  0  0  0  0
  -24.0061    0.9206   25.7352 C   0  0  0  0  0  0  0  0  0  0  0  0
  -23.3256    0.7672   26.9580 C   0  0  0  0  0  0  0  0  0  0  0  0
  -24.1154    0.4727   28.0970 C   0  0  0  0  0  0  0  0  0  0  0  0
  -25.4697    0.3873   28.0192 C   0  0  0  0  0  0  0  0  0  0  0  0
  -28.1550   -0.2512   25.6767 C   0  0  0  0  0  0  0  0  0  0  0  0
  -27.8994    2.1124   26.3499 C   0  0  0  0  0  0  0  0  0  0  0  0
  -28.8203    0.3857   24.5891 C   0  0  0  0  0  0  0  0  0  0  0  0
  -23.4379    0.3193   29.2476 F   0  0  0  0  0  0  0  0  0  0  0  0
  -28.7267    2.6411   26.0744 C   0  0  0  0  0  0  0  0  0  0  0  0
  -29.0765    1.5396   24.6415 C   0  0  0  0  0  0  0  0  0  0  0  0
  3  7  1  0
  7  8  1  0
  7 14  1  0
  7 15  1  0
 14 16  1  0
 12 17  1  0
 16 19  1  0
 18 19  1  0
 18 15  1  0
  8  9  2  0
  9 10  1  0
 10 11  2  0
 11 12  1  0
 12 13  2  0
 13  8  1  0
  1  2  2  0
  2  5  1  0
  5  6  2  0
  6  4  1  0
  4  3  2  0
  3  1  1  0
M  END

$$$$
