No_2153-gen_results/8p0m/2024-11-26-14-13-15/
     RDKit          3D

 22 24  0  0  0  0  0  0  0  0999 V2000
  -28.0162   -0.8135   28.8779 C   0  0  0  0  0  0  0  0  0  0  0  0
  -28.4690   -0.7850   29.8287 C   0  0  0  0  0  0  0  0  0  0  0  0
  -27.1356    0.2359   28.5352 C   0  0  0  0  0  0  0  0  0  0  0  0
  -26.8745    1.2825   29.3982 C   0  0  0  0  0  0  0  0  0  0  0  0
  -28.3426    0.0691   30.8236 C   0  0  0  0  0  0  0  0  0  0  0  0
  -27.5245    1.1625   30.6420 C   0  0  0  0  0  0  0  0  0  0  0  0
  -26.4061    0.3253   27.2150 C   0  0  0  0  0  0  0  0  0  0  0  0
  -25.1474    0.1487   27.3113 N   0  0  0  0  0  0  0  0  0  0  0  0
  -27.0423    0.5346   26.0120 C   0  0  0  0  0  0  0  0  0  0  0  0
  -26.6840    0.5697   25.0604 C   0  0  0  0  0  0  0  0  0  0  0  0
  -24.4604    0.2514   26.0847 C   0  0  0  0  0  0  0  0  0  0  0  0
  -25.1862    0.4119   24.8985 C   0  0  0  0  0  0  0  0  0  0  0  0
  -28.5170    0.6060   26.3345 N   0  0  0  0  0  0  0  0  0  0  0  0
  -29.2752    1.4274   25.5766 C   0  0  0  0  0  0  0  0  0  0  0  0
  -30.7017    1.4211   25.9051 C   0  0  0  0  0  0  0  0  0  0  0  0
  -28.8569    2.1936   24.8052 O   0  0  0  0  0  0  0  0  0  0  0  0
  -31.2723    1.7016   27.0598 C   0  0  0  0  0  0  0  0  0  0  0  0
  -30.4142    2.3148   28.0974 C   0  0  0  0  0  0  0  0  0  0  0  0
  -30.9726    2.6332   29.3873 C   0  0  0  0  0  0  0  0  0  0  0  0
  -32.3063    2.2940   29.5880 C   0  0  0  0  0  0  0  0  0  0  0  0
  -33.0986    1.7326   28.6396 C   0  0  0  0  0  0  0  0  0  0  0  0
  -32.5579    1.4255   27.4386 C   0  0  0  0  0  0  0  0  0  0  0  0
  3  7  1  0
  9 13  1  0
 13 14  1  0
 14 15  1  0
 14 16  2  0
 15 17  1  0
 17 18  2  0
 18 19  1  0
 19 20  2  0
 20 21  1  0
 21 22  2  0
 22 17  1  0
  7  8  2  0
  8 11  1  0
 11 12  2  0
 12 10  1  0
 10  9  2  0
  9  7  1  0
  1  2  2  0
  2  5  1  0
  5  6  2  0
  6  4  1  0
  4  3  2  0
  3  1  1  0
M  END

$$$$
