No_2143-gen_results/8p0m/2024-11-26-14-13-15/
     RDKit          3D

 33 37  0  0  0  0  0  0  0  0999 V2000
  -28.0162   -0.8135   28.8779 C   0  0  0  0  0  0  0  0  0  0  0  0
  -28.4690   -0.7850   29.8287 C   0  0  0  0  0  0  0  0  0  0  0  0
  -26.5042   -0.7777   28.8766 C   0  0  0  0  0  0  0  0  0  0  0  0
  -25.6540   -0.6597   27.7191 C   0  0  0  0  0  0  0  0  0  0  0  0
  -27.9180   -0.9374   31.1824 C   0  0  0  0  0  0  0  0  0  0  0  0
  -26.5423   -0.9399   31.2606 C   0  0  0  0  0  0  0  0  0  0  0  0
  -25.7832   -0.8935   30.1201 C   0  0  0  0  0  0  0  0  0  0  0  0
  -24.3632   -0.5034   27.8686 N   0  0  0  0  0  0  0  0  0  0  0  0
  -23.6823   -0.6782   29.0280 C   0  0  0  0  0  0  0  0  0  0  0  0
  -24.3893   -0.7737   30.2235 C   0  0  0  0  0  0  0  0  0  0  0  0
  -22.3233   -0.5436   29.0208 N   0  0  0  0  0  0  0  0  0  0  0  0
  -21.6820    0.5457   28.4852 C   0  0  0  0  0  0  0  0  0  0  0  0
  -20.4328    0.5397   28.4213 F   0  0  0  0  0  0  0  0  0  0  0  0
  -22.2910    1.5971   28.1441 F   0  0  0  0  0  0  0  0  0  0  0  0
  -30.0659   -0.8401   29.8633 C   0  0  0  0  0  0  0  0  0  0  0  0
  -30.7185   -1.6586   30.1689 O   0  0  0  0  0  0  0  0  0  0  0  0
  -30.5727    0.3682   29.3687 N   0  0  0  0  0  0  0  0  0  0  0  0
  -31.5668    0.7128   29.0958 C   0  0  0  0  0  0  0  0  0  0  0  0
  -31.8037    1.8088   28.5386 C   0  0  0  0  0  0  0  0  0  0  0  0
  -33.0162    2.4177   28.1090 C   0  0  0  0  0  0  0  0  0  0  0  0
  -34.1605    1.5876   28.3464 C   0  0  0  0  0  0  0  0  0  0  0  0
  -33.9972    0.3511   28.9059 C   0  0  0  0  0  0  0  0  0  0  0  0
  -32.7768   -0.0953   29.2856 C   0  0  0  0  0  0  0  0  0  0  0  0
  -35.4933    2.0877   27.9524 C   0  0  0  0  0  0  0  0  0  0  0  0
  -35.7422    3.2855   28.0360 N   0  0  0  0  0  0  0  0  0  0  0  0
  -36.3257    1.2269   27.5962 O   0  0  0  0  0  0  0  0  0  0  0  0
  -37.0411    3.8636   27.6789 C   0  0  0  0  0  0  0  0  0  0  0  0
  -37.0233    5.0978   27.4334 C   0  0  0  0  0  0  0  0  0  0  0  0
  -35.8963    5.9830   27.6745 C   0  0  0  0  0  0  0  0  0  0  0  0
  -34.6829    5.3538   28.0343 C   0  0  0  0  0  0  0  0  0  0  0  0
  -34.6052    4.0939   28.1742 C   0  0  0  0  0  0  0  0  0  0  0  0
  -33.2930    3.6233   28.2808 C   0  0  0  0  0  0  0  0  0  0  0  0
  -32.3870    4.7229   27.8673 C   0  0  0  0  0  0  0  0  0  0  0  0
  9 11  1  0
 11 12  1  0
 12 13  1  0
 12 14  1  0
  2 15  1  0
 15 16  2  0
 15 17  1  0
 17 18  1  0
 21 24  1  0
 24 25  1  0
 24 26  2  0
 25 27  1  0
 28 29  1  0
 25 31  1  0
 30 31  1  0
 20 32  1  0
 31 32  1  0
 32 33  1  0
 27 28  1  0
 29 30  1  0
 18 19  2  0
 19 20  1  0
 20 21  2  0
 21 22  1  0
 22 23  2  0
 23 18  1  0
  1  2  2  0
  2  5  1  0
  5  6  2  0
  6  7  1  0
  3  1  1  0
  3  4  2  0
  4  8  1  0
  8  9  2  0
  9 10  1  0
 10  7  2  0
  7  3  1  0
M  END

$$$$
