No_2265-gen_results/8p0m/2024-11-26-14-13-15/
     RDKit          3D

 14 15  0  0  0  0  0  0  0  0999 V2000
  -28.0162   -0.8135   28.8779 C   0  0  0  0  0  0  0  0  0  0  0  0
  -28.4690   -0.7850   29.8287 C   0  0  0  0  0  0  0  0  0  0  0  0
  -27.1356    0.2359   28.5352 C   0  0  0  0  0  0  0  0  0  0  0  0
  -26.8745    1.2825   29.3982 C   0  0  0  0  0  0  0  0  0  0  0  0
  -28.3613    0.1987   30.9244 C   0  0  0  0  0  0  0  0  0  0  0  0
  -25.9723    2.3852   29.1040 C   0  0  0  0  0  0  0  0  0  0  0  0
  -27.5118    1.2316   30.6323 C   0  0  0  0  0  0  0  0  0  0  0  0
  -25.3009    2.5053   28.0335 C   0  0  0  0  0  0  0  0  0  0  0  0
  -24.7278    1.4799   27.3812 C   0  0  0  0  0  0  0  0  0  0  0  0
  -24.0263    1.7088   26.1686 C   0  0  0  0  0  0  0  0  0  0  0  0
  -23.9584    3.0129   25.6867 C   0  0  0  0  0  0  0  0  0  0  0  0
  -24.5038    4.1402   26.3650 C   0  0  0  0  0  0  0  0  0  0  0  0
  -25.1256    3.9113   27.5229 C   0  0  0  0  0  0  0  0  0  0  0  0
  -24.9209    2.5827   30.3211 C   0  0  0  0  0  0  0  0  0  0  0  0
  4  6  1  0
  6 14  1  0
  6  8  1  0
  8  9  2  0
  9 10  1  0
 10 11  2  0
 11 12  1  0
 12 13  2  0
 13  8  1  0
  1  2  2  0
  2  5  1  0
  5  7  2  0
  7  4  1  0
  4  3  2  0
  3  1  1  0
M  END

$$$$
