No_2298-gen_results/8p0m/2024-11-26-14-13-15/
     RDKit          3D

 22 24  0  0  0  0  0  0  0  0999 V2000
  -28.0162   -0.8135   28.8779 C   0  0  0  0  0  0  0  0  0  0  0  0
  -28.4690   -0.7850   29.8287 C   0  0  0  0  0  0  0  0  0  0  0  0
  -26.5455   -0.8762   28.8500 C   0  0  0  0  0  0  0  0  0  0  0  0
  -25.8041   -1.0324   30.0571 C   0  0  0  0  0  0  0  0  0  0  0  0
  -27.9437   -0.9869   31.2075 C   0  0  0  0  0  0  0  0  0  0  0  0
  -26.5825   -1.0386   31.2231 C   0  0  0  0  0  0  0  0  0  0  0  0
  -30.0606   -0.7371   29.9024 C   0  0  0  0  0  0  0  0  0  0  0  0
  -30.5805    0.1359   28.9739 C   0  0  0  0  0  0  0  0  0  0  0  0
  -30.6998   -2.0847   29.9177 C   0  0  0  0  0  0  0  0  0  0  0  0
  -31.5476    0.4961   28.8564 C   0  0  0  0  0  0  0  0  0  0  0  0
  -32.1672   -1.9425   29.7326 C   0  0  0  0  0  0  0  0  0  0  0  0
  -32.5907   -0.8072   28.9097 C   0  0  0  0  0  0  0  0  0  0  0  0
  -30.4456   -2.8775   31.0124 N   0  0  0  0  0  0  0  0  0  0  0  0
  -30.6392   -2.6286   32.2372 C   0  0  0  0  0  0  0  0  0  0  0  0
  -29.7292   -4.1539   30.6759 C   0  0  0  0  0  0  0  0  0  0  0  0
  -29.0990   -4.8767   31.6359 C   0  0  0  0  0  0  0  0  0  0  0  0
  -30.1431   -3.4315   33.3240 C   0  0  0  0  0  0  0  0  0  0  0  0
  -29.4655   -4.5626   33.0277 C   0  0  0  0  0  0  0  0  0  0  0  0
  -33.0456   -3.0100   29.8693 C   0  0  0  0  0  0  0  0  0  0  0  0
  -33.0518   -3.9165   30.4157 Cl  0  0  0  0  0  0  0  0  0  0  0  0
  -34.2852   -2.6353   28.9495 C   0  0  0  0  0  0  0  0  0  0  0  0
  -35.2648   -3.5962   29.1275 C   0  0  0  0  0  0  0  0  0  0  0  0
  2  7  1  0
  9 13  1  0
 13 14  1  0
 13 15  1  0
 16 18  1  0
 17 18  1  0
 11 19  1  0
 19 20  1  0
 19 21  1  0
 21 22  1  0
 14 17  1  0
 16 15  1  0
  1  2  2  0
  2  5  1  0
  5  6  2  0
  6  4  1  0
  4  3  2  0
  3  1  1  0
  7  8  2  0
  8 10  1  0
 10 12  2  0
 12 11  1  0
 11  9  2  0
  9  7  1  0
M  END

$$$$
