No_2472-gen_results/8p0m/2024-11-26-14-13-15/
     RDKit          3D

 17 18  0  0  0  0  0  0  0  0999 V2000
  -28.0162   -0.8135   28.8779 C   0  0  0  0  0  0  0  0  0  0  0  0
  -27.0636   -0.1189   28.6079 C   0  0  0  0  0  0  0  0  0  0  0  0
  -26.9716    0.7139   27.5060 C   0  0  0  0  0  0  0  0  0  0  0  0
  -25.8205    1.4909   27.1160 C   0  0  0  0  0  0  0  0  0  0  0  0
  -24.8579    1.3421   27.6008 C   0  0  0  0  0  0  0  0  0  0  0  0
  -24.6224    0.5295   28.8144 C   0  0  0  0  0  0  0  0  0  0  0  0
  -25.7344   -0.1811   29.1908 C   0  0  0  0  0  0  0  0  0  0  0  0
  -28.6269   -0.4745   30.2487 C   0  0  0  0  0  0  0  0  0  0  0  0
  -28.3882    0.5550   30.7585 C   0  0  0  0  0  0  0  0  0  0  0  0
  -29.0378    0.9141   32.0954 C   0  0  0  0  0  0  0  0  0  0  0  0
  -23.5174    2.1235   27.2622 C   0  0  0  0  0  0  0  0  0  0  0  0
  -23.4100    2.5448   26.0590 O   0  0  0  0  0  0  0  0  0  0  0  0
  -22.4782    2.2180   28.0530 O   0  0  0  0  0  0  0  0  0  0  0  0
  -28.7801    2.1642   32.7596 C   0  0  0  0  0  0  0  0  0  0  0  0
  -27.8380    3.0569   32.1364 C   0  0  0  0  0  0  0  0  0  0  0  0
  -27.1833    2.6866   30.9547 C   0  0  0  0  0  0  0  0  0  0  0  0
  -27.4371    1.5164   30.3622 C   0  0  0  0  0  0  0  0  0  0  0  0
  1  8  1  0
  5 11  1  0
 11 12  2  0
 11 13  1  0
  8  9  1  0
  1  2  1  0
  2  3  2  0
  3  4  1  0
  4  5  2  0
  5  6  1  0
  6  7  2  0
  7  2  1  0
  9 10  2  0
 10 14  1  0
 14 15  2  0
 15 16  1  0
 16 17  2  0
 17  9  1  0
M  END

$$$$
