No_2450-gen_results/8p0m/2024-11-26-14-13-15/
     RDKit          3D

 30 33  0  0  0  0  0  0  0  0999 V2000
  -28.0162   -0.8135   28.8779 C   0  0  0  0  0  0  0  0  0  0  0  0
  -28.4690   -0.7850   29.8287 C   0  0  0  0  0  0  0  0  0  0  0  0
  -26.5042   -0.7777   28.8766 C   0  0  0  0  0  0  0  0  0  0  0  0
  -25.8103   -0.8531   30.1028 C   0  0  0  0  0  0  0  0  0  0  0  0
  -27.9906   -0.8916   31.2257 C   0  0  0  0  0  0  0  0  0  0  0  0
  -26.6042   -0.8676   31.2652 C   0  0  0  0  0  0  0  0  0  0  0  0
  -30.2937   -0.8377   29.8355 Cl  0  0  0  0  0  0  0  0  0  0  0  0
  -24.3700   -0.8208   30.1393 C   0  0  0  0  0  0  0  0  0  0  0  0
  -23.6317   -0.3592   29.1003 C   0  0  0  0  0  0  0  0  0  0  0  0
  -22.1856   -0.3104   29.2384 C   0  0  0  0  0  0  0  0  0  0  0  0
  -21.4360    0.2369   28.1746 C   0  0  0  0  0  0  0  0  0  0  0  0
  -22.0683    1.1431   27.3132 C   0  0  0  0  0  0  0  0  0  0  0  0
  -23.4676    1.3367   27.3406 C   0  0  0  0  0  0  0  0  0  0  0  0
  -24.2377    0.6885   28.2905 C   0  0  0  0  0  0  0  0  0  0  0  0
  -24.0096    2.3358   26.4133 C   0  0  0  0  0  0  0  0  0  0  0  0
  -25.2038    1.9557   25.8324 C   0  0  0  0  0  0  0  0  0  0  0  0
  -26.4182    2.6655   26.0121 C   0  0  0  0  0  0  0  0  0  0  0  0
  -27.5919    2.2497   25.3599 C   0  0  0  0  0  0  0  0  0  0  0  0
  -27.5551    1.0006   24.6963 C   0  0  0  0  0  0  0  0  0  0  0  0
  -26.4465    0.2281   24.6597 C   0  0  0  0  0  0  0  0  0  0  0  0
  -25.2734    0.6618   25.2636 C   0  0  0  0  0  0  0  0  0  0  0  0
  -28.8214    0.5097   24.1427 C   0  0  0  0  0  0  0  0  0  0  0  0
  -29.8831    1.3317   24.3386 C   0  0  0  0  0  0  0  0  0  0  0  0
  -29.8783    2.5972   24.9399 C   0  0  0  0  0  0  0  0  0  0  0  0
  -28.7385    3.0508   25.5116 C   0  0  0  0  0  0  0  0  0  0  0  0
  -23.7886   -1.5103   31.3070 C   0  0  0  0  0  0  0  0  0  0  0  0
  -31.1907    0.8291   23.7336 C   0  0  0  0  0  0  0  0  0  0  0  0
  -31.2568   -0.3280   23.4681 F   0  0  0  0  0  0  0  0  0  0  0  0
  -32.2303    1.2219   24.5948 F   0  0  0  0  0  0  0  0  0  0  0  0
  -31.4699    1.5634   22.5791 F   0  0  0  0  0  0  0  0  0  0  0  0
  2  7  1  0
  4  8  1  0
 13 15  1  0
 15 16  1  0
  8 26  1  0
 23 27  1  0
 27 28  1  0
 27 29  1  0
 27 30  1  0
  8  9  1  0
  9 10  2  0
 10 11  1  0
 11 12  2  0
 12 13  1  0
 13 14  2  0
 14  9  1  0
 19 22  2  0
 22 23  1  0
 23 24  2  0
 24 25  1  0
 25 18  2  0
  1  2  2  0
  2  5  1  0
  5  6  2  0
  6  4  1  0
  4  3  2  0
  3  1  1  0
 16 17  2  0
 17 18  1  0
 18 19  1  0
 19 20  1  0
 20 21  2  0
 21 16  1  0
M  END

$$$$
