No_2784-gen_results/8p0m/2024-11-26-14-13-15/
     RDKit          3D

 19 19  0  0  0  0  0  0  0  0999 V2000
  -28.0162   -0.8135   28.8779 C   0  0  0  0  0  0  0  0  0  0  0  0
  -28.4690   -0.7850   29.8287 C   0  0  0  0  0  0  0  0  0  0  0  0
  -27.1356    0.2359   28.5352 C   0  0  0  0  0  0  0  0  0  0  0  0
  -26.8745    1.2825   29.3982 C   0  0  0  0  0  0  0  0  0  0  0  0
  -28.3613    0.1987   30.9244 C   0  0  0  0  0  0  0  0  0  0  0  0
  -27.5277    1.2234   30.6356 C   0  0  0  0  0  0  0  0  0  0  0  0
  -26.3879    0.2914   27.2334 C   0  0  0  0  0  0  0  0  0  0  0  0
  -25.7787   -0.5228   27.0339 F   0  0  0  0  0  0  0  0  0  0  0  0
  -25.6033    1.4597   27.1041 F   0  0  0  0  0  0  0  0  0  0  0  0
  -27.3759    0.5234   26.2013 F   0  0  0  0  0  0  0  0  0  0  0  0
  -29.3958   -2.0216   30.3203 C   0  0  0  0  0  0  0  0  0  0  0  0
  -30.4676   -2.0325   30.0565 O   0  0  0  0  0  0  0  0  0  0  0  0
  -28.8959   -2.7985   31.3178 O   0  0  0  0  0  0  0  0  0  0  0  0
  -27.2667    2.3305   31.6075 C   0  0  0  0  0  0  0  0  0  0  0  0
  -27.1768    3.4348   31.5740 C   0  0  0  0  0  0  0  0  0  0  0  0
  -27.3966    4.1744   30.3382 C   0  0  0  0  0  0  0  0  0  0  0  0
  -28.0895    3.8307   29.4410 C   0  0  0  0  0  0  0  0  0  0  0  0
  -28.3342    4.6983   28.2611 C   0  0  0  0  0  0  0  0  0  0  0  0
  -27.4967    5.7644   28.1452 C   0  0  0  0  0  0  0  0  0  0  0  0
  3  7  1  0
  7  8  1  0
  7  9  1  0
  7 10  1  0
  2 11  1  0
 11 12  2  0
 11 13  1  0
  6 14  1  0
 14 15  1  0
 15 16  2  3
 16 17  1  0
 17 18  2  3
 18 19  1  0
  1  2  2  0
  2  5  1  0
  5  6  2  0
  6  4  1  0
  4  3  2  0
  3  1  1  0
M  END

$$$$
