No_2431-gen_results/8p0m/2024-11-26-14-13-15/
     RDKit          3D

 34 37  0  0  0  0  0  0  0  0999 V2000
  -28.1229   -1.3353   28.4874 O   0  0  0  0  0  0  0  0  0  0  0  0
  -27.4806   -0.4044   28.7094 C   0  0  0  0  0  0  0  0  0  0  0  0
  -26.3804   -0.0867   27.9395 C   0  0  0  0  0  0  0  0  0  0  0  0
  -27.6664    0.4468   29.8988 N   0  0  0  0  0  0  0  0  0  0  0  0
  -26.4086    0.8567   26.8802 C   0  0  0  0  0  0  0  0  0  0  0  0
  -25.2466    1.1198   26.1102 C   0  0  0  0  0  0  0  0  0  0  0  0
  -23.9991    0.7500   26.5964 C   0  0  0  0  0  0  0  0  0  0  0  0
  -23.9411    0.0388   27.7865 C   0  0  0  0  0  0  0  0  0  0  0  0
  -25.0420   -0.3844   28.4675 C   0  0  0  0  0  0  0  0  0  0  0  0
  -26.9428    1.5560   30.3196 C   0  0  0  0  0  0  0  0  0  0  0  0
  -26.9481    1.7681   31.5181 C   0  0  0  0  0  0  0  0  0  0  0  0
  -27.7737    1.2391   32.5150 C   0  0  0  0  0  0  0  0  0  0  0  0
  -28.4380    0.0748   32.1015 C   0  0  0  0  0  0  0  0  0  0  0  0
  -28.3594   -0.3964   30.8345 C   0  0  0  0  0  0  0  0  0  0  0  0
  -27.6981    1.1766   26.4170 C   0  0  0  0  0  0  0  0  0  0  0  0
  -28.0230    2.3790   26.7366 N   0  0  0  0  0  0  0  0  0  0  0  0
  -28.8478    2.9179   27.3571 C   0  0  0  0  0  0  0  0  0  0  0  0
  -29.6681    2.2212   27.9233 F   0  0  0  0  0  0  0  0  0  0  0  0
  -29.0050    4.2462   27.5834 N   0  0  0  0  0  0  0  0  0  0  0  0
  -27.0679    3.4595   26.0683 C   0  0  0  0  0  0  0  0  0  0  0  0
  -29.9895    4.8547   28.4618 C   0  0  0  0  0  0  0  0  0  0  0  0
  -28.0937    5.0896   26.9957 C   0  0  0  0  0  0  0  0  0  0  0  0
  -27.1504    4.7078   26.2398 N   0  0  0  0  0  0  0  0  0  0  0  0
  -26.2638    3.1198   31.9538 C   0  0  0  0  0  0  0  0  0  0  0  0
  -26.3804    3.4881   33.0541 O   0  0  0  0  0  0  0  0  0  0  0  0
  -25.4106    3.6430   31.0916 O   0  0  0  0  0  0  0  0  0  0  0  0
  -30.2492    5.9728   28.4100 C   0  0  0  0  0  0  0  0  0  0  0  0
  -29.3204    6.9521   27.8290 C   0  0  0  0  0  0  0  0  0  0  0  0
  -28.2803    6.5767   27.0392 C   0  0  0  0  0  0  0  0  0  0  0  0
  -24.7866   -1.2411   29.6229 C   0  0  0  0  0  0  0  0  0  0  0  0
  -24.5376   -2.6320   29.3771 C   0  0  0  0  0  0  0  0  0  0  0  0
  -24.7173   -0.7679   30.9414 C   0  0  0  0  0  0  0  0  0  0  0  0
  -23.9262    0.2499   31.4578 C   0  0  0  0  0  0  0  0  0  0  0  0
  -25.6192   -1.4544   31.9155 C   0  0  0  0  0  0  0  0  0  0  0  0
  1  2  2  0
  2  3  1  0
  2  4  1  0
  4 10  1  0
 11 12  1  0
  4 14  1  0
 13 14  1  0
  5 15  1  0
 15 16  1  0
 16 17  1  0
 17 18  1  0
 17 19  1  0
 16 20  1  0
 19 21  1  0
 19 22  1  0
 22 23  1  0
 11 24  1  0
 24 25  2  0
 24 26  1  0
 27 28  1  0
 22 29  1  0
  9 30  1  0
 30 31  1  0
 30 32  1  0
 32 33  2  0
 32 34  1  0
 10 11  1  0
 12 13  1  0
 20 23  1  0
 21 27  1  0
 28 29  1  0
  3  5  1  0
  5  6  2  0
  6  7  1  0
  7  8  2  0
  8  9  1  0
  9  3  2  0
M  END

$$$$
