No_2142-gen_results/8p0m/2024-11-26-14-13-15/
     RDKit          3D

 35 40  0  0  0  0  0  0  0  0999 V2000
  -28.0162   -0.8135   28.8779 C   0  0  0  0  0  0  0  0  0  0  0  0
  -28.4690   -0.7850   29.8287 C   0  0  0  0  0  0  0  0  0  0  0  0
  -26.5455   -0.8762   28.8500 C   0  0  0  0  0  0  0  0  0  0  0  0
  -25.8041   -1.0324   30.0571 C   0  0  0  0  0  0  0  0  0  0  0  0
  -27.9437   -0.9869   31.2075 C   0  0  0  0  0  0  0  0  0  0  0  0
  -26.5825   -1.0386   31.2231 C   0  0  0  0  0  0  0  0  0  0  0  0
  -29.9267   -0.7257   29.8772 O   0  0  0  0  0  0  0  0  0  0  0  0
  -30.5256    0.4218   30.2407 C   0  0  0  0  0  0  0  0  0  0  0  0
  -31.6092    0.5419   29.9850 C   0  0  0  0  0  0  0  0  0  0  0  0
  -32.3220    1.8295   30.2977 C   0  0  0  0  0  0  0  0  0  0  0  0
  -31.5730    2.8330   30.9276 C   0  0  0  0  0  0  0  0  0  0  0  0
  -30.2402    2.5808   31.1918 C   0  0  0  0  0  0  0  0  0  0  0  0
  -29.6450    1.4214   30.8720 C   0  0  0  0  0  0  0  0  0  0  0  0
  -29.4148    3.6188   31.8759 C   0  0  0  0  0  0  0  0  0  0  0  0
  -28.1364    3.4313   32.0320 C   0  0  0  0  0  0  0  0  0  0  0  0
  -27.5738    2.1203   31.6028 C   0  0  0  0  0  0  0  0  0  0  0  0
  -28.2827    1.2310   31.0952 C   0  0  0  0  0  0  0  0  0  0  0  0
  -27.7308    0.2600   31.5305 O   0  0  0  0  0  0  0  0  0  0  0  0
  -24.3998   -1.2415   30.1198 C   0  0  0  0  0  0  0  0  0  0  0  0
  -23.5749   -0.8236   30.9563 C   0  0  0  0  0  0  0  0  0  0  0  0
  -22.5089   -0.2522   30.8075 C   0  0  0  0  0  0  0  0  0  0  0  0
  -21.8004   -0.4209   29.5131 C   0  0  0  0  0  0  0  0  0  0  0  0
  -23.7854   -1.7485   28.8884 C   0  0  0  0  0  0  0  0  0  0  0  0
  -22.4675   -1.1595   28.6067 C   0  0  0  0  0  0  0  0  0  0  0  0
  -33.7502    2.0208   30.0032 C   0  0  0  0  0  0  0  0  0  0  0  0
  -34.2305    1.8560   29.0640 O   0  0  0  0  0  0  0  0  0  0  0  0
  -34.4658    2.4981   31.1433 N   0  0  0  0  0  0  0  0  0  0  0  0
  -35.8505    2.7369   31.0786 C   0  0  0  0  0  0  0  0  0  0  0  0
  -36.5579    2.8844   31.8465 C   0  0  0  0  0  0  0  0  0  0  0  0
  -37.9547    3.0785   31.7352 C   0  0  0  0  0  0  0  0  0  0  0  0
  -38.4613    3.0611   30.4204 C   0  0  0  0  0  0  0  0  0  0  0  0
  -37.5812    2.8476   29.3981 C   0  0  0  0  0  0  0  0  0  0  0  0
  -36.2936    2.7055   29.6334 C   0  0  0  0  0  0  0  0  0  0  0  0
  -38.1059    2.8343   28.0220 C   0  0  0  0  0  0  0  0  0  0  0  0
  -39.2483    3.1727   27.6947 C   0  0  0  0  0  0  0  0  0  0  0  0
  2  7  1  0
  7  8  1  0
  5 18  1  0
 17 18  1  0
  4 19  1  0
 10 25  1  0
 25 26  2  0
 25 27  1  0
 27 28  1  0
 32 34  1  0
 34 35  2  0
  1  2  2  0
  2  5  1  0
  5  6  2  0
  6  4  1  0
  4  3  2  0
  3  1  1  0
 19 20  2  0
 20 21  1  0
 21 22  2  0
 22 24  1  0
 24 23  2  0
 23 19  1  0
 13 17  2  0
 17 16  1  0
 16 15  2  0
 15 14  1  0
 14 12  2  0
 28 29  2  0
 29 30  1  0
 30 31  2  0
 31 32  1  0
 32 33  2  0
 33 28  1  0
  8  9  2  0
  9 10  1  0
 10 11  2  0
 11 12  1  0
 12 13  1  0
 13  8  1  0
M  END

$$$$
