No_2486-gen_results/8p0m/2024-11-26-14-13-15/
     RDKit          3D

 19 20  0  0  0  0  0  0  0  0999 V2000
  -28.0544   -1.0498   28.7246 N   0  0  0  0  0  0  0  0  0  0  0  0
  -28.6544   -0.5669   29.5076 C   0  0  0  0  0  0  0  0  0  0  0  0
  -26.7777   -0.5807   28.6030 C   0  0  0  0  0  0  0  0  0  0  0  0
  -25.7560   -1.0215   27.7024 C   0  0  0  0  0  0  0  0  0  0  0  0
  -24.4173   -0.3917   27.7102 C   0  0  0  0  0  0  0  0  0  0  0  0
  -24.2098    0.4827   28.5399 C   0  0  0  0  0  0  0  0  0  0  0  0
  -26.0700    0.4133   29.4006 N   0  0  0  0  0  0  0  0  0  0  0  0
  -25.0570    0.9570   29.4750 C   0  0  0  0  0  0  0  0  0  0  0  0
  -29.7202   -0.3982   29.7582 C   0  0  0  0  0  0  0  0  0  0  0  0
  -30.6384   -0.7868   28.6613 C   0  0  0  0  0  0  0  0  0  0  0  0
  -31.7783   -1.4054   28.9224 C   0  0  0  0  0  0  0  0  0  0  0  0
  -32.5654   -1.6290   27.8617 C   0  0  0  0  0  0  0  0  0  0  0  0
  -32.2458   -1.2516   26.5169 C   0  0  0  0  0  0  0  0  0  0  0  0
  -31.0779   -0.5674   26.3376 C   0  0  0  0  0  0  0  0  0  0  0  0
  -30.2457   -0.3307   27.4375 C   0  0  0  0  0  0  0  0  0  0  0  0
  -22.7341    1.0237   28.4911 C   0  0  0  0  0  0  0  0  0  0  0  0
  -22.6059    1.9177   29.4260 F   0  0  0  0  0  0  0  0  0  0  0  0
  -21.8213    0.0230   28.7166 F   0  0  0  0  0  0  0  0  0  0  0  0
  -22.4780    1.6079   27.3259 F   0  0  0  0  0  0  0  0  0  0  0  0
  1  2  1  0
  2  9  2  3
  9 10  1  0
  6 16  1  0
 16 17  1  0
 16 18  1  0
 16 19  1  0
  1  3  1  0
  3  4  2  0
  4  5  1  0
  5  6  2  0
  6  8  1  0
  8  7  2  0
  7  3  1  0
 10 11  2  0
 11 12  1  0
 12 13  2  0
 13 14  1  0
 14 15  2  0
 15 10  1  0
M  END

$$$$
