No_2149-gen_results/8p0m/2024-11-26-14-13-15/
     RDKit          3D

 25 27  0  0  0  0  0  0  0  0999 V2000
  -28.1229   -1.3353   28.4874 O   0  0  0  0  0  0  0  0  0  0  0  0
  -27.0637   -0.8242   28.8687 C   0  0  0  0  0  0  0  0  0  0  0  0
  -26.4017   -0.0623   28.6224 C   0  0  0  0  0  0  0  0  0  0  0  0
  -26.2652   -1.8674   29.7609 N   0  0  0  0  0  0  0  0  0  0  0  0
  -25.0436    0.3924   29.0662 C   0  0  0  0  0  0  0  0  0  0  0  0
  -24.4726   -0.5445   29.9870 C   0  0  0  0  0  0  0  0  0  0  0  0
  -25.1332   -1.6696   30.2893 C   0  0  0  0  0  0  0  0  0  0  0  0
  -26.9049    1.1098   27.6518 C   0  0  0  0  0  0  0  0  0  0  0  0
  -26.1344    1.7175   26.8119 C   0  0  0  0  0  0  0  0  0  0  0  0
  -24.7453    2.0846   27.2961 C   0  0  0  0  0  0  0  0  0  0  0  0
  -24.1596    1.2542   28.2785 C   0  0  0  0  0  0  0  0  0  0  0  0
  -22.7728    1.4929   28.6449 C   0  0  0  0  0  0  0  0  0  0  0  0
  -21.9802    1.9768   27.6882 O   0  0  0  0  0  0  0  0  0  0  0  0
  -22.2533    1.0122   29.7597 O   0  0  0  0  0  0  0  0  0  0  0  0
  -27.1116   -3.0258   30.2470 C   0  0  0  0  0  0  0  0  0  0  0  0
  -28.4048   -2.8810   30.8107 C   0  0  0  0  0  0  0  0  0  0  0  0
  -28.6825   -1.6578   31.3485 C   0  0  0  0  0  0  0  0  0  0  0  0
  -29.6238   -1.4244   31.9707 C   0  0  0  0  0  0  0  0  0  0  0  0
  -29.9209   -0.1375   32.5785 C   0  0  0  0  0  0  0  0  0  0  0  0
  -29.1407    0.9821   32.2371 C   0  0  0  0  0  0  0  0  0  0  0  0
  -27.9996    0.7306   31.4397 C   0  0  0  0  0  0  0  0  0  0  0  0
  -27.6735   -0.6114   31.3474 C   0  0  0  0  0  0  0  0  0  0  0  0
  -27.0822    1.8834   31.3602 C   0  0  0  0  0  0  0  0  0  0  0  0
  -27.0772    2.9382   32.1933 C   0  0  0  0  0  0  0  0  0  0  0  0
  -28.3858    3.1430   32.9213 C   0  0  0  0  0  0  0  0  0  0  0  0
  1  2  2  0
  2  3  1  0
  2  4  1  0
  5  6  1  0
  4  7  1  0
 11 12  1  0
 12 13  2  0
 12 14  1  0
  4 15  1  0
 15 16  1  0
 16 17  1  0
 21 23  1  0
 23 24  2  3
 24 25  1  0
  6  7  1  0
 17 18  2  0
 18 19  1  0
 19 20  2  0
 20 21  1  0
 21 22  2  0
 22 17  1  0
  3  8  2  0
  8  9  1  0
  9 10  2  0
 10 11  1  0
 11  5  2  0
  5  3  1  0
M  END

$$$$
