No_2026-gen_results/8p0m/2024-11-26-14-13-15/
     RDKit          3D

 25 27  0  0  0  0  0  0  0  0999 V2000
  -28.1229   -1.3353   28.4874 O   0  0  0  0  0  0  0  0  0  0  0  0
  -27.0637   -0.8242   28.8687 C   0  0  0  0  0  0  0  0  0  0  0  0
  -26.0496   -0.9362   28.7578 C   0  0  0  0  0  0  0  0  0  0  0  0
  -24.9968    0.0377   28.6396 C   0  0  0  0  0  0  0  0  0  0  0  0
  -25.2805    1.3142   29.1575 C   0  0  0  0  0  0  0  0  0  0  0  0
  -26.6010    1.5188   29.4600 C   0  0  0  0  0  0  0  0  0  0  0  0
  -27.4646    0.5200   29.3266 C   0  0  0  0  0  0  0  0  0  0  0  0
  -24.2191    2.2994   29.2386 C   0  0  0  0  0  0  0  0  0  0  0  0
  -23.0863    2.0519   28.8817 O   0  0  0  0  0  0  0  0  0  0  0  0
  -24.5614    3.4043   29.8848 O   0  0  0  0  0  0  0  0  0  0  0  0
  -29.2570   -1.1682   29.2376 C   0  0  0  0  0  0  0  0  0  0  0  0
  -28.9772    0.1649   29.7263 C   0  0  0  0  0  0  0  0  0  0  0  0
  -29.8574    1.3302   29.1759 C   0  0  0  0  0  0  0  0  0  0  0  0
  -28.9950    0.2619   31.3308 C   0  0  0  0  0  0  0  0  0  0  0  0
  -30.5579    1.8914   29.7611 C   0  0  0  0  0  0  0  0  0  0  0  0
  -29.9990    0.9179   31.9604 C   0  0  0  0  0  0  0  0  0  0  0  0
  -30.0451    0.9166   33.3791 C   0  0  0  0  0  0  0  0  0  0  0  0
  -30.7214    1.8683   31.2107 C   0  0  0  0  0  0  0  0  0  0  0  0
  -29.5577    1.9197   34.0571 C   0  0  0  0  0  0  0  0  0  0  0  0
  -30.5628   -0.2647   33.9879 C   0  0  0  0  0  0  0  0  0  0  0  0
  -29.0077    3.0110   33.7317 C   0  0  0  0  0  0  0  0  0  0  0  0
  -28.3407    3.8064   34.0363 C   0  0  0  0  0  0  0  0  0  0  0  0
  -27.6860    4.9644   33.3072 C   0  0  0  0  0  0  0  0  0  0  0  0
  -27.9449    4.9832   31.9519 C   0  0  0  0  0  0  0  0  0  0  0  0
  -28.6908    3.9812   31.4158 C   0  0  0  0  0  0  0  0  0  0  0  0
  1  2  1  0
  5  8  1  0
  8  9  2  0
  8 10  1  0
  1 11  1  0
  7 12  1  0
 11 12  1  0
 12 13  1  0
 12 14  1  0
 16 17  1  0
 15 18  1  0
 16 18  1  0
 17 19  1  0
 17 20  1  0
 19 21  2  3
 21 22  1  0
 22 23  2  3
 23 24  1  0
 24 25  2  0
 13 15  1  0
 16 14  1  0
  2  3  2  0
  3  4  1  0
  4  5  2  0
  5  6  1  0
  6  7  2  0
  7  2  1  0
M  END

$$$$
