No_2880-gen_results/8p0m/2024-11-26-14-13-15/
     RDKit          3D

 35 38  0  0  0  0  0  0  0  0999 V2000
  -28.0162   -0.8135   28.8779 C   0  0  0  0  0  0  0  0  0  0  0  0
  -27.0636   -0.1189   28.6079 C   0  0  0  0  0  0  0  0  0  0  0  0
  -25.7923   -0.4302   29.0761 C   0  0  0  0  0  0  0  0  0  0  0  0
  -25.5756   -1.5654   29.9363 C   0  0  0  0  0  0  0  0  0  0  0  0
  -26.7354   -2.3004   30.2173 C   0  0  0  0  0  0  0  0  0  0  0  0
  -27.9184   -1.9537   29.7629 C   0  0  0  0  0  0  0  0  0  0  0  0
  -26.8968    1.1016   27.7052 C   0  0  0  0  0  0  0  0  0  0  0  0
  -26.6638    2.1999   27.9486 C   0  0  0  0  0  0  0  0  0  0  0  0
  -26.2708    2.5380   29.3969 C   0  0  0  0  0  0  0  0  0  0  0  0
  -25.9022    3.8928   29.6804 C   0  0  0  0  0  0  0  0  0  0  0  0
  -25.8160    4.7929   28.6517 C   0  0  0  0  0  0  0  0  0  0  0  0
  -26.0496    4.5027   27.3513 C   0  0  0  0  0  0  0  0  0  0  0  0
  -26.4630    3.2105   27.0013 C   0  0  0  0  0  0  0  0  0  0  0  0
  -27.7379    0.9333   26.4112 C   0  0  0  0  0  0  0  0  0  0  0  0
  -28.3999    1.8192   26.1591 F   0  0  0  0  0  0  0  0  0  0  0  0
  -27.6426   -0.1390   25.8189 F   0  0  0  0  0  0  0  0  0  0  0  0
  -25.6190    4.2166   30.9325 O   0  0  0  0  0  0  0  0  0  0  0  0
  -29.0125   -2.6457   30.0827 O   0  0  0  0  0  0  0  0  0  0  0  0
  -25.6905    5.3563   31.5080 C   0  0  0  0  0  0  0  0  0  0  0  0
  -24.9805    5.5110   32.7470 C   0  0  0  0  0  0  0  0  0  0  0  0
  -24.8966    6.8158   33.3674 C   0  0  0  0  0  0  0  0  0  0  0  0
  -25.6255    7.8533   32.8138 C   0  0  0  0  0  0  0  0  0  0  0  0
  -26.3171    6.4790   30.9877 C   0  0  0  0  0  0  0  0  0  0  0  0
  -26.2981    7.7087   31.6247 C   0  0  0  0  0  0  0  0  0  0  0  0
  -28.9218   -3.9388   30.6281 C   0  0  0  0  0  0  0  0  0  0  0  0
  -28.9839   -4.8822   29.8221 C   0  0  0  0  0  0  0  0  0  0  0  0
  -30.3583   -5.0731   29.4277 C   0  0  0  0  0  0  0  0  0  0  0  0
  -31.1479   -5.4309   30.2607 C   0  0  0  0  0  0  0  0  0  0  0  0
  -29.9952   -4.0042   31.7567 C   0  0  0  0  0  0  0  0  0  0  0  0
  -31.2499   -4.4876   31.4132 C   0  0  0  0  0  0  0  0  0  0  0  0
  -29.6878   -3.4644   32.9818 O   0  0  0  0  0  0  0  0  0  0  0  0
  -30.3365   -2.4676   33.5523 C   0  0  0  0  0  0  0  0  0  0  0  0
  -29.5857   -1.5234   33.9788 C   0  0  0  0  0  0  0  0  0  0  0  0
  -28.6619   -1.6961   34.7260 O   0  0  0  0  0  0  0  0  0  0  0  0
  -29.7920   -0.2707   33.5626 O   0  0  0  0  0  0  0  0  0  0  0  0
  2  7  1  0
  7 14  1  0
 14 15  1  0
 14 16  1  0
 10 17  1  0
  6 18  1  0
 17 19  1  0
 18 25  1  0
 29 31  1  0
 31 32  1  0
 32 33  1  0
 33 34  2  0
 33 35  1  0
  7  8  1  0
  1  2  2  0
  2  3  1  0
  3  4  2  0
  4  5  1  0
  5  6  2  0
  6  1  1  0
 25 26  2  0
 26 27  1  0
 27 28  2  0
 28 30  1  0
 30 29  2  0
 29 25  1  0
  8  9  2  0
  9 10  1  0
 10 11  2  0
 11 12  1  0
 12 13  2  0
 13  8  1  0
 19 20  2  0
 20 21  1  0
 21 22  2  0
 22 24  1  0
 24 23  2  0
 23 19  1  0
M  END

$$$$
