No_28-gen_results/8p0m/2024-11-26-14-13-15/
     RDKit          3D

 24 24  0  0  0  0  0  0  0  0999 V2000
  -27.9505   -0.5786   29.0402 P   0  0  0  0  0  0  0  0  0  0  0  0
  -27.2401    0.0613   28.4283 O   0  0  0  0  0  0  0  0  0  0  0  0
  -27.2444   -1.9817   29.3768 O   0  0  0  0  0  0  0  0  0  0  0  0
  -28.1843   -0.0275   30.5202 O   0  0  0  0  0  0  0  0  0  0  0  0
  -29.3988   -0.9154   28.6487 O   0  0  0  0  0  0  0  0  0  0  0  0
  -25.9395    0.2581   28.6022 C   0  0  0  0  0  0  0  0  0  0  0  0
  -25.2158    1.1298   27.6854 C   0  0  0  0  0  0  0  0  0  0  0  0
  -23.8138    1.1891   27.9726 C   0  0  0  0  0  0  0  0  0  0  0  0
  -23.4020    1.0992   29.0402 C   0  0  0  0  0  0  0  0  0  0  0  0
  -24.0424    0.3649   30.1057 C   0  0  0  0  0  0  0  0  0  0  0  0
  -25.3753    0.0795   29.8593 C   0  0  0  0  0  0  0  0  0  0  0  0
  -23.2003    2.2829   27.0654 C   0  0  0  0  0  0  0  0  0  0  0  0
  -21.9135    2.1248   27.0058 F   0  0  0  0  0  0  0  0  0  0  0  0
  -23.3879    3.5557   27.4730 F   0  0  0  0  0  0  0  0  0  0  0  0
  -23.5516    2.2614   25.7749 F   0  0  0  0  0  0  0  0  0  0  0  0
  -29.9893    0.0028   27.7478 C   0  0  0  0  0  0  0  0  0  0  0  0
  -31.1547   -0.5837   27.1192 C   0  0  0  0  0  0  0  0  0  0  0  0
  -31.5989   -1.5346   27.5087 O   0  0  0  0  0  0  0  0  0  0  0  0
  -31.6062   -0.0014   26.0160 O   0  0  0  0  0  0  0  0  0  0  0  0
  -29.1491    0.6585   26.9232 O   0  0  0  0  0  0  0  0  0  0  0  0
  -28.0198   -2.9094   29.7513 F   0  0  0  0  0  0  0  0  0  0  0  0
  -23.3926    0.1406   31.4016 C   0  0  0  0  0  0  0  0  0  0  0  0
  -23.9899   -1.0060   32.1822 C   0  0  0  0  0  0  0  0  0  0  0  0
  -24.8018   -0.3748   33.0456 Br  0  0  0  0  0  0  0  0  0  0  0  0
  1  2  1  0
  1  3  1  0
  1  4  2  0
  1  5  1  0
  2  6  1  0
  8 12  1  0
 12 13  1  0
 12 14  1  0
 12 15  1  0
  5 16  1  0
 16 17  1  0
 17 18  2  0
 17 19  1  0
 16 20  1  0
  3 21  1  0
 10 22  1  0
 22 23  1  0
 23 24  1  0
  6  7  2  0
  7  8  1  0
  8  9  2  0
  9 10  1  0
 10 11  2  0
 11  6  1  0
M  END

$$$$
