No_2150-gen_results/8p0m/2024-11-26-14-13-15/
     RDKit          3D

 23 24  0  0  0  0  0  0  0  0999 V2000
  -28.1493   -0.8198   28.9079 Cl  0  0  0  0  0  0  0  0  0  0  0  0
  -27.8339    0.4961   29.0598 C   0  0  0  0  0  0  0  0  0  0  0  0
  -27.6022    1.0128   30.2974 C   0  0  0  0  0  0  0  0  0  0  0  0
  -27.1451    2.3729   30.4401 C   0  0  0  0  0  0  0  0  0  0  0  0
  -26.8861    3.1358   29.2778 C   0  0  0  0  0  0  0  0  0  0  0  0
  -27.0434    2.5541   28.0610 C   0  0  0  0  0  0  0  0  0  0  0  0
  -27.4682    1.2781   27.9400 C   0  0  0  0  0  0  0  0  0  0  0  0
  -27.5987    0.7569   26.5787 C   0  0  0  0  0  0  0  0  0  0  0  0
  -26.6079    0.9838   25.6122 C   0  0  0  0  0  0  0  0  0  0  0  0
  -25.4074    0.4852   25.7751 C   0  0  0  0  0  0  0  0  0  0  0  0
  -24.9741   -0.2148   26.9068 C   0  0  0  0  0  0  0  0  0  0  0  0
  -25.2695   -1.2793   27.3109 C   0  0  0  0  0  0  0  0  0  0  0  0
  -24.6856   -1.8843   28.5695 C   0  0  0  0  0  0  0  0  0  0  0  0
  -23.7075   -1.1758   29.2000 C   0  0  0  0  0  0  0  0  0  0  0  0
  -23.8314    0.5232   27.6432 C   0  0  0  0  0  0  0  0  0  0  0  0
  -23.2775    0.0154   28.7712 C   0  0  0  0  0  0  0  0  0  0  0  0
  -28.8412    0.2620   26.1942 C   0  0  0  0  0  0  0  0  0  0  0  0
  -29.0982   -0.0343   25.0070 O   0  0  0  0  0  0  0  0  0  0  0  0
  -29.8140   -0.0705   27.0745 O   0  0  0  0  0  0  0  0  0  0  0  0
  -25.2846   -3.1637   28.9370 C   0  0  0  0  0  0  0  0  0  0  0  0
  -25.9850   -3.5599   28.0777 F   0  0  0  0  0  0  0  0  0  0  0  0
  -26.0052   -2.9420   30.1176 F   0  0  0  0  0  0  0  0  0  0  0  0
  -24.2628   -3.9551   29.2624 F   0  0  0  0  0  0  0  0  0  0  0  0
  1  2  1  0
  7  8  1  0
  8  9  1  0
  9 10  2  3
 10 11  1  0
  8 17  1  0
 17 18  2  0
 17 19  1  0
 13 20  1  0
 20 21  1  0
 20 22  1  0
 20 23  1  0
  2  3  2  0
  3  4  1  0
  4  5  2  0
  5  6  1  0
  6  7  2  0
  7  2  1  0
 11 12  2  0
 12 13  1  0
 13 14  2  0
 14 16  1  0
 16 15  2  0
 15 11  1  0
M  END

$$$$
