No_2729-gen_results/8p0m/2024-11-26-14-13-15/
     RDKit          3D

 25 27  0  0  0  0  0  0  0  0999 V2000
  -28.0162   -0.8135   28.8779 C   0  0  0  0  0  0  0  0  0  0  0  0
  -27.0636   -0.1189   28.6079 C   0  0  0  0  0  0  0  0  0  0  0  0
  -26.9716    0.7139   27.5060 C   0  0  0  0  0  0  0  0  0  0  0  0
  -28.1053    0.7744   26.6421 C   0  0  0  0  0  0  0  0  0  0  0  0
  -29.2008    0.1044   27.0527 C   0  0  0  0  0  0  0  0  0  0  0  0
  -29.2096   -0.6029   28.1853 C   0  0  0  0  0  0  0  0  0  0  0  0
  -30.5651    0.2430   26.0493 Cl  0  0  0  0  0  0  0  0  0  0  0  0
  -25.7033   -0.2337   29.4132 C   0  0  0  0  0  0  0  0  0  0  0  0
  -25.5450   -0.8516   30.2590 C   0  0  0  0  0  0  0  0  0  0  0  0
  -24.3072   -0.9380   31.0295 C   0  0  0  0  0  0  0  0  0  0  0  0
  -23.1845   -0.2125   30.5777 C   0  0  0  0  0  0  0  0  0  0  0  0
  -23.3796    0.5993   29.4403 C   0  0  0  0  0  0  0  0  0  0  0  0
  -24.6271    0.5929   28.7531 C   0  0  0  0  0  0  0  0  0  0  0  0
  -22.0345    1.4783   28.8456 Cl  0  0  0  0  0  0  0  0  0  0  0  0
  -28.0193    1.8204   25.2867 Cl  0  0  0  0  0  0  0  0  0  0  0  0
  -28.0988   -1.6053   29.9620 O   0  0  0  0  0  0  0  0  0  0  0  0
  -29.2760   -2.2743   30.2197 C   0  0  0  0  0  0  0  0  0  0  0  0
  -29.2244   -2.7363   31.6645 C   0  0  0  0  0  0  0  0  0  0  0  0
  -29.2987   -1.7281   32.6022 C   0  0  0  0  0  0  0  0  0  0  0  0
  -30.5119   -1.2267   32.8686 C   0  0  0  0  0  0  0  0  0  0  0  0
  -31.5230   -1.6864   32.6813 C   0  0  0  0  0  0  0  0  0  0  0  0
  -32.8689   -1.0688   32.9394 C   0  0  0  0  0  0  0  0  0  0  0  0
  -32.7894    0.2525   33.4365 C   0  0  0  0  0  0  0  0  0  0  0  0
  -31.6116    0.8953   33.6585 C   0  0  0  0  0  0  0  0  0  0  0  0
  -30.4215    0.2586   33.3969 C   0  0  0  0  0  0  0  0  0  0  0  0
  5  7  1  0
  2  8  1  0
 12 14  1  0
  4 15  1  0
  1 16  1  0
 16 17  1  0
 17 18  1  0
 18 19  1  0
 19 20  1  0
  1  2  1  0
  2  3  2  0
  3  4  1  0
  4  5  2  0
  5  6  1  0
  6  1  2  0
  8  9  2  0
  9 10  1  0
 10 11  2  0
 11 12  1  0
 12 13  2  0
 13  8  1  0
 20 21  2  0
 21 22  1  0
 22 23  2  0
 23 24  1  0
 24 25  2  0
 25 20  1  0
M  END

$$$$
