No_2887-gen_results/8p0m/2024-11-26-14-13-15/
     RDKit          3D

 17 18  0  0  0  0  0  0  0  0999 V2000
  -28.0162   -0.8135   28.8779 C   0  0  0  0  0  0  0  0  0  0  0  0
  -28.4690   -0.7850   29.8287 C   0  0  0  0  0  0  0  0  0  0  0  0
  -27.0871    0.2903   28.6377 C   0  0  0  0  0  0  0  0  0  0  0  0
  -26.8317    1.2487   29.5869 C   0  0  0  0  0  0  0  0  0  0  0  0
  -29.4442   -1.9481   30.1840 C   0  0  0  0  0  0  0  0  0  0  0  0
  -27.4956    1.1303   30.8222 C   0  0  0  0  0  0  0  0  0  0  0  0
  -28.3376    0.0364   31.0331 C   0  0  0  0  0  0  0  0  0  0  0  0
  -30.3927   -1.8339   29.8638 O   0  0  0  0  0  0  0  0  0  0  0  0
  -28.9097   -3.0039   30.8383 O   0  0  0  0  0  0  0  0  0  0  0  0
  -26.3154    0.4398   27.3445 C   0  0  0  0  0  0  0  0  0  0  0  0
  -25.2525    1.1260   27.2337 C   0  0  0  0  0  0  0  0  0  0  0  0
  -24.9823    2.1175   28.2770 C   0  0  0  0  0  0  0  0  0  0  0  0
  -25.6432    2.1043   29.4589 C   0  0  0  0  0  0  0  0  0  0  0  0
  -23.8757    2.9284   28.0144 O   0  0  0  0  0  0  0  0  0  0  0  0
  -25.2752    3.0914   30.5198 C   0  0  0  0  0  0  0  0  0  0  0  0
  -25.9903    3.9105   30.9553 O   0  0  0  0  0  0  0  0  0  0  0  0
  -24.1500    2.6392   31.2086 O   0  0  0  0  0  0  0  0  0  0  0  0
  2  5  1  0
  5  8  2  0
  5  9  1  0
  3 10  1  0
 11 12  1  0
  4 13  1  0
 12 13  1  0
 12 14  2  0
 13 15  1  0
 15 16  2  0
 15 17  1  0
 11 10  1  0
  1  2  2  0
  2  7  1  0
  7  6  2  0
  6  4  1  0
  4  3  2  0
  3  1  1  0
M  END

$$$$
