No_2440-gen_results/8p0m/2024-11-26-14-13-15/
     RDKit          3D

 28 29  0  0  0  0  0  0  0  0999 V2000
  -28.0162   -0.8135   28.8779 C   0  0  0  0  0  0  0  0  0  0  0  0
  -27.0636   -0.1189   28.6079 C   0  0  0  0  0  0  0  0  0  0  0  0
  -25.7923   -0.4302   29.0761 C   0  0  0  0  0  0  0  0  0  0  0  0
  -25.5756   -1.5654   29.9363 C   0  0  0  0  0  0  0  0  0  0  0  0
  -26.7354   -2.3004   30.2173 C   0  0  0  0  0  0  0  0  0  0  0  0
  -27.9184   -1.9537   29.7629 C   0  0  0  0  0  0  0  0  0  0  0  0
  -29.2678   -2.8890   30.2152 Cl  0  0  0  0  0  0  0  0  0  0  0  0
  -27.1316    1.0004   27.8714 F   0  0  0  0  0  0  0  0  0  0  0  0
  -24.5169    0.3503   28.7511 C   0  0  0  0  0  0  0  0  0  0  0  0
  -24.3486    1.1722   27.8436 C   0  0  0  0  0  0  0  0  0  0  0  0
  -23.1076    1.8299   27.5882 C   0  0  0  0  0  0  0  0  0  0  0  0
  -21.9497    1.3727   28.2661 C   0  0  0  0  0  0  0  0  0  0  0  0
  -23.2955   -0.0964   29.4823 C   0  0  0  0  0  0  0  0  0  0  0  0
  -22.0461    0.5230   29.2186 C   0  0  0  0  0  0  0  0  0  0  0  0
  -23.0342    2.7536   26.5842 O   0  0  0  0  0  0  0  0  0  0  0  0
  -24.2537    3.0897   26.0588 C   0  0  0  0  0  0  0  0  0  0  0  0
  -29.3457   -0.6384   28.6262 O   0  0  0  0  0  0  0  0  0  0  0  0
  -29.9276    0.5327   28.9643 C   0  0  0  0  0  0  0  0  0  0  0  0
  -31.1969    0.5299   28.9073 C   0  0  0  0  0  0  0  0  0  0  0  0
  -31.8290   -0.3853   28.6581 O   0  0  0  0  0  0  0  0  0  0  0  0
  -31.9043    1.7452   29.2108 N   0  0  0  0  0  0  0  0  0  0  0  0
  -33.3403    1.8627   29.2044 C   0  0  0  0  0  0  0  0  0  0  0  0
  -34.0522    1.2348   29.8018 C   0  0  0  0  0  0  0  0  0  0  0  0
  -33.8689    1.0657   31.1824 C   0  0  0  0  0  0  0  0  0  0  0  0
  -34.7547    0.2085   32.0361 C   0  0  0  0  0  0  0  0  0  0  0  0
  -34.5021    0.1269   33.4237 C   0  0  0  0  0  0  0  0  0  0  0  0
  -33.3729    0.7593   33.9670 C   0  0  0  0  0  0  0  0  0  0  0  0
  -32.5127    1.5000   33.1751 C   0  0  0  0  0  0  0  0  0  0  0  0
  6  7  1  0
  2  8  1  0
  3  9  1  0
 11 15  1  0
 15 16  1  0
  1 17  1  0
 17 18  1  0
 18 19  1  0
 19 20  2  0
 19 21  1  0
 21 22  1  0
 22 23  1  0
 23 24  2  3
 24 25  1  0
 25 26  2  3
 26 27  1  0
 27 28  2  0
  1  2  2  0
  2  3  1  0
  3  4  2  0
  4  5  1  0
  5  6  2  0
  6  1  1  0
  9 10  2  0
 10 11  1  0
 11 12  2  0
 12 14  1  0
 14 13  2  0
 13  9  1  0
M  END

$$$$
