No_2042-gen_results/8p0m/2024-11-26-14-13-15/
     RDKit          3D

 24 26  0  0  0  0  0  0  0  0999 V2000
  -28.0162   -0.8135   28.8779 C   0  0  0  0  0  0  0  0  0  0  0  0
  -28.4690   -0.7850   29.8287 C   0  0  0  0  0  0  0  0  0  0  0  0
  -27.0871    0.2903   28.6377 C   0  0  0  0  0  0  0  0  0  0  0  0
  -26.8317    1.2487   29.5869 C   0  0  0  0  0  0  0  0  0  0  0  0
  -28.3914    0.0801   31.0065 C   0  0  0  0  0  0  0  0  0  0  0  0
  -27.4940    1.1521   30.7841 C   0  0  0  0  0  0  0  0  0  0  0  0
  -26.3172    0.3994   27.3653 C   0  0  0  0  0  0  0  0  0  0  0  0
  -26.8815    0.9711   26.3721 C   0  0  0  0  0  0  0  0  0  0  0  0
  -26.1464    0.9703   25.0973 C   0  0  0  0  0  0  0  0  0  0  0  0
  -24.7793    0.5609   25.1117 C   0  0  0  0  0  0  0  0  0  0  0  0
  -25.0074   -0.1159   27.2986 C   0  0  0  0  0  0  0  0  0  0  0  0
  -24.2881    0.0057   26.2234 C   0  0  0  0  0  0  0  0  0  0  0  0
  -24.3938   -0.7225   28.5385 C   0  0  0  0  0  0  0  0  0  0  0  0
  -23.6294   -1.1921   29.0847 C   0  0  0  0  0  0  0  0  0  0  0  0
  -22.6661   -0.8816   30.1069 C   0  0  0  0  0  0  0  0  0  0  0  0
  -28.2845    1.4715   26.2625 C   0  0  0  0  0  0  0  0  0  0  0  0
  -28.4268    2.7923   26.4776 C   0  0  0  0  0  0  0  0  0  0  0  0
  -29.3461    0.5744   26.1012 C   0  0  0  0  0  0  0  0  0  0  0  0
  -30.3927    1.1218   25.3995 C   0  0  0  0  0  0  0  0  0  0  0  0
  -27.5477    3.7001   26.9905 C   0  0  0  0  0  0  0  0  0  0  0  0
  -29.8007    3.3146   26.3558 C   0  0  0  0  0  0  0  0  0  0  0  0
  -30.8782    2.4351   25.9198 C   0  0  0  0  0  0  0  0  0  0  0  0
  -22.5553    0.5334   30.3990 C   0  0  0  0  0  0  0  0  0  0  0  0
  -31.6247    0.1132   25.4398 C   0  0  0  0  0  0  0  0  0  0  0  0
  3  7  1  0
 11 13  1  0
 13 14  3  0
 14 15  1  0
  8 16  1  0
 17 20  1  0
 15 23  1  0
 19 24  1  0
  7  8  1  0
  8  9  2  0
  9 10  1  0
 10 12  2  0
 12 11  1  0
 11  7  2  0
 16 17  2  0
 17 21  1  0
 21 22  2  0
 22 19  1  0
 19 18  2  0
 18 16  1  0
  1  2  2  0
  2  5  1  0
  5  6  2  0
  6  4  1  0
  4  3  2  0
  3  1  1  0
M  END

$$$$
