No_2401-gen_results/8p0m/2024-11-26-14-13-15/
     RDKit          3D

 15 16  0  0  0  0  0  0  0  0999 V2000
  -28.0162   -0.8135   28.8779 C   0  0  0  0  0  0  0  0  0  0  0  0
  -28.4690   -0.7850   29.8287 C   0  0  0  0  0  0  0  0  0  0  0  0
  -26.5455   -0.8762   28.8500 C   0  0  0  0  0  0  0  0  0  0  0  0
  -25.8974   -0.8267   29.8894 C   0  0  0  0  0  0  0  0  0  0  0  0
  -24.3582   -0.8838   29.9598 C   0  0  0  0  0  0  0  0  0  0  0  0
  -27.9448   -0.8532   31.1969 C   0  0  0  0  0  0  0  0  0  0  0  0
  -26.5115   -0.9023   31.2208 C   0  0  0  0  0  0  0  0  0  0  0  0
  -23.7534    0.4495   30.1168 C   0  0  0  0  0  0  0  0  0  0  0  0
  -22.5362    0.6649   29.4697 C   0  0  0  0  0  0  0  0  0  0  0  0
  -21.7883   -0.4768   29.0267 C   0  0  0  0  0  0  0  0  0  0  0  0
  -23.7032   -1.5070   28.7600 C   0  0  0  0  0  0  0  0  0  0  0  0
  -22.3297   -1.5443   28.6884 C   0  0  0  0  0  0  0  0  0  0  0  0
  -23.8503   -1.7100   31.2056 C   0  0  0  0  0  0  0  0  0  0  0  0
  -25.9116   -0.8595   27.6399 O   0  0  0  0  0  0  0  0  0  0  0  0
  -24.4552   -2.2258   28.0511 O   0  0  0  0  0  0  0  0  0  0  0  0
  1  3  1  0
  3  4  1  0
  4  5  1  0
  2  6  1  0
  4  7  1  0
  5  8  1  0
  9 10  1  0
  5 11  1  0
 10 12  1  0
  5 13  1  0
  3 14  2  0
 11 15  1  0
  8  9  1  0
 12 11  1  0
  1  2  1  0
  6  7  1  0
M  END

$$$$
