No_2737-gen_results/8p0m/2024-11-26-14-13-15/
     RDKit          3D

 24 25  0  0  0  0  0  0  0  0999 V2000
  -28.0727   -1.2542   28.5316 F   0  0  0  0  0  0  0  0  0  0  0  0
  -27.3591   -0.3792   28.7224 C   0  0  0  0  0  0  0  0  0  0  0  0
  -27.7576    0.4972   29.4008 F   0  0  0  0  0  0  0  0  0  0  0  0
  -26.0810   -0.3916   28.0774 C   0  0  0  0  0  0  0  0  0  0  0  0
  -25.7306    0.7169   27.3094 C   0  0  0  0  0  0  0  0  0  0  0  0
  -24.3802    1.0846   27.2187 C   0  0  0  0  0  0  0  0  0  0  0  0
  -23.3753    0.4025   27.9690 C   0  0  0  0  0  0  0  0  0  0  0  0
  -23.8142   -0.6949   28.7808 C   0  0  0  0  0  0  0  0  0  0  0  0
  -25.0412   -1.0524   28.8803 C   0  0  0  0  0  0  0  0  0  0  0  0
  -23.8824    2.2200   26.4383 C   0  0  0  0  0  0  0  0  0  0  0  0
  -24.5516    3.4491   26.4434 C   0  0  0  0  0  0  0  0  0  0  0  0
  -22.6777    2.1212   25.6838 C   0  0  0  0  0  0  0  0  0  0  0  0
  -25.6294    3.7584   27.3027 C   0  0  0  0  0  0  0  0  0  0  0  0
  -25.5275    4.5957   28.3354 C   0  0  0  0  0  0  0  0  0  0  0  0
  -25.2114    5.7556   28.1796 C   0  0  0  0  0  0  0  0  0  0  0  0
  -25.1062    6.7961   29.2002 C   0  0  0  0  0  0  0  0  0  0  0  0
  -25.4380    6.4195   30.4839 C   0  0  0  0  0  0  0  0  0  0  0  0
  -25.8581    5.1056   30.7304 C   0  0  0  0  0  0  0  0  0  0  0  0
  -25.9346    4.2003   29.6681 C   0  0  0  0  0  0  0  0  0  0  0  0
  -25.3779    7.4210   31.5831 C   0  0  0  0  0  0  0  0  0  0  0  0
  -25.4483    7.0902   32.7121 O   0  0  0  0  0  0  0  0  0  0  0  0
  -25.0658    8.6622   31.2047 O   0  0  0  0  0  0  0  0  0  0  0  0
  -25.4119   -2.1025   29.5936 O   0  0  0  0  0  0  0  0  0  0  0  0
  -25.7044   -2.0583   30.8079 C   0  0  0  0  0  0  0  0  0  0  0  0
  1  2  1  0
  2  3  1  0
  2  4  1  0
  6 10  1  0
 10 11  2  3
 10 12  1  0
 11 13  1  0
 13 14  1  0
 17 20  1  0
 20 21  2  0
 20 22  1  0
  9 23  1  0
 23 24  1  0
 14 15  2  0
 15 16  1  0
 16 17  2  0
 17 18  1  0
 18 19  2  0
 19 14  1  0
  4  5  2  0
  5  6  1  0
  6  7  2  0
  7  8  1  0
  8  9  2  0
  9  4  1  0
M  END

$$$$
