No_2721-gen_results/8p0m/2024-11-26-14-13-15/
     RDKit          3D

 21 23  0  0  0  0  0  0  0  0999 V2000
  -28.0162   -0.8135   28.8779 C   0  0  0  0  0  0  0  0  0  0  0  0
  -27.0636   -0.1190   28.6079 C   0  0  0  0  0  0  0  0  0  0  0  0
  -25.7647   -0.3897   29.0360 C   0  0  0  0  0  0  0  0  0  0  0  0
  -25.5296   -1.5302   29.9014 C   0  0  0  0  0  0  0  0  0  0  0  0
  -26.6888   -2.2893   30.1810 C   0  0  0  0  0  0  0  0  0  0  0  0
  -27.8727   -1.9508   29.7373 C   0  0  0  0  0  0  0  0  0  0  0  0
  -29.2926   -2.7683   30.1523 Cl  0  0  0  0  0  0  0  0  0  0  0  0
  -24.5222    0.4049   28.7207 C   0  0  0  0  0  0  0  0  0  0  0  0
  -24.0819    1.4019   29.5474 C   0  0  0  0  0  0  0  0  0  0  0  0
  -22.9947    2.1209   29.1317 N   0  0  0  0  0  0  0  0  0  0  0  0
  -24.6886    1.7469   30.6095 O   0  0  0  0  0  0  0  0  0  0  0  0
  -22.1709    1.8494   27.9928 C   0  0  0  0  0  0  0  0  0  0  0  0
  -23.7544    0.1730   27.5001 C   0  0  0  0  0  0  0  0  0  0  0  0
  -22.6903    0.9000   27.2401 C   0  0  0  0  0  0  0  0  0  0  0  0
  -27.1375    0.9421   27.7467 F   0  0  0  0  0  0  0  0  0  0  0  0
  -25.4848    2.8620   30.7758 C   0  0  0  0  0  0  0  0  0  0  0  0
  -26.5245    2.8073   31.6667 C   0  0  0  0  0  0  0  0  0  0  0  0
  -27.6088    3.4028   31.3757 C   0  0  0  0  0  0  0  0  0  0  0  0
  -27.6251    4.4052   30.3593 C   0  0  0  0  0  0  0  0  0  0  0  0
  -26.6188    4.4332   29.4100 C   0  0  0  0  0  0  0  0  0  0  0  0
  -25.5869    3.5935   29.6034 C   0  0  0  0  0  0  0  0  0  0  0  0
  6  7  1  0
  3  8  1  0
  9 11  1  0
  2 15  1  0
 11 16  1  0
  1  2  2  0
  2  3  1  0
  3  4  2  0
  4  5  1  0
  5  6  2  0
  6  1  1  0
  8  9  1  0
  9 10  2  0
 10 12  1  0
 12 14  2  0
 14 13  1  0
 13  8  2  0
 16 17  2  0
 17 18  1  0
 18 19  2  0
 19 20  1  0
 20 21  2  0
 21 16  1  0
M  END

$$$$
