No_2378-gen_results/8p0m/2024-11-26-14-13-15/
     RDKit          3D

 11 11  0  0  0  0  0  0  0  0999 V2000
  -28.0162   -0.8135   28.8779 C   0  0  0  0  0  0  0  0  0  0  0  0
  -28.4690   -0.7850   29.8287 C   0  0  0  0  0  0  0  0  0  0  0  0
  -27.1356    0.2359   28.5352 C   0  0  0  0  0  0  0  0  0  0  0  0
  -26.8050    1.0509   29.2763 C   0  0  0  0  0  0  0  0  0  0  0  0
  -28.2372    0.1503   30.9300 C   0  0  0  0  0  0  0  0  0  0  0  0
  -27.3522    1.1239   30.6071 C   0  0  0  0  0  0  0  0  0  0  0  0
  -26.3150    0.1731   26.7727 Br  0  0  0  0  0  0  0  0  0  0  0  0
  -29.4621   -1.9332   30.3570 C   0  0  0  0  0  0  0  0  0  0  0  0
  -29.8832   -1.7812   31.6086 O   0  0  0  0  0  0  0  0  0  0  0  0
  -29.6408   -2.8960   29.6979 O   0  0  0  0  0  0  0  0  0  0  0  0
  -25.6812    2.4125   28.8752 Cl  0  0  0  0  0  0  0  0  0  0  0  0
  3  7  1  0
  2  8  1  0
  8  9  2  0
  8 10  1  0
  4 11  1  0
  1  2  2  0
  2  5  1  0
  5  6  2  0
  6  4  1  0
  4  3  2  0
  3  1  1  0
M  END

$$$$
