No_2437-gen_results/8p0m/2024-11-26-14-13-15/
     RDKit          3D

 30 34  0  0  0  0  0  0  0  0999 V2000
  -28.0162   -0.8135   28.8779 C   0  0  0  0  0  0  0  0  0  0  0  0
  -27.0636   -0.1190   28.6079 C   0  0  0  0  0  0  0  0  0  0  0  0
  -27.0010    0.6913   27.4910 C   0  0  0  0  0  0  0  0  0  0  0  0
  -28.1373    0.7363   26.6350 C   0  0  0  0  0  0  0  0  0  0  0  0
  -29.2360    0.0765   27.0690 C   0  0  0  0  0  0  0  0  0  0  0  0
  -29.2177   -0.6429   28.1747 C   0  0  0  0  0  0  0  0  0  0  0  0
  -30.3516    0.1564   26.2430 N   0  0  0  0  0  0  0  0  0  0  0  0
  -31.4313   -0.4312   26.5996 C   0  0  0  0  0  0  0  0  0  0  0  0
  -31.4825   -1.1210   27.8409 C   0  0  0  0  0  0  0  0  0  0  0  0
  -30.4093   -1.2929   28.5803 C   0  0  0  0  0  0  0  0  0  0  0  0
  -32.8019   -1.8248   28.1893 C   0  0  0  0  0  0  0  0  0  0  0  0
  -25.6918    1.3945   27.1009 C   0  0  0  0  0  0  0  0  0  0  0  0
  -24.6206    0.9498   27.7791 C   0  0  0  0  0  0  0  0  0  0  0  0
  -23.3598    1.7363   27.5831 C   0  0  0  0  0  0  0  0  0  0  0  0
  -22.2004    1.4232   28.4067 C   0  0  0  0  0  0  0  0  0  0  0  0
  -22.2302    0.2922   29.2288 C   0  0  0  0  0  0  0  0  0  0  0  0
  -23.3678   -0.4666   29.3804 C   0  0  0  0  0  0  0  0  0  0  0  0
  -24.5276   -0.1517   28.6456 C   0  0  0  0  0  0  0  0  0  0  0  0
  -25.7290   -0.5263   29.2086 C   0  0  0  0  0  0  0  0  0  0  0  0
  -25.7998   -1.4339   30.1229 O   0  0  0  0  0  0  0  0  0  0  0  0
  -25.7077    2.5247   25.8523 Cl  0  0  0  0  0  0  0  0  0  0  0  0
  -33.1817   -1.8132   29.4228 N   0  0  0  0  0  0  0  0  0  0  0  0
  -34.0499   -2.4112   29.9272 C   0  0  0  0  0  0  0  0  0  0  0  0
  -33.1931   -2.7601   27.4845 O   0  0  0  0  0  0  0  0  0  0  0  0
  -33.7884   -3.5496   30.6744 C   0  0  0  0  0  0  0  0  0  0  0  0
  -34.7724   -4.3621   31.2521 C   0  0  0  0  0  0  0  0  0  0  0  0
  -34.4544   -5.5196   31.9649 C   0  0  0  0  0  0  0  0  0  0  0  0
  -33.0866   -5.9105   32.0734 C   0  0  0  0  0  0  0  0  0  0  0  0
  -32.0628   -5.1514   31.4542 C   0  0  0  0  0  0  0  0  0  0  0  0
  -32.4382   -3.9761   30.7666 C   0  0  0  0  0  0  0  0  0  0  0  0
  9 11  1  0
  3 12  1  0
 12 13  1  0
  2 19  1  0
 18 19  1  0
 19 20  2  0
 12 21  1  0
 11 22  1  0
 22 23  2  3
 11 24  2  0
 23 25  1  0
  1  2  2  0
  2  3  1  0
  3  4  2  0
  4  5  1  0
  6  1  1  0
 25 26  2  0
 26 27  1  0
 27 28  2  0
 28 29  1  0
 29 30  2  0
 30 25  1  0
 13 14  2  0
 14 15  1  0
 15 16  2  0
 16 17  1  0
 17 18  2  0
 18 13  1  0
  5  6  2  0
  6 10  1  0
 10  9  2  0
  9  8  1  0
  8  7  2  0
  7  5  1  0
M  END

$$$$
