No_2253-gen_results/8p0m/2024-11-26-14-13-15/
     RDKit          3D

  7  6  0  0  0  0  0  0  0  0999 V2000
  -28.0162   -0.8135   28.8779 C   0  0  0  0  0  0  0  0  0  0  0  0
  -27.0636   -0.1189   28.6079 C   0  0  0  0  0  0  0  0  0  0  0  0
  -26.8756    1.1325   28.9134 C   0  0  0  0  0  0  0  0  0  0  0  0
  -25.6883    1.9515   28.5672 C   0  0  0  0  0  0  0  0  0  0  0  0
  -24.6394    1.2834   27.8753 C   0  0  0  0  0  0  0  0  0  0  0  0
  -23.4674    1.9392   27.5210 C   0  0  0  0  0  0  0  0  0  0  0  0
  -25.8585   -0.7372   27.9198 C   0  0  0  0  0  0  0  0  0  0  0  0
  1  2  2  0
  2  3  1  0
  3  4  1  0
  4  5  3  0
  5  6  1  0
  2  7  1  0
M  END

$$$$
