No_2657-gen_results/8p0m/2024-11-26-14-13-15/
     RDKit          3D

 15 17  0  0  0  0  0  0  0  0999 V2000
  -28.0544   -1.0498   28.7246 N   0  0  0  0  0  0  0  0  0  0  0  0
  -28.6544   -0.5669   29.5076 C   0  0  0  0  0  0  0  0  0  0  0  0
  -26.7777   -0.5807   28.6029 C   0  0  0  0  0  0  0  0  0  0  0  0
  -26.2700    0.0398   29.5434 C   0  0  0  0  0  0  0  0  0  0  0  0
  -24.8683    0.5978   29.5214 C   0  0  0  0  0  0  0  0  0  0  0  0
  -28.3804    0.0693   30.7208 C   0  0  0  0  0  0  0  0  0  0  0  0
  -27.0025    0.5230   30.7216 C   0  0  0  0  0  0  0  0  0  0  0  0
  -23.8687   -0.0159   28.8983 C   0  0  0  0  0  0  0  0  0  0  0  0
  -22.5175    0.5426   28.8844 C   0  0  0  0  0  0  0  0  0  0  0  0
  -24.0930    1.1458   30.6447 C   0  0  0  0  0  0  0  0  0  0  0  0
  -25.0434    1.7839   31.6168 N   0  0  0  0  0  0  0  0  0  0  0  0
  -26.3905    1.3248   31.7576 C   0  0  0  0  0  0  0  0  0  0  0  0
  -22.8301    1.5215   30.5152 C   0  0  0  0  0  0  0  0  0  0  0  0
  -26.1468   -0.9037   27.4685 O   0  0  0  0  0  0  0  0  0  0  0  0
  -21.4527    0.3962   28.8032 F   0  0  0  0  0  0  0  0  0  0  0  0
  1  2  1  0
  1  3  1  0
  3  4  1  0
  6  7  1  0
  8  9  1  0
  9 13  1  0
 10 13  1  0
  3 14  2  0
  9 15  1  0
  8  5  1  0
  2  6  1  0
  4  5  2  0
  5 10  1  0
 10 11  2  0
 11 12  1  0
 12  7  2  0
  7  4  1  0
M  END

$$$$
