No_2317-gen_results/8p0m/2024-11-26-14-13-15/
     RDKit          3D

 21 23  0  0  0  0  0  0  0  0999 V2000
  -28.0162   -0.8135   28.8779 C   0  0  0  0  0  0  0  0  0  0  0  0
  -27.0636   -0.1189   28.6079 C   0  0  0  0  0  0  0  0  0  0  0  0
  -25.7647   -0.3897   29.0360 C   0  0  0  0  0  0  0  0  0  0  0  0
  -25.5296   -1.5302   29.9014 C   0  0  0  0  0  0  0  0  0  0  0  0
  -26.6577   -2.2915   30.2035 C   0  0  0  0  0  0  0  0  0  0  0  0
  -27.8548   -1.9555   29.7630 C   0  0  0  0  0  0  0  0  0  0  0  0
  -24.5441    0.4126   28.7379 C   0  0  0  0  0  0  0  0  0  0  0  0
  -24.4731    1.2065   27.7114 C   0  0  0  0  0  0  0  0  0  0  0  0
  -23.2779    1.8420   27.3661 C   0  0  0  0  0  0  0  0  0  0  0  0
  -22.0928    1.6644   28.0344 C   0  0  0  0  0  0  0  0  0  0  0  0
  -23.2044    0.0605   29.2613 C   0  0  0  0  0  0  0  0  0  0  0  0
  -22.0480    0.7114   28.9693 C   0  0  0  0  0  0  0  0  0  0  0  0
  -29.0233   -2.7893   30.1822 C   0  0  0  0  0  0  0  0  0  0  0  0
  -28.8890   -4.0977   30.4305 N   0  0  0  0  0  0  0  0  0  0  0  0
  -29.9257   -4.9702   30.2135 C   0  0  0  0  0  0  0  0  0  0  0  0
  -30.7823   -4.7769   29.1931 C   0  0  0  0  0  0  0  0  0  0  0  0
  -31.3576   -5.7766   28.5887 C   0  0  0  0  0  0  0  0  0  0  0  0
  -31.7164   -5.7006   27.2311 C   0  0  0  0  0  0  0  0  0  0  0  0
  -32.0566   -4.4022   26.7456 C   0  0  0  0  0  0  0  0  0  0  0  0
  -31.7143   -3.3095   27.5116 C   0  0  0  0  0  0  0  0  0  0  0  0
  -31.0261   -3.4902   28.7393 C   0  0  0  0  0  0  0  0  0  0  0  0
  3  7  1  0
  6 13  1  0
 13 14  1  0
 14 15  2  3
 15 16  1  0
  7  8  2  0
  8  9  1  0
  9 10  2  0
 10 12  1  0
 12 11  2  0
 11  7  1  0
  1  2  2  0
  2  3  1  0
  3  4  2  0
  4  5  1  0
  5  6  2  0
  6  1  1  0
 16 17  2  0
 17 18  1  0
 18 19  2  0
 19 20  1  0
 20 21  2  0
 21 16  1  0
M  END

$$$$
