No_2077-gen_results/8p0m/2024-11-26-14-13-15/
     RDKit          3D

 10 11  0  0  0  0  0  0  0  0999 V2000
  -28.0162   -0.8135   28.8779 C   0  0  0  0  0  0  0  0  0  0  0  0
  -28.4690   -0.7850   29.8287 C   0  0  0  0  0  0  0  0  0  0  0  0
  -27.0871    0.2903   28.6377 C   0  0  0  0  0  0  0  0  0  0  0  0
  -26.2516    0.4114   27.4222 C   0  0  0  0  0  0  0  0  0  0  0  0
  -28.3141   -0.1267   30.7102 C   0  0  0  0  0  0  0  0  0  0  0  0
  -27.4825    1.0076   30.8097 C   0  0  0  0  0  0  0  0  0  0  0  0
  -26.7770    1.1718   29.6871 C   0  0  0  0  0  0  0  0  0  0  0  0
  -25.7918    1.6548   27.0856 C   0  0  0  0  0  0  0  0  0  0  0  0
  -25.5011    2.5971   28.1579 C   0  0  0  0  0  0  0  0  0  0  0  0
  -26.1450    2.4451   29.3816 C   0  0  0  0  0  0  0  0  0  0  0  0
  1  2  2  0
  2  5  1  0
  5  6  2  0
  6  7  1  0
  3  1  1  0
  3  4  2  0
  4  8  1  0
  8  9  2  0
  9 10  1  0
 10  7  2  0
  7  3  1  0
M  END

$$$$
