No_2147-gen_results/8p0m/2024-11-26-14-13-15/
     RDKit          3D

 35 37  0  0  0  0  0  0  0  0999 V2000
  -28.0162   -0.8135   28.8779 C   0  0  0  0  0  0  0  0  0  0  0  0
  -28.4690   -0.7850   29.8287 C   0  0  0  0  0  0  0  0  0  0  0  0
  -27.1356    0.2359   28.5352 C   0  0  0  0  0  0  0  0  0  0  0  0
  -26.8745    1.2825   29.3982 C   0  0  0  0  0  0  0  0  0  0  0  0
  -28.3613    0.1987   30.9244 C   0  0  0  0  0  0  0  0  0  0  0  0
  -27.5277    1.2234   30.6356 C   0  0  0  0  0  0  0  0  0  0  0  0
  -26.3987    0.2949   27.2279 C   0  0  0  0  0  0  0  0  0  0  0  0
  -25.4359   -0.3066   27.2689 F   0  0  0  0  0  0  0  0  0  0  0  0
  -27.2424   -0.2160   26.2518 F   0  0  0  0  0  0  0  0  0  0  0  0
  -26.0737    1.5697   26.7857 F   0  0  0  0  0  0  0  0  0  0  0  0
  -29.3983   -2.0023   30.3280 C   0  0  0  0  0  0  0  0  0  0  0  0
  -28.9857   -3.1351   30.3946 O   0  0  0  0  0  0  0  0  0  0  0  0
  -30.4126   -1.7881   31.1267 N   0  0  0  0  0  0  0  0  0  0  0  0
  -31.2553   -2.8219   31.6332 C   0  0  0  0  0  0  0  0  0  0  0  0
  -32.6030   -2.5826   31.4818 C   0  0  0  0  0  0  0  0  0  0  0  0
  -33.0012   -1.3450   31.4707 C   0  0  0  0  0  0  0  0  0  0  0  0
  -32.1914   -0.2473   31.0415 C   0  0  0  0  0  0  0  0  0  0  0  0
  -31.0177   -0.5085   30.7874 C   0  0  0  0  0  0  0  0  0  0  0  0
  -32.8493    1.0714   30.8191 C   0  0  0  0  0  0  0  0  0  0  0  0
  -32.2026    1.9838   30.2646 N   0  0  0  0  0  0  0  0  0  0  0  0
  -31.8559    2.1544   28.9547 C   0  0  0  0  0  0  0  0  0  0  0  0
  -30.8842    3.1113   28.5555 C   0  0  0  0  0  0  0  0  0  0  0  0
  -32.4008    1.2790   28.0305 C   0  0  0  0  0  0  0  0  0  0  0  0
  -30.4589    3.1284   27.2038 C   0  0  0  0  0  0  0  0  0  0  0  0
  -31.9874    1.3540   26.6605 C   0  0  0  0  0  0  0  0  0  0  0  0
  -32.5473    0.4395   25.6761 C   0  0  0  0  0  0  0  0  0  0  0  0
  -31.0077    2.2426   26.3049 C   0  0  0  0  0  0  0  0  0  0  0  0
  -34.0083    1.3166   31.0740 O   0  0  0  0  0  0  0  0  0  0  0  0
  -32.0169   -0.5431   25.4254 N   0  0  0  0  0  0  0  0  0  0  0  0
  -31.5565   -1.5116   26.1569 C   0  0  0  0  0  0  0  0  0  0  0  0
  -31.6196   -0.8616   24.0259 C   0  0  0  0  0  0  0  0  0  0  0  0
  -31.7793   -1.4574   27.5112 N   0  0  0  0  0  0  0  0  0  0  0  0
  -30.9161   -2.5008   25.8312 O   0  0  0  0  0  0  0  0  0  0  0  0
  -31.5867   -2.6433   28.3967 C   0  0  0  0  0  0  0  0  0  0  0  0
  -29.3450    4.0720   26.8363 C   0  0  0  0  0  0  0  0  0  0  0  0
  3  7  1  0
  7  8  1  0
  7  9  1  0
  7 10  1  0
  2 11  1  0
 11 12  2  0
 11 13  1  0
 13 14  1  0
 14 15  1  0
 16 17  1  0
 13 18  1  0
 17 19  1  0
 19 20  1  0
 20 21  1  0
 25 26  1  0
 19 28  2  0
 26 29  1  0
 29 30  1  0
 29 31  1  0
 30 32  1  0
 30 33  2  0
 32 34  1  0
 24 35  1  0
 15 16  1  0
 17 18  1  0
 21 22  2  0
 22 24  1  0
 24 27  2  0
 27 25  1  0
 25 23  2  0
 23 21  1  0
  1  2  2  0
  2  5  1  0
  5  6  2  0
  6  4  1  0
  4  3  2  0
  3  1  1  0
M  END

$$$$
