No_2718-gen_results/8p0m/2024-11-26-14-13-15/
     RDKit          3D

 20 20  0  0  0  0  0  0  0  0999 V2000
  -28.0162   -0.8135   28.8779 C   0  0  0  0  0  0  0  0  0  0  0  0
  -28.4690   -0.7850   29.8287 C   0  0  0  0  0  0  0  0  0  0  0  0
  -26.5042   -0.7777   28.8766 C   0  0  0  0  0  0  0  0  0  0  0  0
  -25.8103   -0.8531   30.1028 C   0  0  0  0  0  0  0  0  0  0  0  0
  -27.9906   -0.8916   31.2257 C   0  0  0  0  0  0  0  0  0  0  0  0
  -26.6042   -0.8676   31.2652 C   0  0  0  0  0  0  0  0  0  0  0  0
  -24.3894   -0.8049   30.1638 C   0  0  0  0  0  0  0  0  0  0  0  0
  -23.8172    0.4762   29.9117 C   0  0  0  0  0  0  0  0  0  0  0  0
  -24.1955    1.5984   30.1917 C   0  0  0  0  0  0  0  0  0  0  0  0
  -24.5522    1.7829   31.3437 F   0  0  0  0  0  0  0  0  0  0  0  0
  -23.3733    2.6228   29.9715 F   0  0  0  0  0  0  0  0  0  0  0  0
  -25.3441    1.9409   29.4849 F   0  0  0  0  0  0  0  0  0  0  0  0
  -23.1233    0.3452   28.5134 C   0  0  0  0  0  0  0  0  0  0  0  0
  -30.1010   -0.8274   29.8537 C   0  0  0  0  0  0  0  0  0  0  0  0
  -30.7232    0.0118   30.6576 O   0  0  0  0  0  0  0  0  0  0  0  0
  -30.7038   -1.7440   29.3381 O   0  0  0  0  0  0  0  0  0  0  0  0
  -21.8771    1.0195   28.6016 C   0  0  0  0  0  0  0  0  0  0  0  0
  -21.8280    2.0087   27.6102 O   0  0  0  0  0  0  0  0  0  0  0  0
  -22.5193    0.2467   30.7936 O   0  0  0  0  0  0  0  0  0  0  0  0
  -23.8557   -1.9679   30.4144 O   0  0  0  0  0  0  0  0  0  0  0  0
  4  7  1  0
  7  8  1  0
  8  9  1  0
  9 10  1  0
  9 11  1  0
  9 12  1  0
  8 13  1  0
  2 14  1  0
 14 15  2  0
 14 16  1  0
 13 17  1  0
 17 18  1  0
  8 19  1  0
  7 20  2  0
  1  2  2  0
  2  5  1  0
  5  6  2  0
  6  4  1  0
  4  3  2  0
  3  1  1  0
M  END

$$$$
