No_217-gen_results/8p0m/2024-11-26-14-13-15/
     RDKit          3D

 35 39  0  0  0  0  0  0  0  0999 V2000
  -28.0162   -0.8135   28.8779 C   0  0  0  0  0  0  0  0  0  0  0  0
  -28.4690   -0.7850   29.8287 C   0  0  0  0  0  0  0  0  0  0  0  0
  -26.5455   -0.8762   28.8500 C   0  0  0  0  0  0  0  0  0  0  0  0
  -25.8041   -1.0324   30.0571 C   0  0  0  0  0  0  0  0  0  0  0  0
  -27.9437   -0.9869   31.2075 C   0  0  0  0  0  0  0  0  0  0  0  0
  -26.5825   -1.0386   31.2231 C   0  0  0  0  0  0  0  0  0  0  0  0
  -29.9267   -0.7257   29.8772 O   0  0  0  0  0  0  0  0  0  0  0  0
  -30.5050   -0.0237   28.9624 C   0  0  0  0  0  0  0  0  0  0  0  0
  -31.3773   -0.3992   28.1172 C   0  0  0  0  0  0  0  0  0  0  0  0
  -31.9394    0.3228   27.0412 C   0  0  0  0  0  0  0  0  0  0  0  0
  -31.4912    1.6578   26.9464 C   0  0  0  0  0  0  0  0  0  0  0  0
  -30.0152    1.3636   28.7408 C   0  0  0  0  0  0  0  0  0  0  0  0
  -30.5425    2.1519   27.8151 C   0  0  0  0  0  0  0  0  0  0  0  0
  -24.4199   -1.2448   30.2636 C   0  0  0  0  0  0  0  0  0  0  0  0
  -23.4598   -0.1092   30.1226 C   0  0  0  0  0  0  0  0  0  0  0  0
  -22.3549   -0.1192   29.3283 C   0  0  0  0  0  0  0  0  0  0  0  0
  -21.6779    1.0465   28.9203 C   0  0  0  0  0  0  0  0  0  0  0  0
  -22.5294    2.2305   28.8236 C   0  0  0  0  0  0  0  0  0  0  0  0
  -23.7281    2.2830   29.5802 C   0  0  0  0  0  0  0  0  0  0  0  0
  -24.2474    1.1656   30.2500 C   0  0  0  0  0  0  0  0  0  0  0  0
  -25.7804   -0.7587   27.6741 N   0  0  0  0  0  0  0  0  0  0  0  0
  -26.1107    0.0548   26.6380 C   0  0  0  0  0  0  0  0  0  0  0  0
  -25.2788    0.0902   25.5016 C   0  0  0  0  0  0  0  0  0  0  0  0
  -27.1395    1.0148   26.6731 C   0  0  0  0  0  0  0  0  0  0  0  0
  -27.3879    1.8922   25.6256 C   0  0  0  0  0  0  0  0  0  0  0  0
  -26.7653    1.7456   24.5256 C   0  0  0  0  0  0  0  0  0  0  0  0
  -25.6146    0.8867   24.4380 C   0  0  0  0  0  0  0  0  0  0  0  0
  -32.1331    2.5347   25.9052 C   0  0  0  0  0  0  0  0  0  0  0  0
  -31.4647    2.6408   24.9120 F   0  0  0  0  0  0  0  0  0  0  0  0
  -32.2625    3.7968   26.4433 F   0  0  0  0  0  0  0  0  0  0  0  0
  -33.3742    2.1341   25.5825 F   0  0  0  0  0  0  0  0  0  0  0  0
  -24.7209   -1.7315   27.4436 C   0  0  0  0  0  0  0  0  0  0  0  0
  -23.9668   -2.4529   29.3527 C   0  0  0  0  0  0  0  0  0  0  0  0
  -23.9502   -2.3038   28.1227 O   0  0  0  0  0  0  0  0  0  0  0  0
  -24.1293   -1.7782   31.7887 C   0  0  0  0  0  0  0  0  0  0  0  0
  2  7  1  0
  7  8  1  0
  4 14  1  0
 14 15  1  0
  3 21  1  0
 21 22  1  0
 11 28  1  0
 28 29  1  0
 28 30  1  0
 28 31  1  0
 21 32  1  0
 14 33  1  0
 32 34  1  0
 33 34  1  0
 14 35  1  0
 15 16  2  0
 16 17  1  0
 17 18  2  0
 18 19  1  0
 19 20  2  0
 20 15  1  0
 22 23  2  0
 23 27  1  0
 27 26  2  0
 26 25  1  0
 25 24  2  0
 24 22  1  0
  1  2  2  0
  2  5  1  0
  5  6  2  0
  6  4  1  0
  4  3  2  0
  3  1  1  0
  8  9  2  0
  9 10  1  0
 10 11  2  0
 11 13  1  0
 13 12  2  0
 12  8  1  0
M  END

$$$$
