No_2692-gen_results/8p0m/2024-11-26-14-13-15/
     RDKit          3D

 16 17  0  0  0  0  0  0  0  0999 V2000
  -28.0162   -0.8135   28.8779 C   0  0  0  0  0  0  0  0  0  0  0  0
  -27.0636   -0.1189   28.6079 C   0  0  0  0  0  0  0  0  0  0  0  0
  -25.7647   -0.3897   29.0360 C   0  0  0  0  0  0  0  0  0  0  0  0
  -24.5516    0.4058   28.7646 C   0  0  0  0  0  0  0  0  0  0  0  0
  -24.6957    1.4480   27.7988 C   0  0  0  0  0  0  0  0  0  0  0  0
  -25.9755    1.7250   27.3077 C   0  0  0  0  0  0  0  0  0  0  0  0
  -27.0718    1.0134   27.6535 C   0  0  0  0  0  0  0  0  0  0  0  0
  -28.6043   -0.4743   30.2323 C   0  0  0  0  0  0  0  0  0  0  0  0
  -28.2997    0.2196   30.9512 O   0  0  0  0  0  0  0  0  0  0  0  0
  -29.7858   -1.3413   30.4505 N   0  0  0  0  0  0  0  0  0  0  0  0
  -23.5037    2.2389   27.5075 C   0  0  0  0  0  0  0  0  0  0  0  0
  -22.2279    1.8090   27.9014 C   0  0  0  0  0  0  0  0  0  0  0  0
  -22.1654    0.7250   28.8269 C   0  0  0  0  0  0  0  0  0  0  0  0
  -23.3127   -0.0450   29.2144 C   0  0  0  0  0  0  0  0  0  0  0  0
  -30.5101   -1.1627   31.7452 C   0  0  0  0  0  0  0  0  0  0  0  0
  -28.2753    1.2991   27.1723 O   0  0  0  0  0  0  0  0  0  0  0  0
  1  2  2  3
  2  3  1  0
  3  4  1  0
  5  6  1  0
  2  7  1  0
  6  7  1  0
  1  8  1  0
  8  9  2  0
  8 10  1  0
 10 15  1  0
  7 16  2  0
  4  5  2  0
  5 11  1  0
 11 12  2  0
 12 13  1  0
 13 14  2  0
 14  4  1  0
M  END

$$$$
