No_2804-gen_results/8p0m/2024-11-26-14-13-15/
     RDKit          3D

 16 17  0  0  0  0  0  0  0  0999 V2000
  -28.0162   -0.8135   28.8779 C   0  0  0  0  0  0  0  0  0  0  0  0
  -27.0636   -0.1190   28.6079 C   0  0  0  0  0  0  0  0  0  0  0  0
  -26.8756    1.1325   28.9134 C   0  0  0  0  0  0  0  0  0  0  0  0
  -27.9014    1.8066   29.6436 C   0  0  0  0  0  0  0  0  0  0  0  0
  -29.0524   -0.2272   29.7118 C   0  0  0  0  0  0  0  0  0  0  0  0
  -28.9628    1.0830   30.0431 C   0  0  0  0  0  0  0  0  0  0  0  0
  -30.1740   -1.1090   30.1188 C   0  0  0  0  0  0  0  0  0  0  0  0
  -31.1559   -1.1119   29.6222 O   0  0  0  0  0  0  0  0  0  0  0  0
  -29.8728   -2.0067   31.1180 O   0  0  0  0  0  0  0  0  0  0  0  0
  -25.8916   -0.8861   27.9104 C   0  0  0  0  0  0  0  0  0  0  0  0
  -24.5389   -0.7272   28.6504 C   0  0  0  0  0  0  0  0  0  0  0  0
  -24.0829   -1.7830   29.4537 C   0  0  0  0  0  0  0  0  0  0  0  0
  -23.7026    0.3448   28.3543 C   0  0  0  0  0  0  0  0  0  0  0  0
  -22.3633    0.2959   28.9724 C   0  0  0  0  0  0  0  0  0  0  0  0
  -21.9594   -0.7128   29.7347 C   0  0  0  0  0  0  0  0  0  0  0  0
  -22.7919   -1.7581   29.9860 C   0  0  0  0  0  0  0  0  0  0  0  0
  5  7  1  0
  7  8  2  0
  7  9  1  0
  2 10  1  0
 10 11  1  0
 11 12  2  0
 12 16  1  0
 16 15  2  0
 15 14  1  0
 14 13  2  0
 13 11  1  0
  1  2  2  0
  2  3  1  0
  3  4  2  0
  4  6  1  0
  6  5  2  0
  5  1  1  0
M  END

$$$$
