No_2430-gen_results/8p0m/2024-11-26-14-13-15/
     RDKit          3D

  6  6  0  0  0  0  0  0  0  0999 V2000
  -28.0162   -0.8135   28.8779 C   0  0  0  0  0  0  0  0  0  0  0  0
  -27.0636   -0.1190   28.6079 C   0  0  0  0  0  0  0  0  0  0  0  0
  -25.7647   -0.3897   29.0360 C   0  0  0  0  0  0  0  0  0  0  0  0
  -25.4887   -1.1536   29.7171 C   0  0  0  0  0  0  0  0  0  0  0  0
  -26.4902   -2.1223   30.2112 C   0  0  0  0  0  0  0  0  0  0  0  0
  -27.7293   -1.9207   29.8050 C   0  0  0  0  0  0  0  0  0  0  0  0
  1  2  2  0
  2  3  1  0
  3  4  2  0
  4  5  1  0
  5  6  2  0
  6  1  1  0
M  END

$$$$
