No_2173-gen_results/8p0m/2024-11-26-14-13-15/
     RDKit          3D

 18 18  0  0  0  0  0  0  0  0999 V2000
  -28.0162   -0.8135   28.8779 C   0  0  0  0  0  0  0  0  0  0  0  0
  -28.4690   -0.7850   29.8287 C   0  0  0  0  0  0  0  0  0  0  0  0
  -26.5042   -0.7777   28.8766 C   0  0  0  0  0  0  0  0  0  0  0  0
  -25.8305   -1.6808   29.6849 C   0  0  0  0  0  0  0  0  0  0  0  0
  -28.1490   -1.8854   30.9031 C   0  0  0  0  0  0  0  0  0  0  0  0
  -26.6460   -1.9561   31.0330 C   0  0  0  0  0  0  0  0  0  0  0  0
  -28.6274   -1.7308   32.1858 O   0  0  0  0  0  0  0  0  0  0  0  0
  -30.0168   -0.9269   29.8771 O   0  0  0  0  0  0  0  0  0  0  0  0
  -24.6534   -2.3030   29.3807 C   0  0  0  0  0  0  0  0  0  0  0  0
  -23.2314   -1.9630   29.6185 Cl  0  0  0  0  0  0  0  0  0  0  0  0
  -24.7982   -3.7715   28.8527 C   0  0  0  0  0  0  0  0  0  0  0  0
  -28.3690    0.3703   28.0507 O   0  0  0  0  0  0  0  0  0  0  0  0
  -23.8054   -4.2911   28.3535 F   0  0  0  0  0  0  0  0  0  0  0  0
  -28.0579    0.6493   26.9195 C   0  0  0  0  0  0  0  0  0  0  0  0
  -26.8260    1.1836   26.6946 C   0  0  0  0  0  0  0  0  0  0  0  0
  -26.2325    1.7612   27.5592 O   0  0  0  0  0  0  0  0  0  0  0  0
  -28.9707    0.4607   25.8817 C   0  0  0  0  0  0  0  0  0  0  0  0
  -28.5539    0.2207   24.7181 O   0  0  0  0  0  0  0  0  0  0  0  0
  1  2  1  0
  1  3  1  0
  3  4  1  0
  2  5  1  0
  4  6  1  0
  5  6  1  0
  5  7  1  0
  2  8  1  0
  4  9  1  0
  9 10  1  0
  9 11  1  0
  1 12  1  0
 11 13  1  0
 12 14  1  0
 14 15  1  0
 15 16  1  0
 14 17  1  0
 17 18  2  0
M  END

$$$$
