No_2672-gen_results/8p0m/2024-11-26-14-13-15/
     RDKit          3D

 15 16  0  0  0  0  0  0  0  0999 V2000
  -28.0162   -0.8135   28.8779 C   0  0  0  0  0  0  0  0  0  0  0  0
  -27.0636   -0.1189   28.6079 C   0  0  0  0  0  0  0  0  0  0  0  0
  -25.7923   -0.4302   29.0761 C   0  0  0  0  0  0  0  0  0  0  0  0
  -25.5756   -1.5654   29.9363 C   0  0  0  0  0  0  0  0  0  0  0  0
  -26.7354   -2.3004   30.2173 C   0  0  0  0  0  0  0  0  0  0  0  0
  -27.9184   -1.9537   29.7629 C   0  0  0  0  0  0  0  0  0  0  0  0
  -27.3552    1.2839   27.7056 Cl  0  0  0  0  0  0  0  0  0  0  0  0
  -29.1876   -3.0393   30.2894 Cl  0  0  0  0  0  0  0  0  0  0  0  0
  -24.5410    0.3973   28.7335 C   0  0  0  0  0  0  0  0  0  0  0  0
  -24.3527    1.0443   27.7043 C   0  0  0  0  0  0  0  0  0  0  0  0
  -23.1158    1.7139   27.4455 C   0  0  0  0  0  0  0  0  0  0  0  0
  -22.0060    1.5263   28.2473 C   0  0  0  0  0  0  0  0  0  0  0  0
  -23.3667    0.0810   29.5950 C   0  0  0  0  0  0  0  0  0  0  0  0
  -22.1017    0.7348   29.3060 C   0  0  0  0  0  0  0  0  0  0  0  0
  -23.0716    2.5065   26.3433 F   0  0  0  0  0  0  0  0  0  0  0  0
  2  7  1  0
  6  8  1  0
  3  9  1  0
 11 15  1  0
  1  2  2  0
  2  3  1  0
  3  4  2  0
  4  5  1  0
  5  6  2  0
  6  1  1  0
  9 10  2  0
 10 11  1  0
 11 12  2  0
 12 14  1  0
 14 13  2  0
 13  9  1  0
M  END

$$$$
