No_2041-gen_results/8p0m/2024-11-26-14-13-15/
     RDKit          3D

 18 19  0  0  0  0  0  0  0  0999 V2000
  -28.0162   -0.8135   28.8779 C   0  0  0  0  0  0  0  0  0  0  0  0
  -27.0636   -0.1189   28.6079 C   0  0  0  0  0  0  0  0  0  0  0  0
  -25.7647   -0.3897   29.0360 C   0  0  0  0  0  0  0  0  0  0  0  0
  -24.5516    0.4058   28.7646 C   0  0  0  0  0  0  0  0  0  0  0  0
  -23.2300    0.1178   29.2575 C   0  0  0  0  0  0  0  0  0  0  0  0
  -23.0942   -1.1309   29.8730 C   0  0  0  0  0  0  0  0  0  0  0  0
  -27.7980   -1.9341   29.8560 C   0  0  0  0  0  0  0  0  0  0  0  0
  -26.5420   -2.3269   30.2580 C   0  0  0  0  0  0  0  0  0  0  0  0
  -25.4514   -1.5516   29.9079 C   0  0  0  0  0  0  0  0  0  0  0  0
  -24.1562   -1.9097   30.2809 C   0  0  0  0  0  0  0  0  0  0  0  0
  -24.6450    1.6582   27.9464 C   0  0  0  0  0  0  0  0  0  0  0  0
  -24.7048    2.6251   28.6027 F   0  0  0  0  0  0  0  0  0  0  0  0
  -23.4397    1.7715   27.2011 F   0  0  0  0  0  0  0  0  0  0  0  0
  -25.5334    1.4010   26.9377 F   0  0  0  0  0  0  0  0  0  0  0  0
  -24.1961    0.0553   27.6544 C   0  0  0  0  0  0  0  0  0  0  0  0
  -24.8225   -0.1016   26.6405 N   0  0  0  0  0  0  0  0  0  0  0  0
  -23.0808   -0.7712   27.4801 O   0  0  0  0  0  0  0  0  0  0  0  0
  -25.0110   -0.2192   25.3517 C   0  0  0  0  0  0  0  0  0  0  0  0
  3  4  1  0
  4  5  1  0
  6 10  1  0
  9 10  1  0
  4 11  1  0
 11 12  1  0
 11 13  1  0
 11 14  1  0
  4 15  1  0
 15 16  1  0
 15 17  2  0
 16 18  1  0
  6  5  1  0
  1  2  2  0
  2  3  1  0
  3  9  2  0
  9  8  1  0
  8  7  2  0
  7  1  1  0
M  END

$$$$
