No_2449-gen_results/8p0m/2024-11-26-14-13-15/
     RDKit          3D

 15 17  0  0  0  0  0  0  0  0999 V2000
  -28.0162   -0.8135   28.8779 C   0  0  0  0  0  0  0  0  0  0  0  0
  -27.0636   -0.1190   28.6079 C   0  0  0  0  0  0  0  0  0  0  0  0
  -25.7923   -0.4302   29.0761 C   0  0  0  0  0  0  0  0  0  0  0  0
  -24.5456    0.3494   28.8225 C   0  0  0  0  0  0  0  0  0  0  0  0
  -24.6586    1.4196   27.8878 C   0  0  0  0  0  0  0  0  0  0  0  0
  -23.5403    2.1791   27.5500 C   0  0  0  0  0  0  0  0  0  0  0  0
  -22.2925    1.7428   28.0473 C   0  0  0  0  0  0  0  0  0  0  0  0
  -22.1712    0.7079   28.9284 C   0  0  0  0  0  0  0  0  0  0  0  0
  -23.3345   -0.0624   29.3081 C   0  0  0  0  0  0  0  0  0  0  0  0
  -29.3408   -0.3116   28.6627 C   0  0  0  0  0  0  0  0  0  0  0  0
  -29.4591    0.8244   27.8613 C   0  0  0  0  0  0  0  0  0  0  0  0
  -28.3803    1.5024   27.4214 C   0  0  0  0  0  0  0  0  0  0  0  0
  -27.0965    1.1384   27.8258 C   0  0  0  0  0  0  0  0  0  0  0  0
  -25.9444    1.8471   27.4557 C   0  0  0  0  0  0  0  0  0  0  0  0
  -26.0482    2.8836   26.7250 O   0  0  0  0  0  0  0  0  0  0  0  0
  3  4  1  0
  5 14  1  0
 13 14  1  0
 14 15  2  0
  3  2  1  0
  4  9  2  0
  9  8  1  0
  8  7  2  0
  7  6  1  0
  6  5  2  0
  5  4  1  0
  1  2  2  0
  2 13  1  0
 13 12  2  0
 12 11  1  0
 11 10  2  0
 10  1  1  0
M  END

$$$$
