No_2794-gen_results/8p0m/2024-11-26-14-13-15/
     RDKit          3D

 35 39  0  0  0  0  0  0  0  0999 V2000
  -28.0162   -0.8135   28.8779 C   0  0  0  0  0  0  0  0  0  0  0  0
  -28.4690   -0.7850   29.8287 C   0  0  0  0  0  0  0  0  0  0  0  0
  -26.5042   -0.7777   28.8766 C   0  0  0  0  0  0  0  0  0  0  0  0
  -25.8103   -0.8531   30.1028 C   0  0  0  0  0  0  0  0  0  0  0  0
  -27.9906   -0.8916   31.2257 C   0  0  0  0  0  0  0  0  0  0  0  0
  -26.6042   -0.8676   31.2652 C   0  0  0  0  0  0  0  0  0  0  0  0
  -29.9765   -0.8288   29.8497 N   0  0  0  0  0  0  0  0  0  0  0  0
  -30.5795   -0.1232   28.9820 C   0  0  0  0  0  0  0  0  0  0  0  0
  -30.0432    0.5770   28.2959 O   0  0  0  0  0  0  0  0  0  0  0  0
  -31.9697   -0.6633   28.7352 C   0  0  0  0  0  0  0  0  0  0  0  0
  -32.3730   -1.5515   29.2177 C   0  0  0  0  0  0  0  0  0  0  0  0
  -31.6543   -2.2821   30.2970 C   0  0  0  0  0  0  0  0  0  0  0  0
  -30.4399   -2.0046   30.5793 C   0  0  0  0  0  0  0  0  0  0  0  0
  -29.7420   -2.6080   31.4419 O   0  0  0  0  0  0  0  0  0  0  0  0
  -25.6389   -0.6754   27.6570 C   0  0  0  0  0  0  0  0  0  0  0  0
  -25.9046    0.3089   26.6888 C   0  0  0  0  0  0  0  0  0  0  0  0
  -25.5055    1.2819   26.4446 C   0  0  0  0  0  0  0  0  0  0  0  0
  -24.4868    1.9645   27.3435 C   0  0  0  0  0  0  0  0  0  0  0  0
  -24.1234    1.5897   28.4062 C   0  0  0  0  0  0  0  0  0  0  0  0
  -22.9160    0.7211   28.3814 C   0  0  0  0  0  0  0  0  0  0  0  0
  -22.4780    0.1258   29.6744 C   0  0  0  0  0  0  0  0  0  0  0  0
  -24.7692    1.7524   29.6576 C   0  0  0  0  0  0  0  0  0  0  0  0
  -24.1401    1.5304   30.9323 C   0  0  0  0  0  0  0  0  0  0  0  0
  -23.0176    0.6562   30.9126 C   0  0  0  0  0  0  0  0  0  0  0  0
  -25.9569    2.6584   29.6907 C   0  0  0  0  0  0  0  0  0  0  0  0
  -26.3186    3.5579   28.8923 C   0  0  0  0  0  0  0  0  0  0  0  0
  -26.4505    4.8315   29.3199 C   0  0  0  0  0  0  0  0  0  0  0  0
  -26.6165    5.8892   28.3077 C   0  0  0  0  0  0  0  0  0  0  0  0
  -26.8315    5.4972   26.9937 C   0  0  0  0  0  0  0  0  0  0  0  0
  -26.7111    4.2313   26.5869 C   0  0  0  0  0  0  0  0  0  0  0  0
  -26.4230    3.2523   27.5273 C   0  0  0  0  0  0  0  0  0  0  0  0
  -26.2971    2.0677   27.1057 N   0  0  0  0  0  0  0  0  0  0  0  0
  -27.6067    1.6589   27.3198 C   0  0  0  0  0  0  0  0  0  0  0  0
  -26.5505   -0.4678   25.5715 C   0  0  0  0  0  0  0  0  0  0  0  0
  -24.7348   -1.7177   27.4585 C   0  0  0  0  0  0  0  0  0  0  0  0
  2  7  1  0
  7  8  1  0
  8  9  2  0
  8 10  1  0
 11 12  1  0
  7 13  1  0
 12 13  1  0
 13 14  2  0
  3 15  1  0
 15 16  1  0
 16 17  2  3
 17 18  1  0
 18 19  1  0
 22 25  1  0
 25 26  1  0
 17 32  1  0
 31 32  1  0
 32 33  1  0
 16 34  1  0
 15 35  1  0
 10 11  1  0
 26 27  2  0
 27 28  1  0
 28 29  2  0
 29 30  1  0
 30 31  2  0
 31 26  1  0
 19 20  2  0
 20 21  1  0
 21 24  2  0
 24 23  1  0
 23 22  2  0
 22 19  1  0
  1  2  2  0
  2  5  1  0
  5  6  2  0
  6  4  1  0
  4  3  2  0
  3  1  1  0
M  END

$$$$
