No_2123-gen_results/8p0m/2024-11-26-14-13-15/
     RDKit          3D

  9  9  0  0  0  0  0  0  0  0999 V2000
  -28.0162   -0.8135   28.8779 C   0  0  0  0  0  0  0  0  0  0  0  0
  -28.4690   -0.7850   29.8287 C   0  0  0  0  0  0  0  0  0  0  0  0
  -28.1816    0.4277   28.1134 C   0  0  0  0  0  0  0  0  0  0  0  0
  -29.3519    0.6041   27.4037 C   0  0  0  0  0  0  0  0  0  0  0  0
  -30.4853    0.3937   28.3041 C   0  0  0  0  0  0  0  0  0  0  0  0
  -29.4649   -0.4006   30.2875 C   0  0  0  0  0  0  0  0  0  0  0  0
  -30.6349   -0.1104   29.4701 C   0  0  0  0  0  0  0  0  0  0  0  0
  -29.3653    1.1816   26.1888 C   0  0  0  0  0  0  0  0  0  0  0  0
  -28.6402    2.0186   25.7008 C   0  0  0  0  0  0  0  0  0  0  0  0
  1  2  1  0
  1  3  1  0
  3  4  1  0
  4  5  1  0
  2  6  2  0
  5  7  1  0
  6  7  1  0
  4  8  1  0
  8  9  2  0
M  END

$$$$
