No_2588-gen_results/8p0m/2024-11-26-14-13-15/
     RDKit          3D

 31 33  0  0  0  0  0  0  0  0999 V2000
  -28.0162   -0.8135   28.8779 C   0  0  0  0  0  0  0  0  0  0  0  0
  -28.4690   -0.7850   29.8287 C   0  0  0  0  0  0  0  0  0  0  0  0
  -28.1816    0.4277   28.1134 C   0  0  0  0  0  0  0  0  0  0  0  0
  -28.9841    1.4155   28.5154 C   0  0  0  0  0  0  0  0  0  0  0  0
  -29.3802    0.1384   30.4612 C   0  0  0  0  0  0  0  0  0  0  0  0
  -29.5415    1.2736   29.7242 C   0  0  0  0  0  0  0  0  0  0  0  0
  -27.4586    0.4934   26.7701 C   0  0  0  0  0  0  0  0  0  0  0  0
  -27.9230    0.6051   25.8246 O   0  0  0  0  0  0  0  0  0  0  0  0
  -26.0726    0.3400   26.8759 O   0  0  0  0  0  0  0  0  0  0  0  0
  -25.3475    0.0254   27.8986 C   0  0  0  0  0  0  0  0  0  0  0  0
  -25.0668   -0.9764   28.2427 C   0  0  0  0  0  0  0  0  0  0  0  0
  -24.1293   -1.3453   29.3187 C   0  0  0  0  0  0  0  0  0  0  0  0
  -23.3528   -0.3231   29.8462 C   0  0  0  0  0  0  0  0  0  0  0  0
  -24.6591    1.2419   28.4130 C   0  0  0  0  0  0  0  0  0  0  0  0
  -23.6209    0.9751   29.4019 C   0  0  0  0  0  0  0  0  0  0  0  0
  -28.2994   -2.0808   30.8268 C   0  0  0  0  0  0  0  0  0  0  0  0
  -27.2561   -2.5345   30.8687 O   0  0  0  0  0  0  0  0  0  0  0  0
  -29.4310   -2.7190   31.1507 O   0  0  0  0  0  0  0  0  0  0  0  0
  -24.8832    2.6344   28.0657 C   0  0  0  0  0  0  0  0  0  0  0  0
  -24.4202    3.2599   27.2210 O   0  0  0  0  0  0  0  0  0  0  0  0
  -25.5727    3.3314   29.0762 O   0  0  0  0  0  0  0  0  0  0  0  0
  -26.1842    4.4997   28.7090 C   0  0  0  0  0  0  0  0  0  0  0  0
  -27.2874    4.8316   29.3357 C   0  0  0  0  0  0  0  0  0  0  0  0
  -27.6177    4.2336   30.5196 C   0  0  0  0  0  0  0  0  0  0  0  0
  -27.9551    4.6892   31.4429 C   0  0  0  0  0  0  0  0  0  0  0  0
  -28.1690    4.0330   32.7815 C   0  0  0  0  0  0  0  0  0  0  0  0
  -27.9244    2.6495   32.7788 C   0  0  0  0  0  0  0  0  0  0  0  0
  -27.3821    2.0564   31.7028 C   0  0  0  0  0  0  0  0  0  0  0  0
  -27.1863    2.8261   30.5550 C   0  0  0  0  0  0  0  0  0  0  0  0
  -26.8921    2.0796   29.6174 O   0  0  0  0  0  0  0  0  0  0  0  0
  -25.8896    1.3847   30.1435 C   0  0  0  0  0  0  0  0  0  0  0  0
  3  7  1  0
  7  8  2  0
  7  9  1  0
  9 10  1  0
  2 16  1  0
 16 17  2  0
 16 18  1  0
 14 19  1  0
 19 20  2  0
 19 21  1  0
 21 22  1  0
 22 23  2  3
 23 24  1  0
 29 30  1  0
 30 31  1  0
 10 11  2  0
 11 12  1  0
 12 13  2  0
 13 15  1  0
 15 14  2  0
 14 10  1  0
 24 25  2  0
 25 26  1  0
 26 27  2  0
 27 28  1  0
 28 29  2  0
 29 24  1  0
  1  2  2  0
  2  5  1  0
  5  6  2  0
  6  4  1  0
  4  3  2  0
  3  1  1  0
M  END

$$$$
