No_2044-gen_results/8p0m/2024-11-26-14-13-15/
     RDKit          3D

 16 17  0  0  0  0  0  0  0  0999 V2000
  -28.0162   -0.8135   28.8779 C   0  0  0  0  0  0  0  0  0  0  0  0
  -28.4690   -0.7850   29.8287 C   0  0  0  0  0  0  0  0  0  0  0  0
  -26.5042   -0.7777   28.8766 C   0  0  0  0  0  0  0  0  0  0  0  0
  -25.6540   -0.6597   27.7191 C   0  0  0  0  0  0  0  0  0  0  0  0
  -27.9180   -0.9374   31.1824 C   0  0  0  0  0  0  0  0  0  0  0  0
  -26.5423   -0.9399   31.2606 C   0  0  0  0  0  0  0  0  0  0  0  0
  -25.7832   -0.8935   30.1201 C   0  0  0  0  0  0  0  0  0  0  0  0
  -24.3670   -0.4566   27.8592 N   0  0  0  0  0  0  0  0  0  0  0  0
  -26.1835   -0.5619   26.5872 O   0  0  0  0  0  0  0  0  0  0  0  0
  -23.5826   -0.5396   29.0217 C   0  0  0  0  0  0  0  0  0  0  0  0
  -24.3466   -0.7283   30.1654 C   0  0  0  0  0  0  0  0  0  0  0  0
  -22.2033   -0.3461   29.0076 C   0  0  0  0  0  0  0  0  0  0  0  0
  -21.7671   -0.2053   28.0338 F   0  0  0  0  0  0  0  0  0  0  0  0
  -21.5927   -1.4090   29.6979 F   0  0  0  0  0  0  0  0  0  0  0  0
  -21.9632    0.7531   29.8608 F   0  0  0  0  0  0  0  0  0  0  0  0
  -23.5116   -1.9472   28.8092 F   0  0  0  0  0  0  0  0  0  0  0  0
  3  4  1  0
  4  8  1  0
  4  9  2  0
  8 10  1  0
  7 11  1  0
 10 11  1  0
 10 12  1  0
 12 13  1  0
 12 14  1  0
 12 15  1  0
 10 16  1  0
  1  2  2  0
  2  5  1  0
  5  6  2  0
  6  7  1  0
  7  3  2  0
  3  1  1  0
M  END

$$$$
