No_2433-gen_results/8p0m/2024-11-26-14-13-15/
     RDKit          3D

 20 21  0  0  0  0  0  0  0  0999 V2000
  -28.0727   -1.2542   28.5316 F   0  0  0  0  0  0  0  0  0  0  0  0
  -28.2662   -0.4214   29.1931 C   0  0  0  0  0  0  0  0  0  0  0  0
  -29.4445    0.0759   29.3394 C   0  0  0  0  0  0  0  0  0  0  0  0
  -29.7073    1.1743   30.2277 C   0  0  0  0  0  0  0  0  0  0  0  0
  -28.5970    1.7109   30.9109 C   0  0  0  0  0  0  0  0  0  0  0  0
  -27.3024    1.1821   30.7905 C   0  0  0  0  0  0  0  0  0  0  0  0
  -27.1217    0.1218   29.9802 C   0  0  0  0  0  0  0  0  0  0  0  0
  -25.7978   -0.4263   29.8450 C   0  0  0  0  0  0  0  0  0  0  0  0
  -25.4921   -1.6638   29.8157 C   0  0  0  0  0  0  0  0  0  0  0  0
  -24.1816   -2.1791   29.6201 C   0  0  0  0  0  0  0  0  0  0  0  0
  -23.1502   -1.2714   29.5340 C   0  0  0  0  0  0  0  0  0  0  0  0
  -23.3941    0.0867   29.4837 C   0  0  0  0  0  0  0  0  0  0  0  0
  -24.7307    0.5132   29.6899 C   0  0  0  0  0  0  0  0  0  0  0  0
  -22.2906    1.0324   29.4000 C   0  0  0  0  0  0  0  0  0  0  0  0
  -21.2814    0.5627   28.5526 N   0  0  0  0  0  0  0  0  0  0  0  0
  -30.4539   -0.4231   28.7094 F   0  0  0  0  0  0  0  0  0  0  0  0
  -22.3277    2.1712   29.7351 O   0  0  0  0  0  0  0  0  0  0  0  0
  -28.8229    2.8706   31.8826 C   0  0  0  0  0  0  0  0  0  0  0  0
  -29.7101    3.2675   32.3365 O   0  0  0  0  0  0  0  0  0  0  0  0
  -27.6064    3.1868   32.4333 O   0  0  0  0  0  0  0  0  0  0  0  0
  1  2  1  0
  7  8  1  0
 12 14  1  0
 14 15  1  0
  3 16  1  0
 14 17  2  0
  5 18  1  0
 18 19  1  0
 18 20  2  0
  2  3  2  0
  3  4  1  0
  4  5  2  0
  5  6  1  0
  6  7  2  0
  7  2  1  0
  8  9  2  0
  9 10  1  0
 10 11  2  0
 11 12  1  0
 12 13  2  0
 13  8  1  0
M  END

$$$$
