No_2903-gen_results/8p0m/2024-11-26-14-13-15/
     RDKit          3D

  7  7  0  0  0  0  0  0  0  0999 V2000
  -28.0162   -0.8135   28.8779 C   0  0  0  0  0  0  0  0  0  0  0  0
  -27.0636   -0.1189   28.6079 C   0  0  0  0  0  0  0  0  0  0  0  0
  -25.8837   -0.5253   28.7834 F   0  0  0  0  0  0  0  0  0  0  0  0
  -27.1010    1.1562   27.8909 C   0  0  0  0  0  0  0  0  0  0  0  0
  -29.3448   -0.1953   28.7972 C   0  0  0  0  0  0  0  0  0  0  0  0
  -28.3754    1.6882   27.6893 C   0  0  0  0  0  0  0  0  0  0  0  0
  -29.4687    0.9858   28.1266 C   0  0  0  0  0  0  0  0  0  0  0  0
  2  3  1  0
  1  2  2  0
  2  4  1  0
  4  6  2  0
  6  7  1  0
  7  5  2  0
  5  1  1  0
M  END

$$$$
