No_2863-gen_results/8p0m/2024-11-26-14-13-15/
     RDKit          3D

 13 14  0  0  0  0  0  0  0  0999 V2000
  -28.0162   -0.8135   28.8779 C   0  0  0  0  0  0  0  0  0  0  0  0
  -28.4690   -0.7850   29.8287 C   0  0  0  0  0  0  0  0  0  0  0  0
  -26.5455   -0.8762   28.8500 C   0  0  0  0  0  0  0  0  0  0  0  0
  -25.8974   -0.8267   29.8894 C   0  0  0  0  0  0  0  0  0  0  0  0
  -27.9129   -0.8385   31.1942 C   0  0  0  0  0  0  0  0  0  0  0  0
  -26.5519   -0.8324   31.1775 C   0  0  0  0  0  0  0  0  0  0  0  0
  -30.2866   -0.7927   29.9260 Cl  0  0  0  0  0  0  0  0  0  0  0  0
  -24.3720   -0.8622   29.9318 C   0  0  0  0  0  0  0  0  0  0  0  0
  -23.6386   -1.5043   30.3053 C   0  0  0  0  0  0  0  0  0  0  0  0
  -23.7963    0.3495   29.1708 C   0  0  0  0  0  0  0  0  0  0  0  0
  -22.4101    0.4258   29.0567 C   0  0  0  0  0  0  0  0  0  0  0  0
  -22.1953   -1.5591   30.3514 C   0  0  0  0  0  0  0  0  0  0  0  0
  -21.6194   -0.5058   29.6443 C   0  0  0  0  0  0  0  0  0  0  0  0
  2  7  1  0
  4  8  1  0
  8  9  2  0
  9 12  1  0
 12 13  2  0
 13 11  1  0
 11 10  2  0
 10  8  1  0
  1  2  2  0
  2  5  1  0
  5  6  2  0
  6  4  1  0
  4  3  2  0
  3  1  1  0
M  END

$$$$
