No_2083-gen_results/8p0m/2024-11-26-14-13-15/
     RDKit          3D

 16 16  0  0  0  0  0  0  0  0999 V2000
  -28.0162   -0.8135   28.8779 C   0  0  0  0  0  0  0  0  0  0  0  0
  -28.4690   -0.7850   29.8287 C   0  0  0  0  0  0  0  0  0  0  0  0
  -26.5455   -0.8762   28.8500 C   0  0  0  0  0  0  0  0  0  0  0  0
  -25.8041   -1.0324   30.0571 C   0  0  0  0  0  0  0  0  0  0  0  0
  -26.5373   -1.0386   31.2171 C   0  0  0  0  0  0  0  0  0  0  0  0
  -27.8843   -0.9532   31.1862 C   0  0  0  0  0  0  0  0  0  0  0  0
  -24.5255   -1.0850   30.0372 F   0  0  0  0  0  0  0  0  0  0  0  0
  -30.0667   -0.7185   29.9317 C   0  0  0  0  0  0  0  0  0  0  0  0
  -30.7621   -1.5351   30.1867 O   0  0  0  0  0  0  0  0  0  0  0  0
  -30.5164    0.3679   29.1974 O   0  0  0  0  0  0  0  0  0  0  0  0
  -25.6821   -0.7911   27.6022 C   0  0  0  0  0  0  0  0  0  0  0  0
  -24.5191    0.0210   27.6918 C   0  0  0  0  0  0  0  0  0  0  0  0
  -23.8005   -0.3851   28.9647 C   0  0  0  0  0  0  0  0  0  0  0  0
  -22.3700   -0.1261   29.1728 C   0  0  0  0  0  0  0  0  0  0  0  0
  -23.2946    0.2822   29.5572 Cl  0  0  0  0  0  0  0  0  0  0  0  0
  -21.4252   -0.6803   29.5565 N   0  0  0  0  0  0  0  0  0  0  0  0
  4  7  1  0
  2  8  1  0
  8  9  2  0
  8 10  1  0
  3 11  1  0
 11 12  1  0
 12 13  1  0
 13 14  2  0
 13 15  1  0
 14 16  2  0
  1  2  2  0
  2  6  1  0
  6  5  2  0
  5  4  1  0
  4  3  2  0
  3  1  1  0
M  END

$$$$
