No_2563-gen_results/8p0m/2024-11-26-14-13-15/
     RDKit          3D

 16 17  0  0  0  0  0  0  0  0999 V2000
  -28.0162   -0.8135   28.8779 C   0  0  0  0  0  0  0  0  0  0  0  0
  -27.0636   -0.1189   28.6079 C   0  0  0  0  0  0  0  0  0  0  0  0
  -26.9716    0.7139   27.5060 C   0  0  0  0  0  0  0  0  0  0  0  0
  -25.8205    1.4910   27.1160 C   0  0  0  0  0  0  0  0  0  0  0  0
  -24.6562    1.4242   27.9180 C   0  0  0  0  0  0  0  0  0  0  0  0
  -24.7114    0.5419   29.0507 C   0  0  0  0  0  0  0  0  0  0  0  0
  -25.8042   -0.2058   29.3881 C   0  0  0  0  0  0  0  0  0  0  0  0
  -27.9729   -1.6644   30.0216 N   0  0  0  0  0  0  0  0  0  0  0  0
  -29.0596   -2.3762   30.4483 C   0  0  0  0  0  0  0  0  0  0  0  0
  -30.2706   -1.8162   30.3868 C   0  0  0  0  0  0  0  0  0  0  0  0
  -30.4140   -0.7774   29.3947 C   0  0  0  0  0  0  0  0  0  0  0  0
  -29.2997   -0.2090   28.8236 C   0  0  0  0  0  0  0  0  0  0  0  0
  -23.4715    2.1713   27.6010 C   0  0  0  0  0  0  0  0  0  0  0  0
  -22.5694    2.0345   28.4386 F   0  0  0  0  0  0  0  0  0  0  0  0
  -23.7194    3.4576   27.4171 F   0  0  0  0  0  0  0  0  0  0  0  0
  -22.9530    1.7237   26.3898 F   0  0  0  0  0  0  0  0  0  0  0  0
  5 13  1  0
 13 14  1  0
 13 15  1  0
 13 16  1  0
  1  2  1  0
  2  3  2  0
  3  4  1  0
  4  5  2  0
  5  6  1  0
  6  7  2  0
  7  2  1  0
  1  8  2  0
  8  9  1  0
  9 10  2  0
 10 11  1  0
 11 12  2  0
 12  1  1  0
M  END

$$$$
