No_2635-gen_results/8p0m/2024-11-26-14-13-15/
     RDKit          3D

 17 18  0  0  0  0  0  0  0  0999 V2000
  -28.0162   -0.8135   28.8779 C   0  0  0  0  0  0  0  0  0  0  0  0
  -28.4690   -0.7850   29.8287 C   0  0  0  0  0  0  0  0  0  0  0  0
  -28.1960    0.3478   28.0550 C   0  0  0  0  0  0  0  0  0  0  0  0
  -29.0191    1.3501   28.3782 C   0  0  0  0  0  0  0  0  0  0  0  0
  -29.4107    0.1803   30.3782 C   0  0  0  0  0  0  0  0  0  0  0  0
  -29.6059    1.2495   29.6193 C   0  0  0  0  0  0  0  0  0  0  0  0
  -27.4597    0.3802   26.7091 C   0  0  0  0  0  0  0  0  0  0  0  0
  -27.9298    0.5836   25.6804 C   0  0  0  0  0  0  0  0  0  0  0  0
  -29.3518    0.8141   25.5930 C   0  0  0  0  0  0  0  0  0  0  0  0
  -29.9131    1.6813   26.1752 C   0  0  0  0  0  0  0  0  0  0  0  0
  -30.0027    1.7294   27.6269 C   0  0  0  0  0  0  0  0  0  0  0  0
  -26.1356   -0.1048   26.8899 O   0  0  0  0  0  0  0  0  0  0  0  0
  -25.3161    0.1951   28.0003 C   0  0  0  0  0  0  0  0  0  0  0  0
  -24.7377    1.0756   28.2269 C   0  0  0  0  0  0  0  0  0  0  0  0
  -24.5604    2.2548   27.2581 C   0  0  0  0  0  0  0  0  0  0  0  0
  -23.5314    3.2390   27.3636 C   0  0  0  0  0  0  0  0  0  0  0  0
  -23.6918    4.1421   26.4684 C   0  0  0  0  0  0  0  0  0  0  0  0
  3  7  1  0
  7  8  2  0
  8  9  1  0
  9 10  2  0
  4 11  1  0
 10 11  1  0
  7 12  1  0
 12 13  1  0
 13 14  2  3
 14 15  1  0
 15 16  2  3
 16 17  1  0
  1  2  2  0
  2  5  1  0
  5  6  2  0
  6  4  1  0
  4  3  2  0
  3  1  1  0
M  END

$$$$
