No_2556-gen_results/8p0m/2024-11-26-14-13-15/
     RDKit          3D

 15 16  0  0  0  0  0  0  0  0999 V2000
  -28.0162   -0.8135   28.8779 C   0  0  0  0  0  0  0  0  0  0  0  0
  -28.4690   -0.7850   29.8287 C   0  0  0  0  0  0  0  0  0  0  0  0
  -27.0871    0.2903   28.6377 C   0  0  0  0  0  0  0  0  0  0  0  0
  -26.9102    0.8486   27.4199 C   0  0  0  0  0  0  0  0  0  0  0  0
  -29.6069   -1.6266   30.1338 C   0  0  0  0  0  0  0  0  0  0  0  0
  -27.6424    1.1427   26.6727 C   0  0  0  0  0  0  0  0  0  0  0  0
  -29.0200    1.0856   26.9318 C   0  0  0  0  0  0  0  0  0  0  0  0
  -27.6042   -0.6046   31.0113 C   0  0  0  0  0  0  0  0  0  0  0  0
  -26.5540    0.2863   31.0077 C   0  0  0  0  0  0  0  0  0  0  0  0
  -26.2962    0.7625   29.7979 C   0  0  0  0  0  0  0  0  0  0  0  0
  -29.9967    1.4236   25.8734 C   0  0  0  0  0  0  0  0  0  0  0  0
  -29.4732    1.8199   24.6799 C   0  0  0  0  0  0  0  0  0  0  0  0
  -28.1724    1.9005   24.2997 C   0  0  0  0  0  0  0  0  0  0  0  0
  -27.2440    1.6270   25.2764 C   0  0  0  0  0  0  0  0  0  0  0  0
  -30.6900   -1.3015   29.6980 O   0  0  0  0  0  0  0  0  0  0  0  0
  3  4  1  0
  2  5  1  0
  5 15  1  0
  4  6  1  0
  1  2  2  0
  2  8  1  0
  8  9  2  0
  9 10  1  0
 10  3  2  0
  3  1  1  0
  6  7  2  0
  7 11  1  0
 11 12  2  0
 12 13  1  0
 13 14  2  0
 14  6  1  0
M  END

$$$$
