No_2263-gen_results/8p0m/2024-11-26-14-13-15/
     RDKit          3D

 13 13  0  0  0  0  0  0  0  0999 V2000
  -28.0162   -0.8135   28.8779 C   0  0  0  0  0  0  0  0  0  0  0  0
  -28.4690   -0.7850   29.8287 C   0  0  0  0  0  0  0  0  0  0  0  0
  -27.0871    0.2903   28.6377 C   0  0  0  0  0  0  0  0  0  0  0  0
  -26.8317    1.2487   29.5869 C   0  0  0  0  0  0  0  0  0  0  0  0
  -28.3914    0.0801   31.0065 C   0  0  0  0  0  0  0  0  0  0  0  0
  -27.4940    1.1521   30.7841 C   0  0  0  0  0  0  0  0  0  0  0  0
  -26.3109    0.3918   27.3640 C   0  0  0  0  0  0  0  0  0  0  0  0
  -25.1298    0.0734   27.3738 N   0  0  0  0  0  0  0  0  0  0  0  0
  -26.8964    0.7261   26.2951 O   0  0  0  0  0  0  0  0  0  0  0  0
  -24.2400    0.2466   26.1990 C   0  0  0  0  0  0  0  0  0  0  0  0
  -24.3524   -0.4204   28.5114 C   0  0  0  0  0  0  0  0  0  0  0  0
  -23.1668    0.2816   28.9293 C   0  0  0  0  0  0  0  0  0  0  0  0
  -22.3459   -0.3341   29.8906 C   0  0  0  0  0  0  0  0  0  0  0  0
  3  7  1  0
  7  8  1  0
  7  9  2  0
  8 10  1  0
  8 11  1  0
 11 12  2  3
 12 13  1  0
  1  2  2  0
  2  5  1  0
  5  6  2  0
  6  4  1  0
  4  3  2  0
  3  1  1  0
M  END

$$$$
