No_287-gen_results/8p0m/2024-11-26-14-13-15/
     RDKit          3D

 35 37  0  0  0  0  0  0  0  0999 V2000
  -28.0162   -0.8135   28.8779 C   0  0  0  0  0  0  0  0  0  0  0  0
  -28.4690   -0.7850   29.8287 C   0  0  0  0  0  0  0  0  0  0  0  0
  -26.5455   -0.8762   28.8500 C   0  0  0  0  0  0  0  0  0  0  0  0
  -25.8041   -1.0324   30.0571 C   0  0  0  0  0  0  0  0  0  0  0  0
  -27.9437   -0.9869   31.2075 C   0  0  0  0  0  0  0  0  0  0  0  0
  -26.5825   -1.0386   31.2231 C   0  0  0  0  0  0  0  0  0  0  0  0
  -30.0606   -0.7371   29.9024 C   0  0  0  0  0  0  0  0  0  0  0  0
  -30.7252   -1.5544   30.2697 O   0  0  0  0  0  0  0  0  0  0  0  0
  -30.5563    0.4242   29.3124 N   0  0  0  0  0  0  0  0  0  0  0  0
  -31.9645    0.5638   29.1626 C   0  0  0  0  0  0  0  0  0  0  0  0
  -32.7762    0.4546   29.7383 C   0  0  0  0  0  0  0  0  0  0  0  0
  -32.1006    1.0961   27.7187 C   0  0  0  0  0  0  0  0  0  0  0  0
  -33.6384    1.3225   27.1398 P   0  0  0  0  0  0  0  0  0  0  0  0
  -33.7424    1.8939   25.9983 O   0  0  0  0  0  0  0  0  0  0  0  0
  -34.1858   -0.1578   27.0857 O   0  0  0  0  0  0  0  0  0  0  0  0
  -34.4203    2.0494   28.2581 O   0  0  0  0  0  0  0  0  0  0  0  0
  -24.3680   -1.0960   30.0691 C   0  0  0  0  0  0  0  0  0  0  0  0
  -23.7341    0.1654   30.0827 N   0  0  0  0  0  0  0  0  0  0  0  0
  -22.5763    0.4138   29.3832 C   0  0  0  0  0  0  0  0  0  0  0  0
  -24.2473    1.2334   30.8316 C   0  0  0  0  0  0  0  0  0  0  0  0
  -22.5976    0.6343   28.0150 C   0  0  0  0  0  0  0  0  0  0  0  0
  -23.7243    0.9840   27.3748 C   0  0  0  0  0  0  0  0  0  0  0  0
  -23.6945    1.7487   26.2052 C   0  0  0  0  0  0  0  0  0  0  0  0
  -22.4461    2.1876   25.7060 C   0  0  0  0  0  0  0  0  0  0  0  0
  -21.3414    2.0383   26.4954 C   0  0  0  0  0  0  0  0  0  0  0  0
  -21.3861    1.3885   27.6636 C   0  0  0  0  0  0  0  0  0  0  0  0
  -25.2630    1.1083   31.7602 C   0  0  0  0  0  0  0  0  0  0  0  0
  -26.0534    2.2405   32.0019 C   0  0  0  0  0  0  0  0  0  0  0  0
  -27.1617    2.1718   32.9272 C   0  0  0  0  0  0  0  0  0  0  0  0
  -28.1513    3.1093   32.8711 C   0  0  0  0  0  0  0  0  0  0  0  0
  -29.3448    2.9454   33.6331 C   0  0  0  0  0  0  0  0  0  0  0  0
  -29.4037    1.8203   34.5062 C   0  0  0  0  0  0  0  0  0  0  0  0
  -28.4256    0.9144   34.5801 C   0  0  0  0  0  0  0  0  0  0  0  0
  -27.2804    1.0592   33.7950 C   0  0  0  0  0  0  0  0  0  0  0  0
  -23.4144    2.2465   31.0280 O   0  0  0  0  0  0  0  0  0  0  0  0
  2  7  1  0
  7  8  2  0
  7  9  1  0
  9 10  1  0
 10 11  2  0
 10 12  1  0
 12 13  1  0
 13 14  2  0
 13 15  1  0
 13 16  1  0
  4 17  1  0
 17 18  1  0
 18 19  1  0
 18 20  1  0
 19 21  1  0
 20 27  1  0
 27 28  2  3
 28 29  1  0
 20 35  2  0
 29 30  2  0
 30 31  1  0
 31 32  2  0
 32 33  1  0
 33 34  2  0
 34 29  1  0
  1  2  2  0
  2  5  1  0
  5  6  2  0
  6  4  1  0
  4  3  2  0
  3  1  1  0
 21 22  2  0
 22 23  1  0
 23 24  2  0
 24 25  1  0
 25 26  2  0
 26 21  1  0
M  END

$$$$
