No_2617-gen_results/8p0m/2024-11-26-14-13-15/
     RDKit          3D

 15 16  0  0  0  0  0  0  0  0999 V2000
  -28.0162   -0.8135   28.8779 C   0  0  0  0  0  0  0  0  0  0  0  0
  -28.4690   -0.7850   29.8287 C   0  0  0  0  0  0  0  0  0  0  0  0
  -27.1356    0.2359   28.5352 C   0  0  0  0  0  0  0  0  0  0  0  0
  -26.8745    1.2825   29.3982 C   0  0  0  0  0  0  0  0  0  0  0  0
  -27.5070    1.2380   30.6295 C   0  0  0  0  0  0  0  0  0  0  0  0
  -28.3293    0.1745   30.9350 C   0  0  0  0  0  0  0  0  0  0  0  0
  -26.4409    0.0880   27.2474 C   0  0  0  0  0  0  0  0  0  0  0  0
  -26.9306    0.6938   26.0589 C   0  0  0  0  0  0  0  0  0  0  0  0
  -25.1027   -0.4086   27.1966 C   0  0  0  0  0  0  0  0  0  0  0  0
  -26.3345    0.3878   24.8582 C   0  0  0  0  0  0  0  0  0  0  0  0
  -24.5083   -0.8844   28.5081 C   0  0  0  0  0  0  0  0  0  0  0  0
  -24.9788   -0.1297   24.8835 C   0  0  0  0  0  0  0  0  0  0  0  0
  -24.4248   -0.4656   26.0345 C   0  0  0  0  0  0  0  0  0  0  0  0
  -23.4095   -0.0545   28.9650 C   0  0  0  0  0  0  0  0  0  0  0  0
  -22.7167   -0.5452   30.0906 C   0  0  0  0  0  0  0  0  0  0  0  0
  3  7  1  0
  9 11  1  0
 11 14  2  3
 14 15  1  0
  1  2  2  0
  2  6  1  0
  6  5  2  0
  5  4  1  0
  4  3  2  0
  3  1  1  0
  7  8  2  0
  8 10  1  0
 10 12  2  0
 12 13  1  0
 13  9  2  0
  9  7  1  0
M  END

$$$$
