No_2567-gen_results/8p0m/2024-11-26-14-13-15/
     RDKit          3D

 35 37  0  0  0  0  0  0  0  0999 V2000
  -28.1229   -1.3353   28.4874 O   0  0  0  0  0  0  0  0  0  0  0  0
  -27.4806   -0.4044   28.7094 C   0  0  0  0  0  0  0  0  0  0  0  0
  -27.1904    0.2460   29.5268 C   0  0  0  0  0  0  0  0  0  0  0  0
  -26.8157    0.1371   27.4262 N   0  0  0  0  0  0  0  0  0  0  0  0
  -26.3550    1.4196   29.7643 C   0  0  0  0  0  0  0  0  0  0  0  0
  -26.0125    1.2307   27.4050 C   0  0  0  0  0  0  0  0  0  0  0  0
  -25.7456    1.9087   28.5801 C   0  0  0  0  0  0  0  0  0  0  0  0
  -27.7372   -0.2154   30.9909 C   0  0  0  0  0  0  0  0  0  0  0  0
  -27.0235   -0.4735   31.9213 C   0  0  0  0  0  0  0  0  0  0  0  0
  -26.4679   -0.1738   32.8224 C   0  0  0  0  0  0  0  0  0  0  0  0
  -26.8347    0.4590   34.1281 C   0  0  0  0  0  0  0  0  0  0  0  0
  -27.8425    0.8173   34.1938 C   0  0  0  0  0  0  0  0  0  0  0  0
  -28.3298    1.5809   35.4474 C   0  0  0  0  0  0  0  0  0  0  0  0
  -27.4042    1.7007   36.3938 C   0  0  0  0  0  0  0  0  0  0  0  0
  -26.1700    1.1172   36.3141 C   0  0  0  0  0  0  0  0  0  0  0  0
  -25.7689    0.4831   35.2067 C   0  0  0  0  0  0  0  0  0  0  0  0
  -29.1300   -0.6560   30.8569 C   0  0  0  0  0  0  0  0  0  0  0  0
  -25.2895    1.7162   25.9607 Cl  0  0  0  0  0  0  0  0  0  0  0  0
  -30.0268    0.2208   30.5322 N   0  0  0  0  0  0  0  0  0  0  0  0
  -30.1590    1.3917   31.0328 C   0  0  0  0  0  0  0  0  0  0  0  0
  -30.4743    2.5141   30.3839 C   0  0  0  0  0  0  0  0  0  0  0  0
  -31.0234    2.5379   29.1854 C   0  0  0  0  0  0  0  0  0  0  0  0
  -31.1769    1.1820   28.6244 C   0  0  0  0  0  0  0  0  0  0  0  0
  -31.2476   -0.0796   29.6350 C   0  0  0  0  0  0  0  0  0  0  0  0
  -29.5049   -1.7955   31.2043 O   0  0  0  0  0  0  0  0  0  0  0  0
  -30.1867    3.9180   30.9822 C   0  0  0  0  0  0  0  0  0  0  0  0
  -29.3637    4.5043   30.8269 O   0  0  0  0  0  0  0  0  0  0  0  0
  -31.1742    4.2505   31.8943 O   0  0  0  0  0  0  0  0  0  0  0  0
  -29.6960    2.1751   35.4473 C   0  0  0  0  0  0  0  0  0  0  0  0
  -30.5831    1.6775   34.8373 O   0  0  0  0  0  0  0  0  0  0  0  0
  -29.8807    3.2809   36.1439 O   0  0  0  0  0  0  0  0  0  0  0  0
  -24.8549   -0.3848   32.7510 C   0  0  0  0  0  0  0  0  0  0  0  0
  -24.1197    0.3791   31.9934 N   0  0  0  0  0  0  0  0  0  0  0  0
  -24.0920    1.6943   31.9774 C   0  0  0  0  0  0  0  0  0  0  0  0
  -23.5159   -0.1842   30.8352 C   0  0  0  0  0  0  0  0  0  0  0  0
  1  2  2  0
  2  3  1  0
  2  4  1  0
  4  6  1  0
  5  7  1  0
  3  8  1  0
  8  9  2  3
  9 10  1  0
  8 17  1  0
  6 18  1  0
 17 19  1  0
 19 20  1  0
 21 22  1  0
 22 23  3  0
 19 24  1  0
 23 24  1  0
 17 25  2  0
 21 26  1  0
 26 27  1  0
 26 28  2  0
 13 29  1  0
 29 30  2  0
 29 31  1  0
 10 32  1  0
 32 33  1  0
 33 34  1  0
 33 35  1  0
 10 11  1  0
 20 21  1  0
  3  5  1  0
  7  6  1  0
 11 12  2  0
 12 13  1  0
 13 14  2  0
 14 15  1  0
 15 16  2  0
 16 11  1  0
M  END

$$$$
