No_2925-gen_results/8p0m/2024-11-26-14-13-15/
     RDKit          3D

 14 15  0  0  0  0  0  0  0  0999 V2000
  -28.0727   -1.2542   28.5316 F   0  0  0  0  0  0  0  0  0  0  0  0
  -27.3591   -0.3792   28.7224 C   0  0  0  0  0  0  0  0  0  0  0  0
  -26.3323   -0.6441   29.4520 C   0  0  0  0  0  0  0  0  0  0  0  0
  -25.2562    0.3203   29.7818 C   0  0  0  0  0  0  0  0  0  0  0  0
  -25.4242    1.6275   29.2026 C   0  0  0  0  0  0  0  0  0  0  0  0
  -26.5263    1.8254   28.4032 C   0  0  0  0  0  0  0  0  0  0  0  0
  -27.4513    0.8601   28.1355 C   0  0  0  0  0  0  0  0  0  0  0  0
  -28.5399    1.2022   27.2448 C   0  0  0  0  0  0  0  0  0  0  0  0
  -28.4879    1.9424   26.2706 N   0  0  0  0  0  0  0  0  0  0  0  0
  -29.3133    0.0268   26.8113 C   0  0  0  0  0  0  0  0  0  0  0  0
  -30.2523    0.2114   25.7692 C   0  0  0  0  0  0  0  0  0  0  0  0
  -29.3555    2.2922   25.3004 C   0  0  0  0  0  0  0  0  0  0  0  0
  -30.2774    1.3472   25.0254 C   0  0  0  0  0  0  0  0  0  0  0  0
  -28.7585   -0.9965   26.9198 O   0  0  0  0  0  0  0  0  0  0  0  0
  1  2  1  0
  7  8  1  0
  8 10  1  0
 10 11  1  0
  9 12  1  0
 11 13  1  0
 12 13  1  0
 10 14  2  0
  8  9  1  0
  2  3  2  0
  3  4  1  0
  4  5  2  0
  5  6  1  0
  6  7  2  0
  7  2  1  0
M  END

$$$$
