No_2320-gen_results/8p0m/2024-11-26-14-13-15/
     RDKit          3D

 15 16  0  0  0  0  0  0  0  0999 V2000
  -28.0162   -0.8135   28.8779 C   0  0  0  0  0  0  0  0  0  0  0  0
  -28.4690   -0.7850   29.8287 C   0  0  0  0  0  0  0  0  0  0  0  0
  -27.1356    0.2359   28.5352 C   0  0  0  0  0  0  0  0  0  0  0  0
  -26.8050    1.0509   29.2763 C   0  0  0  0  0  0  0  0  0  0  0  0
  -28.2372    0.1503   30.9300 C   0  0  0  0  0  0  0  0  0  0  0  0
  -27.3522    1.1239   30.6071 C   0  0  0  0  0  0  0  0  0  0  0  0
  -26.4616    0.1962   27.1371 C   0  0  0  0  0  0  0  0  0  0  0  0
  -25.9624    1.4315   26.6948 C   0  0  0  0  0  0  0  0  0  0  0  0
  -25.1071    1.5549   25.9168 C   0  0  0  0  0  0  0  0  0  0  0  0
  -24.2923    0.4372   25.4182 C   0  0  0  0  0  0  0  0  0  0  0  0
  -25.0917   -0.7250   25.6191 C   0  0  0  0  0  0  0  0  0  0  0  0
  -25.8565   -0.8850   26.6039 C   0  0  0  0  0  0  0  0  0  0  0  0
  -27.0289    2.2499   31.5555 C   0  0  0  0  0  0  0  0  0  0  0  0
  -26.1068    2.9539   31.3834 C   0  0  0  0  0  0  0  0  0  0  0  0
  -25.1723    2.8369   30.3489 C   0  0  0  0  0  0  0  0  0  0  0  0
  3  7  1  0
  6 13  1  0
 13 14  2  3
 14 15  1  0
  1  2  2  0
  2  5  1  0
  5  6  2  0
  6  4  1  0
  4  3  2  0
  3  1  1  0
  7  8  2  0
  8  9  1  0
  9 10  2  0
 10 11  1  0
 11 12  2  0
 12  7  1  0
M  END

$$$$
