No_229-gen_results/8p0m/2024-11-26-14-13-15/
     RDKit          3D

 34 36  0  0  0  0  0  0  0  0999 V2000
  -28.0162   -0.8135   28.8779 C   0  0  0  0  0  0  0  0  0  0  0  0
  -27.0636   -0.1189   28.6079 C   0  0  0  0  0  0  0  0  0  0  0  0
  -27.0010    0.6913   27.4910 C   0  0  0  0  0  0  0  0  0  0  0  0
  -28.1373    0.7363   26.6350 C   0  0  0  0  0  0  0  0  0  0  0  0
  -29.2360    0.0765   27.0690 C   0  0  0  0  0  0  0  0  0  0  0  0
  -29.2177   -0.6429   28.1747 C   0  0  0  0  0  0  0  0  0  0  0  0
  -30.6116    0.1653   26.0711 Cl  0  0  0  0  0  0  0  0  0  0  0  0
  -25.6201   -0.1214   29.2332 C   0  0  0  0  0  0  0  0  0  0  0  0
  -24.6258    0.5180   28.8340 C   0  0  0  0  0  0  0  0  0  0  0  0
  -24.7046    1.3584   27.6759 C   0  0  0  0  0  0  0  0  0  0  0  0
  -25.8070    1.4132   26.9751 C   0  0  0  0  0  0  0  0  0  0  0  0
  -23.4771    2.1287   27.2896 C   0  0  0  0  0  0  0  0  0  0  0  0
  -22.7456    2.6219   28.2444 N   0  0  0  0  0  0  0  0  0  0  0  0
  -23.2832    2.4703   26.0898 O   0  0  0  0  0  0  0  0  0  0  0  0
  -28.0402   -1.6031   30.0139 O   0  0  0  0  0  0  0  0  0  0  0  0
  -28.8912   -2.6484   30.1820 C   0  0  0  0  0  0  0  0  0  0  0  0
  -28.9774   -2.9422   31.6591 C   0  0  0  0  0  0  0  0  0  0  0  0
  -30.3013   -2.6785   32.1402 C   0  0  0  0  0  0  0  0  0  0  0  0
  -31.1048   -3.5621   32.0975 C   0  0  0  0  0  0  0  0  0  0  0  0
  -32.5090   -3.4047   32.5382 C   0  0  0  0  0  0  0  0  0  0  0  0
  -32.8047   -2.1614   33.1544 C   0  0  0  0  0  0  0  0  0  0  0  0
  -31.8607   -1.1829   33.2456 C   0  0  0  0  0  0  0  0  0  0  0  0
  -30.5588   -1.4017   32.7869 C   0  0  0  0  0  0  0  0  0  0  0  0
  -32.1722    0.1315   33.8865 C   0  0  0  0  0  0  0  0  0  0  0  0
  -31.8960    1.0561   33.5408 O   0  0  0  0  0  0  0  0  0  0  0  0
  -32.8589   -0.0556   35.0390 O   0  0  0  0  0  0  0  0  0  0  0  0
  -28.5036   -4.2654   31.8993 O   0  0  0  0  0  0  0  0  0  0  0  0
  -29.0751   -0.2963   33.1016 Br  0  0  0  0  0  0  0  0  0  0  0  0
  -33.4936   -4.3996   32.3446 C   0  0  0  0  0  0  0  0  0  0  0  0
  -34.4744   -4.5787   32.7238 O   0  0  0  0  0  0  0  0  0  0  0  0
  -32.9657   -5.4652   31.6892 O   0  0  0  0  0  0  0  0  0  0  0  0
  -33.6038   -6.0150   30.6446 C   0  0  0  0  0  0  0  0  0  0  0  0
  -33.9872   -5.7642   29.6941 C   0  0  0  0  0  0  0  0  0  0  0  0
  -34.5657   -6.5192   28.6491 C   0  0  0  0  0  0  0  0  0  0  0  0
  5  7  1  0
 10 12  1  0
 12 13  1  0
 12 14  2  0
  1 15  1  0
 15 16  1  0
 16 17  1  0
 17 18  1  0
 22 24  1  0
 24 25  2  0
 24 26  1  0
 17 27  1  0
 23 28  1  0
 20 29  1  0
 29 30  2  0
 29 31  1  0
 31 32  1  0
 32 33  2  3
 33 34  1  0
 18 19  2  0
 19 20  1  0
 20 21  2  0
 21 22  1  0
 22 23  2  0
 23 18  1  0
  1  2  2  0
  3  4  2  0
  4  5  1  0
  5  6  2  0
  6  1  1  0
  2  3  1  0
  3 11  1  0
 11 10  2  0
 10  9  1  0
  9  8  2  0
  8  2  1  0
M  END

$$$$
