No_2855-gen_results/8p0m/2024-11-26-14-13-15/
     RDKit          3D

 16 17  0  0  0  0  0  0  0  0999 V2000
  -28.0162   -0.8135   28.8779 C   0  0  0  0  0  0  0  0  0  0  0  0
  -28.4690   -0.7850   29.8287 C   0  0  0  0  0  0  0  0  0  0  0  0
  -27.1356    0.2359   28.5352 C   0  0  0  0  0  0  0  0  0  0  0  0
  -26.8745    1.2825   29.3982 C   0  0  0  0  0  0  0  0  0  0  0  0
  -28.3613    0.1987   30.9244 C   0  0  0  0  0  0  0  0  0  0  0  0
  -27.5277    1.2234   30.6356 C   0  0  0  0  0  0  0  0  0  0  0  0
  -26.3879    0.2914   27.2334 C   0  0  0  0  0  0  0  0  0  0  0  0
  -25.1510    0.3034   27.2565 C   0  0  0  0  0  0  0  0  0  0  0  0
  -24.4003    0.9473   26.1454 C   0  0  0  0  0  0  0  0  0  0  0  0
  -23.0443    1.2950   26.2840 C   0  0  0  0  0  0  0  0  0  0  0  0
  -22.3647    1.0314   27.5108 C   0  0  0  0  0  0  0  0  0  0  0  0
  -23.1141    0.4233   28.5657 C   0  0  0  0  0  0  0  0  0  0  0  0
  -24.4445    0.1500   28.4732 C   0  0  0  0  0  0  0  0  0  0  0  0
  -27.1600    0.5395   26.2269 O   0  0  0  0  0  0  0  0  0  0  0  0
  -22.2888    0.2100   29.7981 C   0  0  0  0  0  0  0  0  0  0  0  0
  -22.3608   -0.8256   30.2592 O   0  0  0  0  0  0  0  0  0  0  0  0
  3  7  1  0
  7  8  1  0
  7 14  2  0
 12 15  1  0
 15 16  2  0
  8  9  2  0
  9 10  1  0
 10 11  2  0
 11 12  1  0
 12 13  2  0
 13  8  1  0
  1  2  2  0
  2  5  1  0
  5  6  2  0
  6  4  1  0
  4  3  2  0
  3  1  1  0
M  END

$$$$
