No_2166-gen_results/8p0m/2024-11-26-14-13-15/
     RDKit          3D

 35 38  0  0  0  0  0  0  0  0999 V2000
  -28.0162   -0.8135   28.8779 C   0  0  0  0  0  0  0  0  0  0  0  0
  -27.0636   -0.1189   28.6079 C   0  0  0  0  0  0  0  0  0  0  0  0
  -27.0010    0.6913   27.4910 C   0  0  0  0  0  0  0  0  0  0  0  0
  -28.1373    0.7363   26.6350 C   0  0  0  0  0  0  0  0  0  0  0  0
  -29.2360    0.0765   27.0690 C   0  0  0  0  0  0  0  0  0  0  0  0
  -29.2177   -0.6429   28.1747 C   0  0  0  0  0  0  0  0  0  0  0  0
  -30.5230    0.0808   26.3695 C   0  0  0  0  0  0  0  0  0  0  0  0
  -31.5258   -0.5092   26.8653 C   0  0  0  0  0  0  0  0  0  0  0  0
  -31.4431   -1.2187   28.0906 C   0  0  0  0  0  0  0  0  0  0  0  0
  -30.3267   -1.3002   28.7343 C   0  0  0  0  0  0  0  0  0  0  0  0
  -25.8512    1.3407   27.1028 F   0  0  0  0  0  0  0  0  0  0  0  0
  -27.9127   -1.5277   30.0745 O   0  0  0  0  0  0  0  0  0  0  0  0
  -27.8021   -1.0935   31.3243 C   0  0  0  0  0  0  0  0  0  0  0  0
  -32.5862   -1.8471   28.5318 O   0  0  0  0  0  0  0  0  0  0  0  0
  -28.0796    1.4971   25.5490 O   0  0  0  0  0  0  0  0  0  0  0  0
  -33.1569   -2.7312   28.0589 C   0  0  0  0  0  0  0  0  0  0  0  0
  -32.6295   -3.9521   28.0299 C   0  0  0  0  0  0  0  0  0  0  0  0
  -31.8938   -4.4029   28.7834 O   0  0  0  0  0  0  0  0  0  0  0  0
  -32.8419   -4.7289   26.9290 O   0  0  0  0  0  0  0  0  0  0  0  0
  -34.3188   -2.4889   27.5503 O   0  0  0  0  0  0  0  0  0  0  0  0
  -28.4087    2.6544   25.5763 C   0  0  0  0  0  0  0  0  0  0  0  0
  -31.1423   -5.6815   28.7618 C   0  0  0  0  0  0  0  0  0  0  0  0
  -30.4740   -5.9281   29.9816 C   0  0  0  0  0  0  0  0  0  0  0  0
  -29.7150   -4.8265   30.5082 C   0  0  0  0  0  0  0  0  0  0  0  0
  -29.0107   -4.9992   31.7511 C   0  0  0  0  0  0  0  0  0  0  0  0
  -29.3437   -6.1058   32.4908 C   0  0  0  0  0  0  0  0  0  0  0  0
  -30.1401   -7.1332   31.9673 C   0  0  0  0  0  0  0  0  0  0  0  0
  -30.7430   -6.9712   30.7761 C   0  0  0  0  0  0  0  0  0  0  0  0
  -31.6203   -7.8832   30.1472 C   0  0  0  0  0  0  0  0  0  0  0  0
  -31.6745   -8.9343   30.1884 C   0  0  0  0  0  0  0  0  0  0  0  0
  -32.3568   -9.9301   29.6596 C   0  0  0  0  0  0  0  0  0  0  0  0
  -33.2898   -9.5034   28.6626 C   0  0  0  0  0  0  0  0  0  0  0  0
  -33.3600   -8.1394   28.4347 C   0  0  0  0  0  0  0  0  0  0  0  0
  -32.4986   -7.2849   29.1463 C   0  0  0  0  0  0  0  0  0  0  0  0
  -31.2751   -6.4345   27.9913 O   0  0  0  0  0  0  0  0  0  0  0  0
  3 11  1  0
  1 12  1  0
 12 13  1  0
  9 14  1  0
  4 15  1  0
 14 16  1  0
 16 17  1  0
 17 18  1  0
 17 19  2  0
 16 20  2  0
 15 21  1  0
 18 22  1  0
 22 23  1  0
 28 29  1  0
 22 35  1  0
 29 30  2  0
 30 31  1  0
 31 32  2  0
 32 33  1  0
 33 34  2  0
 34 29  1  0
  1  2  2  0
  2  3  1  0
  3  4  2  0
  4  5  1  0
  6  1  1  0
 23 24  2  0
 24 25  1  0
 25 26  2  0
 26 27  1  0
 27 28  2  0
 28 23  1  0
  5  6  2  0
  6 10  1  0
 10  9  2  0
  9  8  1  0
  8  7  2  0
  7  5  1  0
M  END

$$$$
