No_2347-gen_results/8p0m/2024-11-26-14-13-15/
     RDKit          3D

 34 36  0  0  0  0  0  0  0  0999 V2000
  -28.0162   -0.8135   28.8779 C   0  0  0  0  0  0  0  0  0  0  0  0
  -28.4690   -0.7850   29.8287 C   0  0  0  0  0  0  0  0  0  0  0  0
  -27.1356    0.2359   28.5352 C   0  0  0  0  0  0  0  0  0  0  0  0
  -26.8745    1.2825   29.3982 C   0  0  0  0  0  0  0  0  0  0  0  0
  -27.5070    1.2380   30.6295 C   0  0  0  0  0  0  0  0  0  0  0  0
  -28.3293    0.1745   30.9350 C   0  0  0  0  0  0  0  0  0  0  0  0
  -26.4409    0.0880   27.2474 C   0  0  0  0  0  0  0  0  0  0  0  0
  -25.0343    0.0636   27.2973 C   0  0  0  0  0  0  0  0  0  0  0  0
  -27.0476    0.3155   26.0022 C   0  0  0  0  0  0  0  0  0  0  0  0
  -28.4101    0.4681   25.8993 C   0  0  0  0  0  0  0  0  0  0  0  0
  -28.9317    0.4935   24.5982 C   0  0  0  0  0  0  0  0  0  0  0  0
  -30.3309    0.5901   24.4426 C   0  0  0  0  0  0  0  0  0  0  0  0
  -31.1353    0.5691   25.5053 C   0  0  0  0  0  0  0  0  0  0  0  0
  -30.6046    0.4890   26.8009 C   0  0  0  0  0  0  0  0  0  0  0  0
  -29.2930    0.4583   27.0020 C   0  0  0  0  0  0  0  0  0  0  0  0
  -26.2186    0.2483   24.8624 C   0  0  0  0  0  0  0  0  0  0  0  0
  -31.4637    0.1985   27.9545 C   0  0  0  0  0  0  0  0  0  0  0  0
  -31.5886    1.0471   28.8914 O   0  0  0  0  0  0  0  0  0  0  0  0
  -31.8838   -0.9745   28.1791 O   0  0  0  0  0  0  0  0  0  0  0  0
  -24.4301   -0.3395   28.5561 C   0  0  0  0  0  0  0  0  0  0  0  0
  -23.1681    0.0237   28.8689 C   0  0  0  0  0  0  0  0  0  0  0  0
  -22.5307   -0.5852   29.9984 C   0  0  0  0  0  0  0  0  0  0  0  0
  -23.3078   -1.4131   30.7929 C   0  0  0  0  0  0  0  0  0  0  0  0
  -24.6307   -1.7295   30.5091 C   0  0  0  0  0  0  0  0  0  0  0  0
  -25.1411   -1.2023   29.3829 C   0  0  0  0  0  0  0  0  0  0  0  0
  -25.9649    2.4077   29.1241 C   0  0  0  0  0  0  0  0  0  0  0  0
  -25.5851    3.0769   29.9639 O   0  0  0  0  0  0  0  0  0  0  0  0
  -25.9475    2.8415   27.8447 O   0  0  0  0  0  0  0  0  0  0  0  0
  -25.0747    3.8879   27.5622 C   0  0  0  0  0  0  0  0  0  0  0  0
  -29.6538   -2.0837   30.4246 Cl  0  0  0  0  0  0  0  0  0  0  0  0
  -24.3653    3.5247   26.3213 C   0  0  0  0  0  0  0  0  0  0  0  0
  -22.3199    0.9075   28.0483 C   0  0  0  0  0  0  0  0  0  0  0  0
  -22.8146    1.8371   27.3453 O   0  0  0  0  0  0  0  0  0  0  0  0
  -21.0611    0.9189   28.3246 O   0  0  0  0  0  0  0  0  0  0  0  0
  3  7  1  0
  7  8  1  0
  7  9  1  0
  9 10  1  0
  9 16  1  0
 14 17  1  0
 17 18  2  0
 17 19  1  0
  8 20  1  0
  4 26  1  0
 26 27  2  0
 26 28  1  0
 28 29  1  0
  2 30  1  0
 29 31  1  0
 21 32  1  0
 32 33  2  0
 32 34  1  0
  1  2  2  0
  2  6  1  0
  6  5  2  0
  5  4  1  0
  4  3  2  0
  3  1  1  0
 10 11  2  0
 11 12  1  0
 12 13  2  0
 13 14  1  0
 14 15  2  0
 15 10  1  0
 20 21  2  0
 21 22  1  0
 22 23  2  0
 23 24  1  0
 24 25  2  0
 25 20  1  0
M  END

$$$$
