No_258-gen_results/8p0m/2024-11-26-14-13-15/
     RDKit          3D

 35 37  0  0  0  0  0  0  0  0999 V2000
  -28.0162   -0.8135   28.8779 C   0  0  0  0  0  0  0  0  0  0  0  0
  -28.4690   -0.7850   29.8287 C   0  0  0  0  0  0  0  0  0  0  0  0
  -28.1960    0.3478   28.0550 C   0  0  0  0  0  0  0  0  0  0  0  0
  -27.4421    0.5100   26.7946 C   0  0  0  0  0  0  0  0  0  0  0  0
  -27.8427    1.3330   25.8056 C   0  0  0  0  0  0  0  0  0  0  0  0
  -29.4956    0.1092   30.3452 C   0  0  0  0  0  0  0  0  0  0  0  0
  -29.7284    1.1870   29.5687 C   0  0  0  0  0  0  0  0  0  0  0  0
  -29.0420    1.3665   28.3718 C   0  0  0  0  0  0  0  0  0  0  0  0
  -26.1281   -0.0671   26.6257 C   0  0  0  0  0  0  0  0  0  0  0  0
  -25.0056    0.6927   27.1660 C   0  0  0  0  0  0  0  0  0  0  0  0
  -24.1612    0.3331   28.1909 C   0  0  0  0  0  0  0  0  0  0  0  0
  -23.0144    1.1006   28.4705 C   0  0  0  0  0  0  0  0  0  0  0  0
  -22.4489    1.7298   27.6970 C   0  0  0  0  0  0  0  0  0  0  0  0
  -24.5804    1.8481   26.3511 C   0  0  0  0  0  0  0  0  0  0  0  0
  -23.2546    2.3001   26.5674 C   0  0  0  0  0  0  0  0  0  0  0  0
  -28.4901    0.7685   24.7750 C   0  0  0  0  0  0  0  0  0  0  0  0
  -27.7791    2.7744   25.8898 C   0  0  0  0  0  0  0  0  0  0  0  0
  -29.6145    0.8384   24.6516 C   0  0  0  0  0  0  0  0  0  0  0  0
  -30.3315    0.3260   23.5299 C   0  0  0  0  0  0  0  0  0  0  0  0
  -31.7420    0.3995   23.4942 C   0  0  0  0  0  0  0  0  0  0  0  0
  -32.4469    1.1055   24.4475 C   0  0  0  0  0  0  0  0  0  0  0  0
  -31.8188    1.7042   25.4749 C   0  0  0  0  0  0  0  0  0  0  0  0
  -30.5066    1.5936   25.6475 C   0  0  0  0  0  0  0  0  0  0  0  0
  -27.5614    0.1122   23.8120 C   0  0  0  0  0  0  0  0  0  0  0  0
  -32.7132    2.3914   26.4850 C   0  0  0  0  0  0  0  0  0  0  0  0
  -32.1742    3.2908   27.1682 F   0  0  0  0  0  0  0  0  0  0  0  0
  -33.2006    1.4621   27.3579 F   0  0  0  0  0  0  0  0  0  0  0  0
  -33.7248    2.9746   25.8305 F   0  0  0  0  0  0  0  0  0  0  0  0
  -30.7359    2.2619   30.0086 C   0  0  0  0  0  0  0  0  0  0  0  0
  -30.7248    2.6758   31.1285 N   0  0  0  0  0  0  0  0  0  0  0  0
  -30.9610    3.7265   31.6482 C   0  0  0  0  0  0  0  0  0  0  0  0
  -31.0199    3.9797   32.8744 O   0  0  0  0  0  0  0  0  0  0  0  0
  -31.3119    4.9327   30.7074 C   0  0  0  0  0  0  0  0  0  0  0  0
  -30.9007    6.0205   31.1884 C   0  0  0  0  0  0  0  0  0  0  0  0
  -31.3315    7.0708   30.4385 C   0  0  0  0  0  0  0  0  0  0  0  0
  3  4  1  0
  4  5  1  0
  4  9  1  0
  9 10  1  0
  5 16  2  3
  5 17  1  0
 16 18  1  0
 16 24  1  0
 22 25  1  0
 25 26  1  0
 25 27  1  0
 25 28  1  0
  7 29  1  0
 29 30  1  0
 30 31  1  0
 31 32  2  0
 31 33  1  0
 33 34  1  0
 34 35  2  0
 18 19  2  0
 19 20  1  0
 20 21  2  0
 21 22  1  0
 22 23  2  0
 23 18  1  0
 10 11  2  0
 11 12  1  0
 12 13  2  0
 13 15  1  0
 15 14  2  0
 14 10  1  0
  1  2  2  0
  2  6  1  0
  6  7  2  0
  7  8  1  0
  8  3  2  0
  3  1  1  0
M  END

$$$$
