No_2330-gen_results/8p0m/2024-11-26-14-13-15/
     RDKit          3D

 21 23  0  0  0  0  0  0  0  0999 V2000
  -28.1229   -1.3353   28.4874 O   0  0  0  0  0  0  0  0  0  0  0  0
  -27.4806   -0.4044   28.7094 C   0  0  0  0  0  0  0  0  0  0  0  0
  -26.3804   -0.0867   27.9394 C   0  0  0  0  0  0  0  0  0  0  0  0
  -27.6664    0.4468   29.8988 N   0  0  0  0  0  0  0  0  0  0  0  0
  -25.1773   -0.4388   28.3946 C   0  0  0  0  0  0  0  0  0  0  0  0
  -23.9281   -0.2469   27.6677 C   0  0  0  0  0  0  0  0  0  0  0  0
  -24.0115    0.7683   26.6848 C   0  0  0  0  0  0  0  0  0  0  0  0
  -25.2436    1.2341   26.2435 C   0  0  0  0  0  0  0  0  0  0  0  0
  -26.3955    0.8712   26.8685 C   0  0  0  0  0  0  0  0  0  0  0  0
  -28.7657    0.1195   30.7687 C   0  0  0  0  0  0  0  0  0  0  0  0
  -26.8570    1.5236   30.2067 C   0  0  0  0  0  0  0  0  0  0  0  0
  -27.2502    2.5539   30.5715 C   0  0  0  0  0  0  0  0  0  0  0  0
  -26.3103    3.5692   30.9062 C   0  0  0  0  0  0  0  0  0  0  0  0
  -24.9401    3.3643   30.5942 C   0  0  0  0  0  0  0  0  0  0  0  0
  -24.5499    2.1798   30.0758 C   0  0  0  0  0  0  0  0  0  0  0  0
  -25.4722    1.2686   29.9127 C   0  0  0  0  0  0  0  0  0  0  0  0
  -24.9733    0.1018   29.5113 N   0  0  0  0  0  0  0  0  0  0  0  0
  -24.3085   -0.7428   30.6478 C   0  0  0  0  0  0  0  0  0  0  0  0
  -27.6644    1.3777   26.3402 C   0  0  0  0  0  0  0  0  0  0  0  0
  -28.4143    1.8816   26.8752 O   0  0  0  0  0  0  0  0  0  0  0  0
  -27.9045    0.9705   25.0538 O   0  0  0  0  0  0  0  0  0  0  0  0
  1  2  2  0
  2  3  1  0
  2  4  1  0
  4 10  1  0
  4 11  1  0
  5 17  1  0
 16 17  1  0
 17 18  1  0
  9 19  1  0
 19 20  2  0
 19 21  1  0
 11 12  2  0
 12 13  1  0
 13 14  2  0
 14 15  1  0
 15 16  2  0
 16 11  1  0
  3  5  2  0
  5  6  1  0
  6  7  2  0
  7  8  1  0
  8  9  2  0
  9  3  1  0
M  END

$$$$
