No_2232-gen_results/8p0m/2024-11-26-14-13-15/
     RDKit          3D

 30 31  0  0  0  0  0  0  0  0999 V2000
  -28.0162   -0.8135   28.8779 C   0  0  0  0  0  0  0  0  0  0  0  0
  -27.0636   -0.1190   28.6079 C   0  0  0  0  0  0  0  0  0  0  0  0
  -25.7923   -0.4302   29.0761 C   0  0  0  0  0  0  0  0  0  0  0  0
  -25.5756   -1.5654   29.9363 C   0  0  0  0  0  0  0  0  0  0  0  0
  -24.3722   -1.9422   30.4466 C   0  0  0  0  0  0  0  0  0  0  0  0
  -27.9640   -1.9247   29.7899 C   0  0  0  0  0  0  0  0  0  0  0  0
  -26.7624   -2.3055   30.3031 C   0  0  0  0  0  0  0  0  0  0  0  0
  -23.7002   -0.9072   31.1951 C   0  0  0  0  0  0  0  0  0  0  0  0
  -24.4051   -0.2058   32.0498 C   0  0  0  0  0  0  0  0  0  0  0  0
  -27.0960    1.0803   27.7180 C   0  0  0  0  0  0  0  0  0  0  0  0
  -26.8693    0.9399   26.4511 N   0  0  0  0  0  0  0  0  0  0  0  0
  -26.9813    1.4991   25.4933 C   0  0  0  0  0  0  0  0  0  0  0  0
  -26.8974    1.0235   24.1397 C   0  0  0  0  0  0  0  0  0  0  0  0
  -27.3874    2.9691   25.5693 C   0  0  0  0  0  0  0  0  0  0  0  0
  -27.0649    2.1947   28.3345 O   0  0  0  0  0  0  0  0  0  0  0  0
  -24.7842    1.2464   31.8975 C   0  0  0  0  0  0  0  0  0  0  0  0
  -25.5576    2.0030   32.7214 C   0  0  0  0  0  0  0  0  0  0  0  0
  -26.1582    1.3272   33.7878 C   0  0  0  0  0  0  0  0  0  0  0  0
  -25.9454   -0.0421   33.9885 C   0  0  0  0  0  0  0  0  0  0  0  0
  -25.1320   -0.7892   33.1665 C   0  0  0  0  0  0  0  0  0  0  0  0
  -24.0246    2.0034   30.8069 C   0  0  0  0  0  0  0  0  0  0  0  0
  -22.9386    1.7316   30.5248 O   0  0  0  0  0  0  0  0  0  0  0  0
  -24.7759    2.7609   29.9780 O   0  0  0  0  0  0  0  0  0  0  0  0
  -29.0615   -2.6243   30.0998 O   0  0  0  0  0  0  0  0  0  0  0  0
  -30.1752   -2.0692   30.6387 C   0  0  0  0  0  0  0  0  0  0  0  0
  -30.7598   -2.7949   31.5837 C   0  0  0  0  0  0  0  0  0  0  0  0
  -30.1448   -3.9295   32.0394 C   0  0  0  0  0  0  0  0  0  0  0  0
  -31.0797   -1.9692   32.8228 N   0  0  0  0  0  0  0  0  0  0  0  0
  -31.5897   -2.0679   33.6967 C   0  0  0  0  0  0  0  0  0  0  0  0
  -31.6696   -1.0876   34.7843 C   0  0  0  0  0  0  0  0  0  0  0  0
  5  8  1  0
  8  9  1  0
  2 10  1  0
 10 11  1  0
 11 12  1  0
 12 13  2  0
 12 14  1  0
 10 15  2  0
 16 21  1  0
 21 22  2  0
 21 23  1  0
  6 24  1  0
 24 25  1  0
 25 26  1  0
 26 27  1  0
 26 28  1  0
 28 29  1  0
 29 30  2  0
  5  4  1  0
  9 16  2  0
 16 17  1  0
 17 18  2  0
 18 19  1  0
 19 20  2  0
 20  9  1  0
  1  2  2  0
  2  3  1  0
  3  4  2  0
  4  7  1  0
  7  6  2  0
  6  1  1  0
M  END

$$$$
