No_2956-gen_results/8p0m/2024-11-26-14-13-15/
     RDKit          3D

 23 25  0  0  0  0  0  0  0  0999 V2000
  -28.0162   -0.8135   28.8779 C   0  0  0  0  0  0  0  0  0  0  0  0
  -27.0636   -0.1190   28.6079 C   0  0  0  0  0  0  0  0  0  0  0  0
  -26.9716    0.7139   27.5060 C   0  0  0  0  0  0  0  0  0  0  0  0
  -25.8205    1.4909   27.1160 C   0  0  0  0  0  0  0  0  0  0  0  0
  -24.6562    1.4242   27.9180 C   0  0  0  0  0  0  0  0  0  0  0  0
  -24.7114    0.5419   29.0507 C   0  0  0  0  0  0  0  0  0  0  0  0
  -25.8042   -0.2058   29.3881 C   0  0  0  0  0  0  0  0  0  0  0  0
  -28.7233   -0.6113   29.9885 N   0  0  0  0  0  0  0  0  0  0  0  0
  -29.8128   -1.4112   30.4034 C   0  0  0  0  0  0  0  0  0  0  0  0
  -23.3473    1.9248   27.7246 C   0  0  0  0  0  0  0  0  0  0  0  0
  -22.2818    1.6360   28.3955 N   0  0  0  0  0  0  0  0  0  0  0  0
  -23.2761    2.9689   26.7900 N   0  0  0  0  0  0  0  0  0  0  0  0
  -30.4168   -1.2090   31.6072 C   0  0  0  0  0  0  0  0  0  0  0  0
  -28.4674    0.4577   30.9211 C   0  0  0  0  0  0  0  0  0  0  0  0
  -29.0874    0.6767   32.0890 C   0  0  0  0  0  0  0  0  0  0  0  0
  -30.0995   -0.1507   32.4534 C   0  0  0  0  0  0  0  0  0  0  0  0
  -28.0829    0.8940   26.5931 C   0  0  0  0  0  0  0  0  0  0  0  0
  -28.0969    0.8021   25.4562 O   0  0  0  0  0  0  0  0  0  0  0  0
  -29.2801    0.9016   27.1990 F   0  0  0  0  0  0  0  0  0  0  0  0
  -22.1294    0.5053   29.0333 C   0  0  0  0  0  0  0  0  0  0  0  0
  -23.1152   -0.2963   29.2793 C   0  0  0  0  0  0  0  0  0  0  0  0
  -23.2170   -1.2462   30.1072 F   0  0  0  0  0  0  0  0  0  0  0  0
  -30.9388    0.0336   33.9433 Cl  0  0  0  0  0  0  0  0  0  0  0  0
  1  8  1  0
  8  9  1  0
 10 12  1  0
  8 14  1  0
 13 16  1  0
 15 16  1  0
  3 17  1  0
 17 18  2  0
 17 19  1  0
 21 22  1  0
 16 23  1  0
  1  2  1  0
  9 13  1  0
 15 14  1  0
  2  3  2  0
  3  4  1  0
  4  5  2  0
  6  7  2  0
  7  2  1  0
  5  6  1  0
  6 21  1  0
 21 20  2  0
 20 11  1  0
 11 10  2  0
 10  5  1  0
M  END

$$$$
