No_2423-gen_results/8p0m/2024-11-26-14-13-15/
     RDKit          3D

 18 18  0  0  0  0  0  0  0  0999 V2000
  -28.0162   -0.8135   28.8779 C   0  0  0  0  0  0  0  0  0  0  0  0
  -27.0636   -0.1190   28.6079 C   0  0  0  0  0  0  0  0  0  0  0  0
  -26.9287    1.1713   29.0083 C   0  0  0  0  0  0  0  0  0  0  0  0
  -25.7702    2.0341   28.6884 C   0  0  0  0  0  0  0  0  0  0  0  0
  -24.7141    1.4431   27.9188 C   0  0  0  0  0  0  0  0  0  0  0  0
  -24.8590    0.0783   27.5836 C   0  0  0  0  0  0  0  0  0  0  0  0
  -25.9647   -0.6606   27.9164 C   0  0  0  0  0  0  0  0  0  0  0  0
  -28.0410   -1.4978   30.2732 C   0  0  0  0  0  0  0  0  0  0  0  0
  -29.0412   -2.4455   30.6173 C   0  0  0  0  0  0  0  0  0  0  0  0
  -23.5346    2.1813   27.5529 C   0  0  0  0  0  0  0  0  0  0  0  0
  -22.6684    1.5681   27.0249 F   0  0  0  0  0  0  0  0  0  0  0  0
  -23.9473    3.2007   26.6691 F   0  0  0  0  0  0  0  0  0  0  0  0
  -23.0255    2.8563   28.6153 F   0  0  0  0  0  0  0  0  0  0  0  0
  -27.9470   -0.4865   31.3396 C   0  0  0  0  0  0  0  0  0  0  0  0
  -26.7150   -2.3295   30.2284 C   0  0  0  0  0  0  0  0  0  0  0  0
  -30.3075   -2.1696   30.4439 C   0  0  0  0  0  0  0  0  0  0  0  0
  -28.7399   -3.8556   30.9491 C   0  0  0  0  0  0  0  0  0  0  0  0
  -29.5433   -4.5241   31.5893 O   0  0  0  0  0  0  0  0  0  0  0  0
  1  2  1  0
  1  8  1  0
  8  9  1  0
  5 10  1  0
 10 11  1  0
 10 12  1  0
 10 13  1  0
  8 14  1  0
  8 15  1  0
  9 16  1  0
  9 17  1  0
 17 18  2  0
  2  3  2  0
  3  4  1  0
  4  5  2  0
  5  6  1  0
  6  7  2  0
  7  2  1  0
M  END

$$$$
