No_2538-gen_results/8p0m/2024-11-26-14-13-15/
     RDKit          3D

 16 17  0  0  0  0  0  0  0  0999 V2000
  -28.0162   -0.8135   28.8779 C   0  0  0  0  0  0  0  0  0  0  0  0
  -27.0636   -0.1190   28.6079 C   0  0  0  0  0  0  0  0  0  0  0  0
  -25.7923   -0.4302   29.0761 C   0  0  0  0  0  0  0  0  0  0  0  0
  -24.5456    0.3494   28.8225 C   0  0  0  0  0  0  0  0  0  0  0  0
  -23.2409    0.0217   29.3323 C   0  0  0  0  0  0  0  0  0  0  0  0
  -27.8820   -1.8995   29.8633 C   0  0  0  0  0  0  0  0  0  0  0  0
  -26.6526   -2.3142   30.3138 C   0  0  0  0  0  0  0  0  0  0  0  0
  -25.5153   -1.5607   29.9787 C   0  0  0  0  0  0  0  0  0  0  0  0
  -22.1645    0.7936   28.9524 C   0  0  0  0  0  0  0  0  0  0  0  0
  -22.1241    1.7484   27.9889 C   0  0  0  0  0  0  0  0  0  0  0  0
  -24.5235    1.3782   27.7946 C   0  0  0  0  0  0  0  0  0  0  0  0
  -23.3387    2.0417   27.4305 C   0  0  0  0  0  0  0  0  0  0  0  0
  -29.2399   -2.8440   30.3455 Cl  0  0  0  0  0  0  0  0  0  0  0  0
  -23.4491    2.9949   26.4703 O   0  0  0  0  0  0  0  0  0  0  0  0
  -24.6555    2.8093   25.7161 C   0  0  0  0  0  0  0  0  0  0  0  0
  -25.6274    1.5855   27.2419 O   0  0  0  0  0  0  0  0  0  0  0  0
  3  4  1  0
  5  9  1  0
  4 11  1  0
 10 12  1  0
 11 12  1  0
  6 13  1  0
 12 14  1  0
 14 15  1  0
 11 16  2  0
  4  5  1  0
  9 10  1  0
  1  2  2  0
  2  3  1  0
  3  8  2  0
  8  7  1  0
  7  6  2  0
  6  1  1  0
M  END

$$$$
