No_2033-gen_results/8p0m/2024-11-26-14-13-15/
     RDKit          3D

 16 16  0  0  0  0  0  0  0  0999 V2000
  -28.0162   -0.8135   28.8779 C   0  0  0  0  0  0  0  0  0  0  0  0
  -28.4690   -0.7850   29.8287 C   0  0  0  0  0  0  0  0  0  0  0  0
  -27.2166   -0.0832   27.9639 C   0  0  0  0  0  0  0  0  0  0  0  0
  -26.5094   -0.3500   26.9456 C   0  0  0  0  0  0  0  0  0  0  0  0
  -25.8221    0.6874   26.0575 C   0  0  0  0  0  0  0  0  0  0  0  0
  -25.4640    1.5136   26.5058 C   0  0  0  0  0  0  0  0  0  0  0  0
  -25.8992    2.1115   27.7469 C   0  0  0  0  0  0  0  0  0  0  0  0
  -26.6964    1.2230   28.4855 C   0  0  0  0  0  0  0  0  0  0  0  0
  -29.2312   -1.2794   30.6845 C   0  0  0  0  0  0  0  0  0  0  0  0
  -29.6835   -2.5774   30.3743 C   0  0  0  0  0  0  0  0  0  0  0  0
  -28.7268   -3.5028   30.1886 C   0  0  0  0  0  0  0  0  0  0  0  0
  -29.3698   -4.6894   29.8390 F   0  0  0  0  0  0  0  0  0  0  0  0
  -27.9827   -3.9127   31.3209 F   0  0  0  0  0  0  0  0  0  0  0  0
  -30.4463   -3.0613   31.4603 F   0  0  0  0  0  0  0  0  0  0  0  0
  -27.7656   -3.3378   29.2882 F   0  0  0  0  0  0  0  0  0  0  0  0
  -30.4285   -2.5558   29.3164 F   0  0  0  0  0  0  0  0  0  0  0  0
  1  2  3  0
  1  3  1  0
  2  9  1  0
  9 10  1  0
 10 11  1  0
 11 12  1  0
 11 13  1  0
 10 14  1  0
 11 15  1  0
 10 16  1  0
  3  4  2  0
  4  5  1  0
  5  6  2  0
  6  7  1  0
  7  8  2  0
  8  3  1  0
M  END

$$$$
