No_2159-gen_results/8p0m/2024-11-26-14-13-15/
     RDKit          3D

 32 35  0  0  0  0  0  0  0  0999 V2000
  -28.0162   -0.8135   28.8779 C   0  0  0  0  0  0  0  0  0  0  0  0
  -27.0636   -0.1189   28.6079 C   0  0  0  0  0  0  0  0  0  0  0  0
  -25.7923   -0.4302   29.0761 C   0  0  0  0  0  0  0  0  0  0  0  0
  -24.5456    0.3494   28.8225 C   0  0  0  0  0  0  0  0  0  0  0  0
  -24.6586    1.4196   27.8878 C   0  0  0  0  0  0  0  0  0  0  0  0
  -25.9471    1.6811   27.3792 C   0  0  0  0  0  0  0  0  0  0  0  0
  -27.0439    0.9739   27.6871 C   0  0  0  0  0  0  0  0  0  0  0  0
  -29.2364   -0.0611   29.2668 C   0  0  0  0  0  0  0  0  0  0  0  0
  -29.8066   -0.3562   30.3832 C   0  0  0  0  0  0  0  0  0  0  0  0
  -30.9421    0.4176   30.8227 C   0  0  0  0  0  0  0  0  0  0  0  0
  -31.4533    1.3446   29.9244 C   0  0  0  0  0  0  0  0  0  0  0  0
  -30.8565    1.5531   28.7362 C   0  0  0  0  0  0  0  0  0  0  0  0
  -29.7215    0.8825   28.3822 C   0  0  0  0  0  0  0  0  0  0  0  0
  -23.4626    2.1556   27.5834 C   0  0  0  0  0  0  0  0  0  0  0  0
  -23.6262    3.2419   27.0415 F   0  0  0  0  0  0  0  0  0  0  0  0
  -22.5841    1.3981   26.7512 F   0  0  0  0  0  0  0  0  0  0  0  0
  -22.6845    2.3976   28.7597 F   0  0  0  0  0  0  0  0  0  0  0  0
  -31.3776    2.6175   27.8137 C   0  0  0  0  0  0  0  0  0  0  0  0
  -31.4325    3.7619   28.1448 C   0  0  0  0  0  0  0  0  0  0  0  0
  -31.6794    2.1245   26.5021 C   0  0  0  0  0  0  0  0  0  0  0  0
  -31.9388    4.8288   27.2933 C   0  0  0  0  0  0  0  0  0  0  0  0
  -31.5393    0.8043   26.1211 C   0  0  0  0  0  0  0  0  0  0  0  0
  -32.2920    4.3772   25.9733 C   0  0  0  0  0  0  0  0  0  0  0  0
  -32.1291    3.0497   25.5739 C   0  0  0  0  0  0  0  0  0  0  0  0
  -32.4673    0.0058   26.2789 C   0  0  0  0  0  0  0  0  0  0  0  0
  -30.6183    0.5773   24.9929 C   0  0  0  0  0  0  0  0  0  0  0  0
  -30.4589   -0.7069   24.4994 C   0  0  0  0  0  0  0  0  0  0  0  0
  -32.3946   -1.3975   25.8617 C   0  0  0  0  0  0  0  0  0  0  0  0
  -31.4077   -1.7013   24.9314 C   0  0  0  0  0  0  0  0  0  0  0  0
  -29.3523    1.2810   24.8345 C   0  0  0  0  0  0  0  0  0  0  0  0
  -29.2766    2.0982   23.6037 C   0  0  0  0  0  0  0  0  0  0  0  0
  -32.4793    2.7182   24.4065 O   0  0  0  0  0  0  0  0  0  0  0  0
  1  2  1  0
  1  8  1  0
  5 14  1  0
 14 15  1  0
 14 16  1  0
 14 17  1  0
 12 18  1  0
 18 19  1  0
 18 20  1  0
 20 22  1  0
 21 23  1  0
 20 24  1  0
 23 24  1  0
 26 30  1  0
 30 31  1  0
 24 32  2  0
 19 21  1  0
  2  3  2  0
  3  4  1  0
  4  5  2  0
  5  6  1  0
  6  7  2  0
  7  2  1  0
 22 25  2  0
 25 28  1  0
 28 29  2  0
 29 27  1  0
 27 26  2  0
 26 22  1  0
  8  9  2  0
  9 10  1  0
 10 11  2  0
 11 12  1  0
 12 13  2  0
 13  8  1  0
M  END

$$$$
