No_2852-gen_results/8p0m/2024-11-26-14-13-15/
     RDKit          3D

 13 13  0  0  0  0  0  0  0  0999 V2000
  -28.0727   -1.2542   28.5316 F   0  0  0  0  0  0  0  0  0  0  0  0
  -27.3591   -0.3792   28.7224 C   0  0  0  0  0  0  0  0  0  0  0  0
  -26.3180   -0.6608   29.1159 F   0  0  0  0  0  0  0  0  0  0  0  0
  -27.9301    0.6892   29.6024 C   0  0  0  0  0  0  0  0  0  0  0  0
  -27.1711    0.2908   27.2968 C   0  0  0  0  0  0  0  0  0  0  0  0
  -28.0689    0.2159   30.6975 F   0  0  0  0  0  0  0  0  0  0  0  0
  -27.0181    1.8630   29.7738 C   0  0  0  0  0  0  0  0  0  0  0  0
  -26.9204    2.7082   28.5670 C   0  0  0  0  0  0  0  0  0  0  0  0
  -26.2893    1.5671   27.3641 C   0  0  0  0  0  0  0  0  0  0  0  0
  -29.1006    1.0561   29.0920 F   0  0  0  0  0  0  0  0  0  0  0  0
  -27.5607   -0.0468   26.1950 O   0  0  0  0  0  0  0  0  0  0  0  0
  -25.6168    1.5218   30.3208 C   0  0  0  0  0  0  0  0  0  0  0  0
  -27.6377    2.9013   30.7851 C   0  0  0  0  0  0  0  0  0  0  0  0
  1  2  1  0
  2  3  1  0
  2  4  1  0
  2  5  1  0
  4  6  1  0
  4  7  1  0
  7  8  1  0
  5  9  1  0
  8  9  1  0
  4 10  1  0
  5 11  2  0
  7 12  1  0
  7 13  1  0
M  END

$$$$
