No_2112-gen_results/8p0m/2024-11-26-14-13-15/
     RDKit          3D

 13 13  0  0  0  0  0  0  0  0999 V2000
  -28.0162   -0.8135   28.8779 C   0  0  0  0  0  0  0  0  0  0  0  0
  -28.4690   -0.7850   29.8287 C   0  0  0  0  0  0  0  0  0  0  0  0
  -26.5042   -0.7777   28.8766 C   0  0  0  0  0  0  0  0  0  0  0  0
  -25.8305   -1.6807   29.6849 C   0  0  0  0  0  0  0  0  0  0  0  0
  -28.1490   -1.8854   30.9031 C   0  0  0  0  0  0  0  0  0  0  0  0
  -28.9302   -2.0829   32.0356 C   0  0  0  0  0  0  0  0  0  0  0  0
  -26.5519   -1.6972   31.0407 C   0  0  0  0  0  0  0  0  0  0  0  0
  -28.9826   -3.3748   32.2983 F   0  0  0  0  0  0  0  0  0  0  0  0
  -28.3637   -1.5509   33.1186 F   0  0  0  0  0  0  0  0  0  0  0  0
  -30.1415   -1.5793   31.8655 F   0  0  0  0  0  0  0  0  0  0  0  0
  -25.6258   -3.0422   29.0995 C   0  0  0  0  0  0  0  0  0  0  0  0
  -24.4281   -1.0366   30.0166 C   0  0  0  0  0  0  0  0  0  0  0  0
  -23.4341   -1.3899   29.2576 C   0  0  0  0  0  0  0  0  0  0  0  0
  1  2  1  0
  1  3  1  0
  3  4  1  0
  2  5  1  0
  5  6  1  0
  4  7  1  0
  5  7  1  0
  6  8  1  0
  6  9  1  0
  6 10  1  0
  4 11  1  0
  4 12  1  0
 12 13  2  0
M  END

$$$$
