No_2416-gen_results/8p0m/2024-11-26-14-13-15/
     RDKit          3D

 14 15  0  0  0  0  0  0  0  0999 V2000
  -28.0162   -0.8135   28.8779 C   0  0  0  0  0  0  0  0  0  0  0  0
  -28.4690   -0.7850   29.8287 C   0  0  0  0  0  0  0  0  0  0  0  0
  -26.5042   -0.7777   28.8766 C   0  0  0  0  0  0  0  0  0  0  0  0
  -25.8103   -0.8531   30.1028 C   0  0  0  0  0  0  0  0  0  0  0  0
  -27.9906   -0.8916   31.2257 C   0  0  0  0  0  0  0  0  0  0  0  0
  -24.3976   -0.8364   30.1775 C   0  0  0  0  0  0  0  0  0  0  0  0
  -26.5754   -0.8899   31.2661 C   0  0  0  0  0  0  0  0  0  0  0  0
  -23.6362   -0.9045   29.1560 C   0  0  0  0  0  0  0  0  0  0  0  0
  -22.1750   -0.7187   29.2225 C   0  0  0  0  0  0  0  0  0  0  0  0
  -23.5790    0.1052   30.8828 C   0  0  0  0  0  0  0  0  0  0  0  0
  -22.2056    0.0749   30.3715 C   0  0  0  0  0  0  0  0  0  0  0  0
  -30.0872   -0.7577   29.8408 C   0  0  0  0  0  0  0  0  0  0  0  0
  -30.4905   -0.2972   28.8770 O   0  0  0  0  0  0  0  0  0  0  0  0
  -30.7714   -0.8346   30.9363 O   0  0  0  0  0  0  0  0  0  0  0  0
  4  6  1  0
  6  8  2  0
  8  9  1  0
  6 10  1  0
  9 11  1  0
 10 11  2  0
  2 12  1  0
 12 13  2  0
 12 14  1  0
  1  2  2  0
  2  5  1  0
  5  7  2  0
  7  4  1  0
  4  3  2  0
  3  1  1  0
M  END

$$$$
