No_2023-gen_results/8p0m/2024-11-26-14-13-15/
     RDKit          3D

 27 28  0  0  0  0  0  0  0  0999 V2000
  -28.0162   -0.8135   28.8779 C   0  0  0  0  0  0  0  0  0  0  0  0
  -27.0636   -0.1190   28.6079 C   0  0  0  0  0  0  0  0  0  0  0  0
  -26.9287    1.1713   29.0083 C   0  0  0  0  0  0  0  0  0  0  0  0
  -25.7702    2.0341   28.6884 C   0  0  0  0  0  0  0  0  0  0  0  0
  -24.7141    1.4431   27.9188 C   0  0  0  0  0  0  0  0  0  0  0  0
  -24.8590    0.0783   27.5836 C   0  0  0  0  0  0  0  0  0  0  0  0
  -25.9647   -0.6606   27.9164 C   0  0  0  0  0  0  0  0  0  0  0  0
  -27.8277   -2.0369   29.3708 F   0  0  0  0  0  0  0  0  0  0  0  0
  -29.2324   -0.5226   28.7614 F   0  0  0  0  0  0  0  0  0  0  0  0
  -23.5444    2.1454   27.5659 C   0  0  0  0  0  0  0  0  0  0  0  0
  -22.3831    2.0909   28.3029 C   0  0  0  0  0  0  0  0  0  0  0  0
  -23.5879    2.7728   26.2343 C   0  0  0  0  0  0  0  0  0  0  0  0
  -22.4861    1.8015   29.4943 F   0  0  0  0  0  0  0  0  0  0  0  0
  -21.6488    3.0556   28.2375 F   0  0  0  0  0  0  0  0  0  0  0  0
  -21.6576    1.0574   27.6539 F   0  0  0  0  0  0  0  0  0  0  0  0
  -25.7153    3.4058   29.1070 C   0  0  0  0  0  0  0  0  0  0  0  0
  -25.9392    4.2674   28.3727 O   0  0  0  0  0  0  0  0  0  0  0  0
  -25.4150    3.5758   30.4055 O   0  0  0  0  0  0  0  0  0  0  0  0
  -25.7710    5.6351   28.7117 C   0  0  0  0  0  0  0  0  0  0  0  0
  -26.8679    6.5268   28.4138 C   0  0  0  0  0  0  0  0  0  0  0  0
  -27.9459    5.9988   28.0821 C   0  0  0  0  0  0  0  0  0  0  0  0
  -29.1019    6.8470   27.7181 C   0  0  0  0  0  0  0  0  0  0  0  0
  -28.9077    8.2814   27.7086 C   0  0  0  0  0  0  0  0  0  0  0  0
  -27.6511    8.7912   28.0481 C   0  0  0  0  0  0  0  0  0  0  0  0
  -26.5882    7.9458   28.3894 C   0  0  0  0  0  0  0  0  0  0  0  0
  -24.6642    6.0527   29.2041 O   0  0  0  0  0  0  0  0  0  0  0  0
  -29.8995    9.0516   27.3958 F   0  0  0  0  0  0  0  0  0  0  0  0
  1  2  1  0
  1  8  1  0
  1  9  1  0
  5 10  1  0
 10 11  1  0
 10 12  1  0
 11 13  1  0
 11 14  1  0
 11 15  1  0
  4 16  1  0
 16 17  1  0
 16 18  2  0
 17 19  1  0
 19 20  1  0
 19 26  2  0
 23 27  1  0
  2  3  2  0
  3  4  1  0
  4  5  2  0
  5  6  1  0
  6  7  2  0
  7  2  1  0
 20 21  2  0
 21 22  1  0
 22 23  2  0
 23 24  1  0
 24 25  2  0
 25 20  1  0
M  END

$$$$
