No_2391-gen_results/8p0m/2024-11-26-14-13-15/
     RDKit          3D

 20 21  0  0  0  0  0  0  0  0999 V2000
  -28.0162   -0.8135   28.8779 C   0  0  0  0  0  0  0  0  0  0  0  0
  -28.4690   -0.7850   29.8287 C   0  0  0  0  0  0  0  0  0  0  0  0
  -26.5455   -0.8762   28.8500 C   0  0  0  0  0  0  0  0  0  0  0  0
  -25.8041   -1.0324   30.0571 C   0  0  0  0  0  0  0  0  0  0  0  0
  -26.5373   -1.0386   31.2171 C   0  0  0  0  0  0  0  0  0  0  0  0
  -27.8843   -0.9532   31.1862 C   0  0  0  0  0  0  0  0  0  0  0  0
  -24.3655   -1.1134   30.0483 C   0  0  0  0  0  0  0  0  0  0  0  0
  -23.7447   -1.3690   30.8125 C   0  0  0  0  0  0  0  0  0  0  0  0
  -22.5702   -0.8171   31.2268 C   0  0  0  0  0  0  0  0  0  0  0  0
  -21.7941   -0.1957   30.2067 C   0  0  0  0  0  0  0  0  0  0  0  0
  -22.4671    0.0452   28.9825 C   0  0  0  0  0  0  0  0  0  0  0  0
  -23.8655   -0.3262   28.8704 C   0  0  0  0  0  0  0  0  0  0  0  0
  -25.8610   -0.8042   27.7376 F   0  0  0  0  0  0  0  0  0  0  0  0
  -21.6838    0.9374   27.7960 Cl  0  0  0  0  0  0  0  0  0  0  0  0
  -30.0734   -0.7275   29.9150 C   0  0  0  0  0  0  0  0  0  0  0  0
  -30.7345   -1.5831   30.0679 O   0  0  0  0  0  0  0  0  0  0  0  0
  -30.5387    0.5484   29.7011 N   0  0  0  0  0  0  0  0  0  0  0  0
  -29.8089    1.7630   29.5186 C   0  0  0  0  0  0  0  0  0  0  0  0
  -29.6669    2.4722   28.6129 C   0  0  0  0  0  0  0  0  0  0  0  0
  -28.7375    3.5683   28.5310 C   0  0  0  0  0  0  0  0  0  0  0  0
  4  7  1  0
  3 13  1  0
 11 14  1  0
  2 15  1  0
 15 16  1  0
 15 17  1  0
 17 18  1  0
 18 19  2  3
 19 20  1  0
  1  2  2  0
  2  6  1  0
  6  5  2  0
  5  4  1  0
  4  3  2  0
  3  1  1  0
  7  8  2  0
  8  9  1  0
  9 10  2  0
 10 11  1  0
 11 12  2  0
 12  7  1  0
M  END

$$$$
