No_2447-gen_results/8p0m/2024-11-26-14-13-15/
     RDKit          3D

 32 34  0  0  0  0  0  0  0  0999 V2000
  -28.1229   -1.3353   28.4874 O   0  0  0  0  0  0  0  0  0  0  0  0
  -27.0637   -0.8242   28.8687 C   0  0  0  0  0  0  0  0  0  0  0  0
  -26.9592    0.0926   29.7582 C   0  0  0  0  0  0  0  0  0  0  0  0
  -25.8011   -1.3566   28.3971 N   0  0  0  0  0  0  0  0  0  0  0  0
  -25.7368    0.7239   30.2099 C   0  0  0  0  0  0  0  0  0  0  0  0
  -24.5490   -0.8600   28.7870 C   0  0  0  0  0  0  0  0  0  0  0  0
  -24.5149    0.1880   29.6985 C   0  0  0  0  0  0  0  0  0  0  0  0
  -23.2206    0.7326   30.0471 C   0  0  0  0  0  0  0  0  0  0  0  0
  -23.1613    1.6773   30.7179 O   0  0  0  0  0  0  0  0  0  0  0  0
  -22.0696    0.0838   29.6462 N   0  0  0  0  0  0  0  0  0  0  0  0
  -28.2024    0.6556   30.3579 C   0  0  0  0  0  0  0  0  0  0  0  0
  -28.7655    0.0523   31.2841 C   0  0  0  0  0  0  0  0  0  0  0  0
  -30.0061    0.5511   31.9454 C   0  0  0  0  0  0  0  0  0  0  0  0
  -30.4919    1.7698   31.4510 C   0  0  0  0  0  0  0  0  0  0  0  0
  -29.8133    2.4009   30.4224 C   0  0  0  0  0  0  0  0  0  0  0  0
  -28.6224    1.9230   29.8851 C   0  0  0  0  0  0  0  0  0  0  0  0
  -30.3152    3.7282   29.9236 C   0  0  0  0  0  0  0  0  0  0  0  0
  -30.3541    4.0629   28.8986 O   0  0  0  0  0  0  0  0  0  0  0  0
  -30.7310    4.5194   30.9580 O   0  0  0  0  0  0  0  0  0  0  0  0
  -30.8508    5.8013   30.7987 C   0  0  0  0  0  0  0  0  0  0  0  0
  -29.7846    6.5708   30.9331 C   0  0  0  0  0  0  0  0  0  0  0  0
  -29.8572    7.9865   30.7095 C   0  0  0  0  0  0  0  0  0  0  0  0
  -31.1164    8.5374   30.4196 C   0  0  0  0  0  0  0  0  0  0  0  0
  -32.1985    7.6841   30.3230 C   0  0  0  0  0  0  0  0  0  0  0  0
  -32.0767    6.2947   30.5087 C   0  0  0  0  0  0  0  0  0  0  0  0
  -33.5290    8.2440   29.9960 C   0  0  0  0  0  0  0  0  0  0  0  0
  -33.8845    8.6269   29.0384 O   0  0  0  0  0  0  0  0  0  0  0  0
  -34.4831    7.8143   30.9541 O   0  0  0  0  0  0  0  0  0  0  0  0
  -28.6617    8.8101   30.8629 C   0  0  0  0  0  0  0  0  0  0  0  0
  -28.7764    9.8298   31.4819 F   0  0  0  0  0  0  0  0  0  0  0  0
  -27.7364    8.0754   31.5082 F   0  0  0  0  0  0  0  0  0  0  0  0
  -28.2498    9.0229   29.6036 F   0  0  0  0  0  0  0  0  0  0  0  0
  1  2  2  0
  2  3  1  0
  2  4  1  0
  3  5  1  0
  5  7  1  0
  6  7  1  0
  7  8  1  0
  8  9  2  0
  8 10  1  0
  3 11  1  0
 15 17  1  0
 17 18  2  0
 17 19  1  0
 19 20  1  0
 24 26  1  0
 26 27  2  0
 26 28  1  0
 22 29  1  0
 29 30  1  0
 29 31  1  0
 29 32  1  0
  6  4  1  0
 11 12  2  0
 12 13  1  0
 13 14  2  0
 14 15  1  0
 15 16  2  0
 16 11  1  0
 20 21  2  0
 21 22  1  0
 22 23  2  0
 23 24  1  0
 24 25  2  0
 25 20  1  0
M  END

$$$$
