No_264-gen_results/8p0m/2024-11-26-14-13-15/
     RDKit          3D

 15 16  0  0  0  0  0  0  0  0999 V2000
  -28.1229   -1.3353   28.4874 O   0  0  0  0  0  0  0  0  0  0  0  0
  -27.0637   -0.8242   28.8687 C   0  0  0  0  0  0  0  0  0  0  0  0
  -25.9464   -1.0396   28.8492 C   0  0  0  0  0  0  0  0  0  0  0  0
  -25.3522   -2.2524   28.5471 C   0  0  0  0  0  0  0  0  0  0  0  0
  -27.2898    0.4084   29.7412 N   0  0  0  0  0  0  0  0  0  0  0  0
  -28.5308    0.9464   29.9764 C   0  0  0  0  0  0  0  0  0  0  0  0
  -24.7281   -0.0727   29.0399 C   0  0  0  0  0  0  0  0  0  0  0  0
  -24.8798    1.1951   28.8992 C   0  0  0  0  0  0  0  0  0  0  0  0
  -26.2676    1.5593   29.6274 C   0  0  0  0  0  0  0  0  0  0  0  0
  -24.8078   -3.0942   29.6550 C   0  0  0  0  0  0  0  0  0  0  0  0
  -28.8053    1.6996   30.9535 C   0  0  0  0  0  0  0  0  0  0  0  0
  -30.1293    2.1569   31.2834 C   0  0  0  0  0  0  0  0  0  0  0  0
  -31.1654    1.6111   30.5158 C   0  0  0  0  0  0  0  0  0  0  0  0
  -30.9245    0.7216   29.4940 C   0  0  0  0  0  0  0  0  0  0  0  0
  -29.6662    0.3477   29.2491 C   0  0  0  0  0  0  0  0  0  0  0  0
  1  2  2  0
  2  3  1  0
  3  4  1  0
  2  5  1  0
  5  6  1  0
  3  7  1  0
  5  9  1  0
  8  9  1  0
  4 10  1  0
  7  8  1  0
  6 11  2  0
 11 12  1  0
 12 13  2  0
 13 14  1  0
 14 15  2  0
 15  6  1  0
M  END

$$$$
