No_2340-gen_results/8p0m/2024-11-26-14-13-15/
     RDKit          3D

 15 15  0  0  0  0  0  0  0  0999 V2000
  -28.1229   -1.3353   28.4874 O   0  0  0  0  0  0  0  0  0  0  0  0
  -27.0637   -0.8242   28.8687 C   0  0  0  0  0  0  0  0  0  0  0  0
  -25.9464   -1.0396   28.8492 C   0  0  0  0  0  0  0  0  0  0  0  0
  -25.3522   -2.2524   28.5471 C   0  0  0  0  0  0  0  0  0  0  0  0
  -27.2400    0.6843   29.2270 N   0  0  0  0  0  0  0  0  0  0  0  0
  -26.2490    1.4618   29.6073 C   0  0  0  0  0  0  0  0  0  0  0  0
  -24.9400    0.9653   29.6238 C   0  0  0  0  0  0  0  0  0  0  0  0
  -24.6678   -0.2528   29.2999 C   0  0  0  0  0  0  0  0  0  0  0  0
  -24.0818   -2.5339   28.5253 F   0  0  0  0  0  0  0  0  0  0  0  0
  -25.9973   -3.2481   29.4660 F   0  0  0  0  0  0  0  0  0  0  0  0
  -25.6454   -2.6184   27.2609 F   0  0  0  0  0  0  0  0  0  0  0  0
  -26.6275    3.0317   30.1296 Cl  0  0  0  0  0  0  0  0  0  0  0  0
  -23.8090    1.9340   30.0687 C   0  0  0  0  0  0  0  0  0  0  0  0
  -23.9342    2.7192   30.9601 O   0  0  0  0  0  0  0  0  0  0  0  0
  -22.8035    2.0471   29.2522 O   0  0  0  0  0  0  0  0  0  0  0  0
  1  2  2  0
  2  3  1  0
  3  4  1  0
  2  5  1  0
  6  7  1  0
  3  8  1  0
  4  9  1  0
  4 10  1  0
  4 11  1  0
  6 12  1  0
  7 13  1  0
 13 14  1  0
 13 15  2  0
  8  7  1  0
  6  5  1  0
M  END

$$$$
