No_2504-gen_results/8p0m/2024-11-26-14-13-15/
     RDKit          3D

 27 29  0  0  0  0  0  0  0  0999 V2000
  -28.1146   -0.6256   29.0813 Br  0  0  0  0  0  0  0  0  0  0  0  0
  -27.4917    0.8142   29.3550 C   0  0  0  0  0  0  0  0  0  0  0  0
  -27.5451    1.4114   30.5533 C   0  0  0  0  0  0  0  0  0  0  0  0
  -26.8382    2.5333   30.8279 C   0  0  0  0  0  0  0  0  0  0  0  0
  -26.0717    3.1997   29.7953 C   0  0  0  0  0  0  0  0  0  0  0  0
  -25.9632    2.5550   28.5976 C   0  0  0  0  0  0  0  0  0  0  0  0
  -26.6254    1.4128   28.4312 C   0  0  0  0  0  0  0  0  0  0  0  0
  -25.1318    3.1782   27.5557 C   0  0  0  0  0  0  0  0  0  0  0  0
  -24.1925    2.6056   26.9058 C   0  0  0  0  0  0  0  0  0  0  0  0
  -23.6500    1.3570   27.2389 C   0  0  0  0  0  0  0  0  0  0  0  0
  -22.3114    1.2315   27.7434 C   0  0  0  0  0  0  0  0  0  0  0  0
  -21.8338    0.1097   28.4365 C   0  0  0  0  0  0  0  0  0  0  0  0
  -22.7830   -0.9272   28.7434 C   0  0  0  0  0  0  0  0  0  0  0  0
  -24.1173   -0.7333   28.3753 C   0  0  0  0  0  0  0  0  0  0  0  0
  -24.5433    0.4327   27.7328 C   0  0  0  0  0  0  0  0  0  0  0  0
  -26.5256    0.5959   27.0683 C   0  0  0  0  0  0  0  0  0  0  0  0
  -25.6881    0.3355   27.1552 N   0  0  0  0  0  0  0  0  0  0  0  0
  -25.4513    4.6568   27.3342 C   0  0  0  0  0  0  0  0  0  0  0  0
  -27.4845    0.7870   26.3268 O   0  0  0  0  0  0  0  0  0  0  0  0
  -24.7166    5.3316   26.7597 O   0  0  0  0  0  0  0  0  0  0  0  0
  -26.7697    5.1256   27.5164 N   0  0  0  0  0  0  0  0  0  0  0  0
  -27.1522    6.4385   27.2494 C   0  0  0  0  0  0  0  0  0  0  0  0
  -28.5581    6.5002   26.9718 C   0  0  0  0  0  0  0  0  0  0  0  0
  -29.1993    7.6954   26.9933 C   0  0  0  0  0  0  0  0  0  0  0  0
  -30.6110    7.8214   26.7869 C   0  0  0  0  0  0  0  0  0  0  0  0
  -31.3398    6.6467   26.6965 C   0  0  0  0  0  0  0  0  0  0  0  0
  -30.7186    5.4217   26.6885 C   0  0  0  0  0  0  0  0  0  0  0  0
  1  2  1  0
  6  8  1  0
  8  9  2  3
  9 10  1  0
  7 16  1  0
 15 17  1  0
 16 17  1  0
  8 18  1  0
 16 19  2  0
 18 20  2  0
 18 21  1  0
 21 22  1  0
 22 23  2  3
 23 24  1  0
 24 25  2  3
 25 26  1  0
 26 27  2  0
  2  3  2  0
  3  4  1  0
  4  5  2  0
  5  6  1  0
  6  7  2  0
  7  2  1  0
 10 11  2  0
 11 12  1  0
 12 13  2  0
 13 14  1  0
 14 15  2  0
 15 10  1  0
M  END

$$$$
