No_2385-gen_results/8p0m/2024-11-26-14-13-15/
     RDKit          3D

 28 30  0  0  0  0  0  0  0  0999 V2000
  -28.0162   -0.8135   28.8779 C   0  0  0  0  0  0  0  0  0  0  0  0
  -27.0636   -0.1189   28.6079 C   0  0  0  0  0  0  0  0  0  0  0  0
  -27.0010    0.6913   27.4910 C   0  0  0  0  0  0  0  0  0  0  0  0
  -25.8548    1.4825   27.0830 C   0  0  0  0  0  0  0  0  0  0  0  0
  -24.6901    1.4526   27.8807 C   0  0  0  0  0  0  0  0  0  0  0  0
  -23.4878    2.1451   27.6011 C   0  0  0  0  0  0  0  0  0  0  0  0
  -25.8122   -0.1656   29.4299 C   0  0  0  0  0  0  0  0  0  0  0  0
  -24.6457    0.5887   29.0806 C   0  0  0  0  0  0  0  0  0  0  0  0
  -29.2288   -0.0950   29.4102 C   0  0  0  0  0  0  0  0  0  0  0  0
  -23.4277    3.0650   26.7254 N   0  0  0  0  0  0  0  0  0  0  0  0
  -22.3402    1.8095   28.1184 O   0  0  0  0  0  0  0  0  0  0  0  0
  -30.3603   -0.8355   29.7707 C   0  0  0  0  0  0  0  0  0  0  0  0
  -30.7923   -0.8063   30.9737 C   0  0  0  0  0  0  0  0  0  0  0  0
  -30.5673    0.4062   31.7939 C   0  0  0  0  0  0  0  0  0  0  0  0
  -29.5396    1.2730   31.3502 C   0  0  0  0  0  0  0  0  0  0  0  0
  -28.9193    1.0042   30.2874 C   0  0  0  0  0  0  0  0  0  0  0  0
  -25.7301   -0.9400   30.6383 C   0  0  0  0  0  0  0  0  0  0  0  0
  -28.1364    0.9006   26.5751 C   0  0  0  0  0  0  0  0  0  0  0  0
  -28.9622    1.6996   26.9882 F   0  0  0  0  0  0  0  0  0  0  0  0
  -28.6854   -0.3545   26.4169 F   0  0  0  0  0  0  0  0  0  0  0  0
  -27.7666    1.2616   25.4004 F   0  0  0  0  0  0  0  0  0  0  0  0
  -24.7749   -1.3926   31.0338 O   0  0  0  0  0  0  0  0  0  0  0  0
  -26.8637   -1.1381   31.3061 O   0  0  0  0  0  0  0  0  0  0  0  0
  -29.2404    2.4270   32.2448 C   0  0  0  0  0  0  0  0  0  0  0  0
  -28.5271    3.1923   32.0611 O   0  0  0  0  0  0  0  0  0  0  0  0
  -29.6717    2.2761   33.5072 O   0  0  0  0  0  0  0  0  0  0  0  0
  -24.6459    3.6090   26.1228 C   0  0  0  0  0  0  0  0  0  0  0  0
  -25.7977    2.8114   26.2732 C   0  0  0  0  0  0  0  0  0  0  0  0
  1  2  1  0
  5  6  1  0
  1  9  1  0
  6 10  1  0
  6 11  2  0
  7 17  1  0
  3 18  1  0
 18 19  1  0
 18 20  1  0
 18 21  1  0
 17 22  2  0
 17 23  1  0
 15 24  1  0
 24 25  2  0
 24 26  1  0
 10 27  1  0
  4 28  1  0
 28 27  1  0
  2  3  2  0
  3  4  1  0
  4  5  2  0
  5  8  1  0
  8  7  2  0
  7  2  1  0
  9 12  2  0
 12 13  1  0
 13 14  2  0
 14 15  1  0
 15 16  2  0
 16  9  1  0
M  END

$$$$
