No_2446-gen_results/8p0m/2024-11-26-14-13-15/
     RDKit          3D

 12 13  0  0  0  0  0  0  0  0999 V2000
  -28.0162   -0.8135   28.8779 C   0  0  0  0  0  0  0  0  0  0  0  0
  -28.4690   -0.7850   29.8287 C   0  0  0  0  0  0  0  0  0  0  0  0
  -28.1915    0.1474   27.8714 C   0  0  0  0  0  0  0  0  0  0  0  0
  -29.2816    1.0120   27.9611 C   0  0  0  0  0  0  0  0  0  0  0  0
  -29.6441    0.0897   30.1590 C   0  0  0  0  0  0  0  0  0  0  0  0
  -29.9298    0.9926   29.1822 C   0  0  0  0  0  0  0  0  0  0  0  0
  -29.5234    1.9508   26.8996 C   0  0  0  0  0  0  0  0  0  0  0  0
  -29.3104    1.8914   25.7706 C   0  0  0  0  0  0  0  0  0  0  0  0
  -29.6054    2.9406   24.7234 C   0  0  0  0  0  0  0  0  0  0  0  0
  -30.1612    4.1454   25.1601 C   0  0  0  0  0  0  0  0  0  0  0  0
  -30.3902    4.2965   26.4996 C   0  0  0  0  0  0  0  0  0  0  0  0
  -30.0878    3.2993   27.3964 C   0  0  0  0  0  0  0  0  0  0  0  0
  4  7  1  0
  1  2  2  0
  2  5  1  0
  5  6  2  0
  6  4  1  0
  4  3  2  0
  3  1  1  0
  7  8  2  0
  8  9  1  0
  9 10  2  0
 10 11  1  0
 11 12  2  0
 12  7  1  0
M  END

$$$$
