No_2638-gen_results/8p0m/2024-11-26-14-13-15/
     RDKit          3D

 13 14  0  0  0  0  0  0  0  0999 V2000
  -28.0162   -0.8135   28.8779 C   0  0  0  0  0  0  0  0  0  0  0  0
  -28.4690   -0.7850   29.8287 C   0  0  0  0  0  0  0  0  0  0  0  0
  -27.1356    0.2359   28.5352 C   0  0  0  0  0  0  0  0  0  0  0  0
  -26.3351    0.2900   27.2835 C   0  0  0  0  0  0  0  0  0  0  0  0
  -28.3692    0.1957   30.9236 C   0  0  0  0  0  0  0  0  0  0  0  0
  -27.5158    1.2655   30.6540 C   0  0  0  0  0  0  0  0  0  0  0  0
  -26.8411    1.2942   29.4761 C   0  0  0  0  0  0  0  0  0  0  0  0
  -25.6774    1.5198   26.9774 C   0  0  0  0  0  0  0  0  0  0  0  0
  -25.3745    2.4477   27.9252 C   0  0  0  0  0  0  0  0  0  0  0  0
  -26.0827    2.4257   29.1425 C   0  0  0  0  0  0  0  0  0  0  0  0
  -25.8249    3.5745   30.0762 C   0  0  0  0  0  0  0  0  0  0  0  0
  -25.9467    4.7856   29.6364 O   0  0  0  0  0  0  0  0  0  0  0  0
  -25.4464    3.3009   31.2796 O   0  0  0  0  0  0  0  0  0  0  0  0
 10 11  1  0
 11 12  2  0
 11 13  1  0
  1  2  2  0
  2  5  1  0
  5  6  2  0
  6  7  1  0
  3  1  1  0
  3  4  2  0
  4  8  1  0
  8  9  2  0
  9 10  1  0
 10  7  2  0
  7  3  1  0
M  END

$$$$
