No_2860-gen_results/8p0m/2024-11-26-14-13-15/
     RDKit          3D

 16 17  0  0  0  0  0  0  0  0999 V2000
  -28.0162   -0.8135   28.8779 C   0  0  0  0  0  0  0  0  0  0  0  0
  -27.0636   -0.1190   28.6079 C   0  0  0  0  0  0  0  0  0  0  0  0
  -26.8756    1.1325   28.9134 C   0  0  0  0  0  0  0  0  0  0  0  0
  -25.6883    1.9515   28.5672 C   0  0  0  0  0  0  0  0  0  0  0  0
  -24.6394    1.2834   27.8753 C   0  0  0  0  0  0  0  0  0  0  0  0
  -24.8068   -0.0513   27.6040 C   0  0  0  0  0  0  0  0  0  0  0  0
  -25.9019   -0.7670   27.9511 C   0  0  0  0  0  0  0  0  0  0  0  0
  -28.6392   -0.5118   30.2403 C   0  0  0  0  0  0  0  0  0  0  0  0
  -28.9296    0.7781   30.4465 N   0  0  0  0  0  0  0  0  0  0  0  0
  -27.7421    1.6291   30.1100 C   0  0  0  0  0  0  0  0  0  0  0  0
  -30.0629    1.3392   30.9197 C   0  0  0  0  0  0  0  0  0  0  0  0
  -23.4775    1.9964   27.3697 C   0  0  0  0  0  0  0  0  0  0  0  0
  -22.3356    1.6992   27.7199 O   0  0  0  0  0  0  0  0  0  0  0  0
  -23.7137    3.2244   26.9077 O   0  0  0  0  0  0  0  0  0  0  0  0
  -31.0860    1.3045   30.4371 C   0  0  0  0  0  0  0  0  0  0  0  0
  -32.2845    1.8654   30.9653 C   0  0  0  0  0  0  0  0  0  0  0  0
  1  8  1  0
  8  9  1  0
  3 10  1  0
  9 10  1  0
  9 11  1  0
  5 12  1  0
 12 13  2  0
 12 14  1  0
 11 15  2  3
 15 16  1  0
  1  2  1  0
  2  3  2  0
  3  4  1  0
  4  5  2  0
  5  6  1  0
  6  7  2  0
  7  2  1  0
M  END

$$$$
