No_2070-gen_results/8p0m/2024-11-26-14-13-15/
     RDKit          3D

 18 19  0  0  0  0  0  0  0  0999 V2000
  -28.0162   -0.8135   28.8779 C   0  0  0  0  0  0  0  0  0  0  0  0
  -27.0636   -0.1189   28.6079 C   0  0  0  0  0  0  0  0  0  0  0  0
  -27.0010    0.6913   27.4910 C   0  0  0  0  0  0  0  0  0  0  0  0
  -25.8548    1.4825   27.0830 C   0  0  0  0  0  0  0  0  0  0  0  0
  -24.6901    1.4526   27.8807 C   0  0  0  0  0  0  0  0  0  0  0  0
  -24.7379    0.6010   29.0416 C   0  0  0  0  0  0  0  0  0  0  0  0
  -25.8234   -0.1688   29.3887 C   0  0  0  0  0  0  0  0  0  0  0  0
  -29.2150   -0.1726   29.0132 N   0  0  0  0  0  0  0  0  0  0  0  0
  -29.7200    0.5474   28.3236 C   0  0  0  0  0  0  0  0  0  0  0  0
  -30.9742    1.0608   28.6662 C   0  0  0  0  0  0  0  0  0  0  0  0
  -30.0997   -0.6583   30.1305 C   0  0  0  0  0  0  0  0  0  0  0  0
  -31.2715   -0.1909   30.4043 C   0  0  0  0  0  0  0  0  0  0  0  0
  -31.7506    0.7487   29.6127 C   0  0  0  0  0  0  0  0  0  0  0  0
  -23.5007    2.1662   27.5526 C   0  0  0  0  0  0  0  0  0  0  0  0
  -23.7204    3.2555   27.0077 F   0  0  0  0  0  0  0  0  0  0  0  0
  -22.6373    1.4576   26.7086 F   0  0  0  0  0  0  0  0  0  0  0  0
  -22.7724    2.4410   28.6814 F   0  0  0  0  0  0  0  0  0  0  0  0
  -27.7878   -1.8365   29.6138 O   0  0  0  0  0  0  0  0  0  0  0  0
  1  2  1  0
  1  8  1  0
  8  9  1  0
  8 11  1  0
 10 13  1  0
 12 13  1  0
  5 14  1  0
 14 15  1  0
 14 16  1  0
 14 17  1  0
  1 18  2  0
  9 10  1  0
 12 11  1  0
  2  3  2  0
  3  4  1  0
  4  5  2  0
  5  6  1  0
  6  7  2  0
  7  2  1  0
M  END

$$$$
