No_2102-gen_results/8p0m/2024-11-26-14-13-15/
     RDKit          3D

 35 40  0  0  0  0  0  0  0  0999 V2000
  -28.0162   -0.8135   28.8779 C   0  0  0  0  0  0  0  0  0  0  0  0
  -28.4690   -0.7850   29.8287 C   0  0  0  0  0  0  0  0  0  0  0  0
  -27.0871    0.2903   28.6377 C   0  0  0  0  0  0  0  0  0  0  0  0
  -26.2516    0.4114   27.4223 C   0  0  0  0  0  0  0  0  0  0  0  0
  -28.3913    0.1041   30.9805 C   0  0  0  0  0  0  0  0  0  0  0  0
  -27.5332    1.1666   30.7866 C   0  0  0  0  0  0  0  0  0  0  0  0
  -26.8281    1.2557   29.6454 C   0  0  0  0  0  0  0  0  0  0  0  0
  -25.6444    1.6653   27.2216 C   0  0  0  0  0  0  0  0  0  0  0  0
  -24.6323    1.7370   26.2648 C   0  0  0  0  0  0  0  0  0  0  0  0
  -23.8428    2.9890   26.2421 C   0  0  0  0  0  0  0  0  0  0  0  0
  -24.2582    4.0862   27.0216 C   0  0  0  0  0  0  0  0  0  0  0  0
  -25.3587    3.9452   27.8294 C   0  0  0  0  0  0  0  0  0  0  0  0
  -25.9857    2.7341   28.0164 C   0  0  0  0  0  0  0  0  0  0  0  0
  -26.2763    2.4590   29.2807 N   0  0  0  0  0  0  0  0  0  0  0  0
  -26.1637    3.4825   30.3877 C   0  0  0  0  0  0  0  0  0  0  0  0
  -26.9822    3.5306   31.3791 C   0  0  0  0  0  0  0  0  0  0  0  0
  -27.3996    2.1610   31.8955 C   0  0  0  0  0  0  0  0  0  0  0  0
  -26.2536   -0.4880   26.5901 O   0  0  0  0  0  0  0  0  0  0  0  0
  -25.4169    4.5054   30.1373 O   0  0  0  0  0  0  0  0  0  0  0  0
  -27.4012    4.6864   32.1152 C   0  0  0  0  0  0  0  0  0  0  0  0
  -28.3057    5.2918   31.8440 C   0  0  0  0  0  0  0  0  0  0  0  0
  -28.6644    6.5319   32.4442 C   0  0  0  0  0  0  0  0  0  0  0  0
  -27.8768    6.9897   33.4732 C   0  0  0  0  0  0  0  0  0  0  0  0
  -26.4263    5.0488   33.1578 C   0  0  0  0  0  0  0  0  0  0  0  0
  -26.6959    6.2403   33.8816 C   0  0  0  0  0  0  0  0  0  0  0  0
  -28.0112    1.9725   33.2023 C   0  0  0  0  0  0  0  0  0  0  0  0
  -27.1756    1.4809   34.2060 C   0  0  0  0  0  0  0  0  0  0  0  0
  -29.3337    2.2403   33.4040 C   0  0  0  0  0  0  0  0  0  0  0  0
  -29.8628    2.1243   34.7267 C   0  0  0  0  0  0  0  0  0  0  0  0
  -27.6401    1.2982   35.5361 C   0  0  0  0  0  0  0  0  0  0  0  0
  -29.0038    1.6353   35.7777 C   0  0  0  0  0  0  0  0  0  0  0  0
  -29.1903    5.0238   30.8829 F   0  0  0  0  0  0  0  0  0  0  0  0
  -31.2449    2.4995   35.0382 C   0  0  0  0  0  0  0  0  0  0  0  0
  -32.1485    1.7824   34.8993 O   0  0  0  0  0  0  0  0  0  0  0  0
  -31.4215    3.8491   35.4680 N   0  0  0  0  0  0  0  0  0  0  0  0
  3  4  1  0
  4  8  1  0
  7 14  1  0
 13 14  1  0
 14 15  1  0
 15 16  1  0
  6 17  1  0
  4 18  2  0
 15 19  2  0
 16 20  1  0
 17 26  1  0
 21 32  1  0
 29 33  1  0
 33 34  2  0
 33 35  1  0
 17 16  1  0
  1  2  2  0
  2  5  1  0
  5  6  2  0
  6  7  1  0
  7  3  2  0
  3  1  1  0
 20 21  2  0
 21 22  1  0
 22 23  2  0
 23 25  1  0
 25 24  2  0
 24 20  1  0
 26 27  2  0
 27 30  1  0
 30 31  2  0
 31 29  1  0
 29 28  2  0
 28 26  1  0
  8  9  2  0
  9 10  1  0
 10 11  2  0
 11 12  1  0
 12 13  2  0
 13  8  1  0
M  END

$$$$
