No_2724-gen_results/8p0m/2024-11-26-14-13-15/
     RDKit          3D

 35 40  0  0  0  0  0  0  0  0999 V2000
  -28.0162   -0.8135   28.8779 C   0  0  0  0  0  0  0  0  0  0  0  0
  -27.0636   -0.1190   28.6079 C   0  0  0  0  0  0  0  0  0  0  0  0
  -25.7923   -0.4302   29.0761 C   0  0  0  0  0  0  0  0  0  0  0  0
  -25.5756   -1.5654   29.9363 C   0  0  0  0  0  0  0  0  0  0  0  0
  -26.7354   -2.3004   30.2173 C   0  0  0  0  0  0  0  0  0  0  0  0
  -27.9184   -1.9537   29.7629 C   0  0  0  0  0  0  0  0  0  0  0  0
  -29.0001   -2.7012   30.1151 O   0  0  0  0  0  0  0  0  0  0  0  0
  -24.5290    0.3490   28.7998 C   0  0  0  0  0  0  0  0  0  0  0  0
  -23.3442    0.0060   29.1658 C   0  0  0  0  0  0  0  0  0  0  0  0
  -22.1783    0.7811   28.7783 C   0  0  0  0  0  0  0  0  0  0  0  0
  -22.3217    1.7499   27.7727 C   0  0  0  0  0  0  0  0  0  0  0  0
  -24.6102    1.3558   27.7479 C   0  0  0  0  0  0  0  0  0  0  0  0
  -25.8900    1.7030   27.2075 C   0  0  0  0  0  0  0  0  0  0  0  0
  -23.4877    2.0801   27.2931 C   0  0  0  0  0  0  0  0  0  0  0  0
  -27.1130    0.9849   27.6096 C   0  0  0  0  0  0  0  0  0  0  0  0
  -28.3684    1.3732   27.0570 C   0  0  0  0  0  0  0  0  0  0  0  0
  -26.0368    2.8387   26.3356 C   0  0  0  0  0  0  0  0  0  0  0  0
  -28.9462    2.3764   27.7919 C   0  0  0  0  0  0  0  0  0  0  0  0
  -29.9573    2.8653   27.7258 C   0  0  0  0  0  0  0  0  0  0  0  0
  -30.8813    2.4401   26.7322 C   0  0  0  0  0  0  0  0  0  0  0  0
  -28.8629    0.8129   25.9595 C   0  0  0  0  0  0  0  0  0  0  0  0
  -29.8108    1.2315   25.6009 C   0  0  0  0  0  0  0  0  0  0  0  0
  -30.1774   -2.1858   30.4773 C   0  0  0  0  0  0  0  0  0  0  0  0
  -31.2512   -2.7105   29.7640 C   0  0  0  0  0  0  0  0  0  0  0  0
  -32.1428   -1.7965   29.2172 C   0  0  0  0  0  0  0  0  0  0  0  0
  -32.2276   -0.4549   29.8023 C   0  0  0  0  0  0  0  0  0  0  0  0
  -31.1391    0.0142   30.5836 C   0  0  0  0  0  0  0  0  0  0  0  0
  -29.9609   -0.7087   30.3375 C   0  0  0  0  0  0  0  0  0  0  0  0
  -28.9055   -0.0493   30.0198 O   0  0  0  0  0  0  0  0  0  0  0  0
  -30.3643   -2.3604   32.0157 C   0  0  0  0  0  0  0  0  0  0  0  0
  -31.4006   -4.0495   29.4603 C   0  0  0  0  0  0  0  0  0  0  0  0
  -30.9658   -5.0024   30.3226 C   0  0  0  0  0  0  0  0  0  0  0  0
  -31.8224   -4.5071   28.1886 C   0  0  0  0  0  0  0  0  0  0  0  0
  -32.0884   -3.6234   27.3481 F   0  0  0  0  0  0  0  0  0  0  0  0
  -31.8478   -5.6280   27.8232 F   0  0  0  0  0  0  0  0  0  0  0  0
  6  7  1  0
  3  8  1  0
 12 13  1  0
  2 15  1  0
 13 15  1  0
 15 16  1  0
 13 17  1  0
  7 23  1  0
 23 24  1  0
 25 26  1  0
 23 28  1  0
 27 28  1  0
  1 29  1  0
 28 29  1  0
 23 30  1  0
 24 31  1  0
 31 32  1  0
 31 33  1  0
 33 34  1  0
 33 35  1  0
 24 25  1  0
 26 27  1  0
  1  2  2  0
  2  3  1  0
  3  4  2  0
  4  5  1  0
  5  6  2  0
  6  1  1  0
  8  9  2  0
  9 10  1  0
 10 11  2  0
 11 14  1  0
 14 12  2  0
 12  8  1  0
 16 18  2  0
 18 19  1  0
 19 20  2  0
 20 22  1  0
 22 21  2  0
 21 16  1  0
M  END

$$$$
