No_2915-gen_results/8p0m/2024-11-26-14-13-15/
     RDKit          3D

  6  5  0  0  0  0  0  0  0  0999 V2000
  -28.0162   -0.8135   28.8779 C   0  0  0  0  0  0  0  0  0  0  0  0
  -27.0636   -0.1190   28.6079 C   0  0  0  0  0  0  0  0  0  0  0  0
  -26.9849    0.5972   27.5218 N   0  0  0  0  0  0  0  0  0  0  0  0
  -29.2908   -0.4367   28.3661 C   0  0  0  0  0  0  0  0  0  0  0  0
  -29.2798    0.6108   27.6917 C   0  0  0  0  0  0  0  0  0  0  0  0
  -25.7478    1.2454   27.0986 C   0  0  0  0  0  0  0  0  0  0  0  0
  1  2  1  0
  2  3  2  3
  1  4  1  0
  4  5  1  0
  3  6  1  0
M  END

$$$$
