No_2606-gen_results/8p0m/2024-11-26-14-13-15/
     RDKit          3D

 13 14  0  0  0  0  0  0  0  0999 V2000
  -28.0727   -1.2542   28.5316 F   0  0  0  0  0  0  0  0  0  0  0  0
  -27.0607   -0.6291   28.8721 C   0  0  0  0  0  0  0  0  0  0  0  0
  -26.3579   -0.0711   28.0115 C   0  0  0  0  0  0  0  0  0  0  0  0
  -25.0715    0.5530   28.2555 C   0  0  0  0  0  0  0  0  0  0  0  0
  -24.1898    1.2182   27.2815 C   0  0  0  0  0  0  0  0  0  0  0  0
  -22.9240    1.7697   27.6696 C   0  0  0  0  0  0  0  0  0  0  0  0
  -22.3814    1.3019   28.8989 C   0  0  0  0  0  0  0  0  0  0  0  0
  -24.2456    0.2623   29.4217 C   0  0  0  0  0  0  0  0  0  0  0  0
  -23.0145    0.6454   29.7291 C   0  0  0  0  0  0  0  0  0  0  0  0
  -26.6530   -0.7098   30.3078 C   0  0  0  0  0  0  0  0  0  0  0  0
  -25.8096   -0.2633   30.8286 C   0  0  0  0  0  0  0  0  0  0  0  0
  -24.8132   -0.1545   30.6831 C   0  0  0  0  0  0  0  0  0  0  0  0
  -24.7261    1.6008   25.9901 C   0  0  0  0  0  0  0  0  0  0  0  0
  1  2  1  0
  2  3  2  0
  3  4  1  0
  2 10  1  0
 10 11  2  0
  8 12  1  0
 11 12  1  0
  5 13  1  0
  4  5  2  0
  5  6  1  0
  6  7  2  0
  7  9  1  0
  9  8  2  0
  8  4  1  0
M  END

$$$$
