No_2137-gen_results/8p0m/2024-11-26-14-13-15/
     RDKit          3D

 22 24  0  0  0  0  0  0  0  0999 V2000
  -28.0162   -0.8135   28.8779 C   0  0  0  0  0  0  0  0  0  0  0  0
  -28.4690   -0.7850   29.8287 C   0  0  0  0  0  0  0  0  0  0  0  0
  -26.5042   -0.7777   28.8766 C   0  0  0  0  0  0  0  0  0  0  0  0
  -25.8103   -0.8531   30.1028 C   0  0  0  0  0  0  0  0  0  0  0  0
  -27.9906   -0.8916   31.2257 C   0  0  0  0  0  0  0  0  0  0  0  0
  -26.6042   -0.8676   31.2652 C   0  0  0  0  0  0  0  0  0  0  0  0
  -29.9203   -0.8331   29.8239 F   0  0  0  0  0  0  0  0  0  0  0  0
  -24.3796   -0.8022   30.1424 C   0  0  0  0  0  0  0  0  0  0  0  0
  -23.6936   -1.4967   30.7153 N   0  0  0  0  0  0  0  0  0  0  0  0
  -23.6787    0.2555   29.3689 C   0  0  0  0  0  0  0  0  0  0  0  0
  -22.3119    0.1012   29.4294 C   0  0  0  0  0  0  0  0  0  0  0  0
  -22.3875   -1.5099   30.8967 N   0  0  0  0  0  0  0  0  0  0  0  0
  -21.6849   -0.7108   30.1823 N   0  0  0  0  0  0  0  0  0  0  0  0
  -21.5587    1.0454   28.6338 N   0  0  0  0  0  0  0  0  0  0  0  0
  -25.9397   -0.6638   27.6487 O   0  0  0  0  0  0  0  0  0  0  0  0
  -25.9821    0.4895   26.9037 C   0  0  0  0  0  0  0  0  0  0  0  0
  -26.7088    0.6339   25.9144 C   0  0  0  0  0  0  0  0  0  0  0  0
  -27.5146   -0.4671   25.4362 C   0  0  0  0  0  0  0  0  0  0  0  0
  -28.3603   -0.3144   24.2925 C   0  0  0  0  0  0  0  0  0  0  0  0
  -29.1234    0.4831   24.2424 C   0  0  0  0  0  0  0  0  0  0  0  0
  -28.6344    1.8845   24.6925 C   0  0  0  0  0  0  0  0  0  0  0  0
  -27.5326    1.8725   25.6272 C   0  0  0  0  0  0  0  0  0  0  0  0
  2  7  1  0
  4  8  1  0
 11 14  1  0
  3 15  1  0
 15 16  1  0
 16 17  1  0
 17 18  2  0
 18 19  1  0
 19 20  2  0
 20 21  1  0
 21 22  2  0
 22 17  1  0
  8  9  2  0
  9 12  1  0
 12 13  2  0
 13 11  1  0
 11 10  2  0
 10  8  1  0
  1  2  2  0
  2  5  1  0
  5  6  2  0
  6  4  1  0
  4  3  2  0
  3  1  1  0
M  END

$$$$
