No_2980-gen_results/8p0m/2024-11-26-14-13-15/
     RDKit          3D

 16 17  0  0  0  0  0  0  0  0999 V2000
  -28.0162   -0.8135   28.8779 C   0  0  0  0  0  0  0  0  0  0  0  0
  -28.4690   -0.7850   29.8287 C   0  0  0  0  0  0  0  0  0  0  0  0
  -26.5455   -0.8762   28.8500 C   0  0  0  0  0  0  0  0  0  0  0  0
  -25.8041   -1.0324   30.0571 C   0  0  0  0  0  0  0  0  0  0  0  0
  -27.9437   -0.9869   31.2075 C   0  0  0  0  0  0  0  0  0  0  0  0
  -26.5825   -1.0386   31.2231 C   0  0  0  0  0  0  0  0  0  0  0  0
  -30.0606   -0.7371   29.9024 C   0  0  0  0  0  0  0  0  0  0  0  0
  -30.5524   -0.2769   29.0111 O   0  0  0  0  0  0  0  0  0  0  0  0
  -30.7296   -1.2195   30.9500 O   0  0  0  0  0  0  0  0  0  0  0  0
  -24.3691   -1.0943   30.0746 C   0  0  0  0  0  0  0  0  0  0  0  0
  -23.5797   -0.5815   29.1065 C   0  0  0  0  0  0  0  0  0  0  0  0
  -23.7673    0.5293   28.3517 C   0  0  0  0  0  0  0  0  0  0  0  0
  -23.0679    1.5910   28.4351 C   0  0  0  0  0  0  0  0  0  0  0  0
  -23.5093    2.7548   27.8679 N   0  0  0  0  0  0  0  0  0  0  0  0
  -24.6603    2.4796   27.2291 C   0  0  0  0  0  0  0  0  0  0  0  0
  -24.9870    0.9282   27.6193 C   0  0  0  0  0  0  0  0  0  0  0  0
  2  7  1  0
  7  8  2  0
  7  9  1  0
  4 10  1  0
 10 11  1  0
 11 12  1  0
 12 13  1  0
 13 14  1  0
 14 15  2  0
 12 16  1  0
 15 16  1  0
  1  2  2  0
  2  5  1  0
  5  6  2  0
  6  4  1  0
  4  3  2  0
  3  1  1  0
M  END

$$$$
