No_299-gen_results/8p0m/2024-11-26-14-13-15/
     RDKit          3D

 17 17  0  0  0  0  0  0  0  0999 V2000
  -28.0162   -0.8135   28.8779 C   0  0  0  0  0  0  0  0  0  0  0  0
  -28.4690   -0.7850   29.8287 C   0  0  0  0  0  0  0  0  0  0  0  0
  -27.0871    0.2903   28.6377 C   0  0  0  0  0  0  0  0  0  0  0  0
  -26.8317    1.2487   29.5869 C   0  0  0  0  0  0  0  0  0  0  0  0
  -28.3914    0.0801   31.0065 C   0  0  0  0  0  0  0  0  0  0  0  0
  -27.4940    1.1521   30.7841 C   0  0  0  0  0  0  0  0  0  0  0  0
  -26.2087    0.3944   27.1645 Cl  0  0  0  0  0  0  0  0  0  0  0  0
  -29.5072   -1.8965   30.4046 C   0  0  0  0  0  0  0  0  0  0  0  0
  -29.4241   -2.6331   31.1997 O   0  0  0  0  0  0  0  0  0  0  0  0
  -30.5540   -1.9640   29.5080 O   0  0  0  0  0  0  0  0  0  0  0  0
  -25.8896    2.3683   29.3050 C   0  0  0  0  0  0  0  0  0  0  0  0
  -26.2929    3.5682   29.7244 C   0  0  0  0  0  0  0  0  0  0  0  0
  -24.6144    2.1567   28.7889 C   0  0  0  0  0  0  0  0  0  0  0  0
  -26.4397    3.9476   30.7831 C   0  0  0  0  0  0  0  0  0  0  0  0
  -23.6742    1.9264   29.6239 F   0  0  0  0  0  0  0  0  0  0  0  0
  -26.7798    5.3295   31.2918 C   0  0  0  0  0  0  0  0  0  0  0  0
  -24.5894    1.0603   27.9662 F   0  0  0  0  0  0  0  0  0  0  0  0
  3  7  1  0
  2  8  1  0
  8  9  2  0
  8 10  1  0
  4 11  1  0
 11 12  1  0
 11 13  1  0
 12 14  2  3
 13 15  1  0
 14 16  1  0
 13 17  1  0
  1  2  2  0
  2  5  1  0
  5  6  2  0
  6  4  1  0
  4  3  2  0
  3  1  1  0
M  END

$$$$
