No_2628-gen_results/8p0m/2024-11-26-14-13-15/
     RDKit          3D

 21 22  0  0  0  0  0  0  0  0999 V2000
  -28.0162   -0.8135   28.8779 C   0  0  0  0  0  0  0  0  0  0  0  0
  -27.0636   -0.1190   28.6079 C   0  0  0  0  0  0  0  0  0  0  0  0
  -25.7923   -0.4302   29.0761 C   0  0  0  0  0  0  0  0  0  0  0  0
  -24.5456    0.3494   28.8225 C   0  0  0  0  0  0  0  0  0  0  0  0
  -24.6586    1.4196   27.8878 C   0  0  0  0  0  0  0  0  0  0  0  0
  -25.9471    1.6811   27.3792 C   0  0  0  0  0  0  0  0  0  0  0  0
  -27.0439    0.9739   27.6871 C   0  0  0  0  0  0  0  0  0  0  0  0
  -27.9517   -1.7518   29.9375 N   0  0  0  0  0  0  0  0  0  0  0  0
  -29.1984   -0.5344   28.5255 O   0  0  0  0  0  0  0  0  0  0  0  0
  -29.0453   -2.5720   30.4456 C   0  0  0  0  0  0  0  0  0  0  0  0
  -23.4612    2.1665   27.5992 C   0  0  0  0  0  0  0  0  0  0  0  0
  -22.2719    1.7475   28.0628 N   0  0  0  0  0  0  0  0  0  0  0  0
  -23.5406    3.0820   26.7223 O   0  0  0  0  0  0  0  0  0  0  0  0
  -29.8174   -3.0554   29.7470 C   0  0  0  0  0  0  0  0  0  0  0  0
  -30.6843   -4.1614   30.3736 C   0  0  0  0  0  0  0  0  0  0  0  0
  -31.6377   -4.7662   29.5939 C   0  0  0  0  0  0  0  0  0  0  0  0
  -31.3275   -5.8715   28.9402 C   0  0  0  0  0  0  0  0  0  0  0  0
  -32.9062   -4.1801   29.3031 C   0  0  0  0  0  0  0  0  0  0  0  0
  -32.0458   -6.4916   27.8653 C   0  0  0  0  0  0  0  0  0  0  0  0
  -33.7418   -4.7796   28.3324 C   0  0  0  0  0  0  0  0  0  0  0  0
  -33.2978   -5.9417   27.6694 C   0  0  0  0  0  0  0  0  0  0  0  0
  1  2  1  0
  1  8  1  0
  1  9  2  0
  8 10  1  0
  5 11  1  0
 11 12  1  0
 11 13  2  0
 10 14  1  0
 14 15  1  0
 15 16  1  0
  2  3  2  0
  3  4  1  0
  4  5  2  0
  5  6  1  0
  6  7  2  0
  7  2  1  0
 16 17  2  0
 17 19  1  0
 19 21  2  0
 21 20  1  0
 20 18  2  0
 18 16  1  0
M  END

$$$$
