No_2726-gen_results/8p0m/2024-11-26-14-13-15/
     RDKit          3D

 18 18  0  0  0  0  0  0  0  0999 V2000
  -28.0162   -0.8135   28.8779 C   0  0  0  0  0  0  0  0  0  0  0  0
  -27.0636   -0.1189   28.6079 C   0  0  0  0  0  0  0  0  0  0  0  0
  -26.9287    1.1713   29.0083 C   0  0  0  0  0  0  0  0  0  0  0  0
  -25.7702    2.0341   28.6884 C   0  0  0  0  0  0  0  0  0  0  0  0
  -24.7141    1.4431   27.9188 C   0  0  0  0  0  0  0  0  0  0  0  0
  -24.8590    0.0783   27.5836 C   0  0  0  0  0  0  0  0  0  0  0  0
  -25.9647   -0.6606   27.9164 C   0  0  0  0  0  0  0  0  0  0  0  0
  -28.6510   -0.6086   30.2543 C   0  0  0  0  0  0  0  0  0  0  0  0
  -29.6513   -1.3216   30.5931 C   0  0  0  0  0  0  0  0  0  0  0  0
  -30.1116   -2.2865   29.9212 C   0  0  0  0  0  0  0  0  0  0  0  0
  -31.2447   -3.0583   30.4732 C   0  0  0  0  0  0  0  0  0  0  0  0
  -31.7095   -4.1685   29.7229 C   0  0  0  0  0  0  0  0  0  0  0  0
  -30.9708   -4.7291   28.7996 C   0  0  0  0  0  0  0  0  0  0  0  0
  -31.5572   -5.7373   28.0260 C   0  0  0  0  0  0  0  0  0  0  0  0
  -30.7677   -6.3367   26.9853 C   0  0  0  0  0  0  0  0  0  0  0  0
  -23.5371    2.1657   27.5628 C   0  0  0  0  0  0  0  0  0  0  0  0
  -22.4063    2.1909   27.9010 N   0  0  0  0  0  0  0  0  0  0  0  0
  -23.8274    3.1375   26.6470 O   0  0  0  0  0  0  0  0  0  0  0  0
  1  2  1  0
  1  8  1  0
  8  9  1  0
  9 10  2  3
 10 11  1  0
 11 12  2  3
 12 13  1  0
 13 14  2  3
 14 15  1  0
  5 16  1  0
 16 17  2  0
 16 18  1  0
  2  3  2  0
  3  4  1  0
  4  5  2  0
  5  6  1  0
  6  7  2  0
  7  2  1  0
M  END

$$$$
