No_2890-gen_results/8p0m/2024-11-26-14-13-15/
     RDKit          3D

 15 15  0  0  0  0  0  0  0  0999 V2000
  -28.0162   -0.8135   28.8779 C   0  0  0  0  0  0  0  0  0  0  0  0
  -28.4690   -0.7850   29.8287 C   0  0  0  0  0  0  0  0  0  0  0  0
  -28.1960    0.3478   28.0550 C   0  0  0  0  0  0  0  0  0  0  0  0
  -29.0191    1.3501   28.3782 C   0  0  0  0  0  0  0  0  0  0  0  0
  -29.4107    0.1803   30.3782 C   0  0  0  0  0  0  0  0  0  0  0  0
  -29.6059    1.2495   29.6193 C   0  0  0  0  0  0  0  0  0  0  0  0
  -27.4478    0.3799   26.7122 C   0  0  0  0  0  0  0  0  0  0  0  0
  -25.9806    0.2547   26.7837 C   0  0  0  0  0  0  0  0  0  0  0  0
  -25.2375    1.2324   27.4671 C   0  0  0  0  0  0  0  0  0  0  0  0
  -23.8851    0.9844   27.7611 C   0  0  0  0  0  0  0  0  0  0  0  0
  -23.2090    1.0704   28.7324 C   0  0  0  0  0  0  0  0  0  0  0  0
  -22.4100    0.4357   29.0682 C   0  0  0  0  0  0  0  0  0  0  0  0
  -21.6991   -0.5906   29.4391 C   0  0  0  0  0  0  0  0  0  0  0  0
  -28.0627    0.4957   25.5042 C   0  0  0  0  0  0  0  0  0  0  0  0
  -27.6874    0.0101   24.5135 N   0  0  0  0  0  0  0  0  0  0  0  0
  3  7  1  0
  7  8  1  0
  8  9  1  0
  9 10  2  3
 10 11  1  0
 11 12  2  3
 12 13  1  0
  7 14  1  0
 14 15  1  0
  1  2  2  0
  2  5  1  0
  5  6  2  0
  6  4  1  0
  4  3  2  0
  3  1  1  0
M  END

$$$$
