No_2675-gen_results/8p0m/2024-11-26-14-13-15/
     RDKit          3D

 17 18  0  0  0  0  0  0  0  0999 V2000
  -28.0162   -0.8135   28.8779 C   0  0  0  0  0  0  0  0  0  0  0  0
  -28.4690   -0.7850   29.8287 C   0  0  0  0  0  0  0  0  0  0  0  0
  -26.5042   -0.7777   28.8766 C   0  0  0  0  0  0  0  0  0  0  0  0
  -25.6540   -0.6597   27.7191 C   0  0  0  0  0  0  0  0  0  0  0  0
  -27.9180   -0.9374   31.1824 C   0  0  0  0  0  0  0  0  0  0  0  0
  -26.5423   -0.9399   31.2606 C   0  0  0  0  0  0  0  0  0  0  0  0
  -25.7832   -0.8935   30.1201 C   0  0  0  0  0  0  0  0  0  0  0  0
  -25.8989    0.3149   26.7473 C   0  0  0  0  0  0  0  0  0  0  0  0
  -26.7729    0.4751   26.2575 C   0  0  0  0  0  0  0  0  0  0  0  0
  -26.9520    1.5350   25.1864 C   0  0  0  0  0  0  0  0  0  0  0  0
  -28.1917    1.8421   24.6418 C   0  0  0  0  0  0  0  0  0  0  0  0
  -29.2276    0.9387   24.7259 C   0  0  0  0  0  0  0  0  0  0  0  0
  -30.4574    1.3089   24.3447 C   0  0  0  0  0  0  0  0  0  0  0  0
  -30.6191    2.6248   23.8051 C   0  0  0  0  0  0  0  0  0  0  0  0
  -29.6092    3.5288   23.7831 C   0  0  0  0  0  0  0  0  0  0  0  0
  -28.3908    3.1956   24.2665 C   0  0  0  0  0  0  0  0  0  0  0  0
  -24.6004    0.8431   26.2271 C   0  0  0  0  0  0  0  0  0  0  0  0
  3  4  1  0
  4  8  1  0
  8  9  2  3
  9 10  1  0
 10 11  1  0
  8 17  1  0
 11 12  2  0
 12 13  1  0
 13 14  2  0
 14 15  1  0
 15 16  2  0
 16 11  1  0
  1  2  2  0
  2  5  1  0
  5  6  2  0
  6  7  1  0
  7  3  2  0
  3  1  1  0
M  END

$$$$
