No_2885-gen_results/8p0m/2024-11-26-14-13-15/
     RDKit          3D

 34 38  0  0  0  0  0  0  0  0999 V2000
  -28.0162   -0.8135   28.8779 C   0  0  0  0  0  0  0  0  0  0  0  0
  -28.4690   -0.7850   29.8287 C   0  0  0  0  0  0  0  0  0  0  0  0
  -26.5455   -0.8762   28.8500 C   0  0  0  0  0  0  0  0  0  0  0  0
  -25.8041   -1.0324   30.0571 C   0  0  0  0  0  0  0  0  0  0  0  0
  -27.9437   -0.9869   31.2075 C   0  0  0  0  0  0  0  0  0  0  0  0
  -26.5825   -1.0386   31.2231 C   0  0  0  0  0  0  0  0  0  0  0  0
  -24.4246   -0.9571   29.9095 C   0  0  0  0  0  0  0  0  0  0  0  0
  -23.6646   -1.5515   30.5005 C   0  0  0  0  0  0  0  0  0  0  0  0
  -23.8906   -0.1307   28.8204 C   0  0  0  0  0  0  0  0  0  0  0  0
  -24.4293    0.8765   28.0749 C   0  0  0  0  0  0  0  0  0  0  0  0
  -24.0867    1.7769   27.6450 C   0  0  0  0  0  0  0  0  0  0  0  0
  -24.7887    2.7790   26.7732 C   0  0  0  0  0  0  0  0  0  0  0  0
  -26.1150    2.5516   26.5872 C   0  0  0  0  0  0  0  0  0  0  0  0
  -26.6105    1.4595   27.0475 C   0  0  0  0  0  0  0  0  0  0  0  0
  -25.8920    0.5635   27.7992 C   0  0  0  0  0  0  0  0  0  0  0  0
  -22.3388   -1.3689   30.2153 N   0  0  0  0  0  0  0  0  0  0  0  0
  -22.5074   -0.3965   29.1605 C   0  0  0  0  0  0  0  0  0  0  0  0
  -21.3637    0.0704   28.5372 N   0  0  0  0  0  0  0  0  0  0  0  0
  -30.0466   -0.9497   30.0431 C   0  0  0  0  0  0  0  0  0  0  0  0
  -30.6594   -1.6197   30.5593 O   0  0  0  0  0  0  0  0  0  0  0  0
  -30.6931   -0.0140   29.2185 O   0  0  0  0  0  0  0  0  0  0  0  0
  -31.8537    0.2788   29.2517 C   0  0  0  0  0  0  0  0  0  0  0  0
  -32.2000    1.2546   28.2788 C   0  0  0  0  0  0  0  0  0  0  0  0
  -31.4576    2.1609   28.1894 F   0  0  0  0  0  0  0  0  0  0  0  0
  -32.2508    0.6606   26.9803 F   0  0  0  0  0  0  0  0  0  0  0  0
  -33.5265    1.7033   28.3985 F   0  0  0  0  0  0  0  0  0  0  0  0
  -27.9672    1.1388   26.8979 O   0  0  0  0  0  0  0  0  0  0  0  0
  -28.4774    1.3807   25.5934 C   0  0  0  0  0  0  0  0  0  0  0  0
  -29.4303    0.4669   25.1898 C   0  0  0  0  0  0  0  0  0  0  0  0
  -29.4809    0.3014   23.9277 C   0  0  0  0  0  0  0  0  0  0  0  0
  -30.4427   -0.6892   23.6135 C   0  0  0  0  0  0  0  0  0  0  0  0
  -31.1217   -1.5152   24.5409 C   0  0  0  0  0  0  0  0  0  0  0  0
  -31.1993   -1.2374   25.5506 C   0  0  0  0  0  0  0  0  0  0  0  0
  -30.2051   -0.2270   26.1970 C   0  0  0  0  0  0  0  0  0  0  0  0
  8 16  2  0
  9 17  1  0
 16 17  1  0
 17 18  1  0
  2 19  1  0
 19 20  2  0
 19 21  1  0
 21 22  1  0
 22 23  1  0
 23 24  1  0
 23 25  1  0
 23 26  1  0
 14 27  1  0
 27 28  1  0
 28 29  1  0
  8  7  1  0
 29 30  2  0
 30 31  1  0
 31 32  2  0
 32 33  1  0
 33 34  2  0
 34 29  1  0
  4  7  2  0
  7  9  1  0
  9 10  2  0
 15  3  2  0
  1  2  2  0
  2  5  1  0
  5  6  2  0
  6  4  1  0
  4  3  1  0
  3  1  1  0
 10 11  1  0
 11 12  2  0
 12 13  1  0
 13 14  2  0
 14 15  1  0
 15 10  1  0
M  END

$$$$
