No_2707-gen_results/8p0m/2024-11-26-14-13-15/
     RDKit          3D

 35 37  0  0  0  0  0  0  0  0999 V2000
  -28.0162   -0.8135   28.8779 C   0  0  0  0  0  0  0  0  0  0  0  0
  -28.4690   -0.7850   29.8287 C   0  0  0  0  0  0  0  0  0  0  0  0
  -26.5042   -0.7777   28.8766 C   0  0  0  0  0  0  0  0  0  0  0  0
  -25.8103   -0.8531   30.1028 C   0  0  0  0  0  0  0  0  0  0  0  0
  -27.9906   -0.8916   31.2257 C   0  0  0  0  0  0  0  0  0  0  0  0
  -26.6042   -0.8676   31.2652 C   0  0  0  0  0  0  0  0  0  0  0  0
  -24.3894   -0.8049   30.1638 C   0  0  0  0  0  0  0  0  0  0  0  0
  -23.8172    0.4762   29.9118 C   0  0  0  0  0  0  0  0  0  0  0  0
  -22.5010    0.5449   29.4097 C   0  0  0  0  0  0  0  0  0  0  0  0
  -21.7696   -0.6524   29.2129 C   0  0  0  0  0  0  0  0  0  0  0  0
  -23.6939   -1.8206   29.2518 C   0  0  0  0  0  0  0  0  0  0  0  0
  -22.3271   -1.7235   29.1652 N   0  0  0  0  0  0  0  0  0  0  0  0
  -23.8529   -1.2742   31.6542 C   0  0  0  0  0  0  0  0  0  0  0  0
  -24.4403    1.7309   30.3371 C   0  0  0  0  0  0  0  0  0  0  0  0
  -24.4884    2.1403   31.4689 O   0  0  0  0  0  0  0  0  0  0  0  0
  -25.3592    2.2539   29.4049 N   0  0  0  0  0  0  0  0  0  0  0  0
  -26.1501    3.4923   29.7328 C   0  0  0  0  0  0  0  0  0  0  0  0
  -25.7708    4.5558   28.9520 C   0  0  0  0  0  0  0  0  0  0  0  0
  -25.3033    5.4598   29.6730 F   0  0  0  0  0  0  0  0  0  0  0  0
  -24.7964    4.2480   28.0160 F   0  0  0  0  0  0  0  0  0  0  0  0
  -26.8285    5.0466   28.2332 F   0  0  0  0  0  0  0  0  0  0  0  0
  -27.1549    3.3453   30.5275 N   0  0  0  0  0  0  0  0  0  0  0  0
  -30.0606   -0.7504   29.8164 C   0  0  0  0  0  0  0  0  0  0  0  0
  -30.7611   -1.4761   30.3592 O   0  0  0  0  0  0  0  0  0  0  0  0
  -30.5732    0.2166   29.0761 O   0  0  0  0  0  0  0  0  0  0  0  0
  -28.0220    3.7954   30.8570 C   0  0  0  0  0  0  0  0  0  0  0  0
  -28.6159    4.7656   30.4574 C   0  0  0  0  0  0  0  0  0  0  0  0
  -29.9309    5.2936   30.9141 C   0  0  0  0  0  0  0  0  0  0  0  0
  -30.5395    4.5166   31.8898 C   0  0  0  0  0  0  0  0  0  0  0  0
  -30.0249    3.3608   32.3985 C   0  0  0  0  0  0  0  0  0  0  0  0
  -28.8142    2.9718   31.9366 C   0  0  0  0  0  0  0  0  0  0  0  0
  -20.4597   -0.4735   28.7366 N   0  0  0  0  0  0  0  0  0  0  0  0
  -30.7003    2.6850   33.3719 O   0  0  0  0  0  0  0  0  0  0  0  0
  -30.7601    2.8699   34.5384 C   0  0  0  0  0  0  0  0  0  0  0  0
  -30.7181    1.9748   35.4283 C   0  0  0  0  0  0  0  0  0  0  0  0
  4  7  1  0
  7  8  1  0
  9 10  1  0
  7 11  1  0
 10 12  1  0
  7 13  1  0
  8 14  1  0
 14 15  2  0
 14 16  1  0
 16 17  1  0
 17 18  1  0
 18 19  1  0
 18 20  1  0
 18 21  1  0
 17 22  2  3
  2 23  1  0
 23 24  2  0
 23 25  1  0
 22 26  1  0
 10 32  1  0
 30 33  1  0
 33 34  1  0
 34 35  2  0
  8  9  1  0
 12 11  1  0
  1  2  2  0
  2  5  1  0
  5  6  2  0
  6  4  1  0
  4  3  2  0
  3  1  1  0
 26 27  2  0
 27 28  1  0
 28 29  2  0
 29 30  1  0
 30 31  2  0
 31 26  1  0
M  END

$$$$
