No_2373-gen_results/8p0m/2024-11-26-14-13-15/
     RDKit          3D

 26 28  0  0  0  0  0  0  0  0999 V2000
  -28.0162   -0.8135   28.8779 C   0  0  0  0  0  0  0  0  0  0  0  0
  -28.4690   -0.7850   29.8287 C   0  0  0  0  0  0  0  0  0  0  0  0
  -28.1960    0.3478   28.0550 C   0  0  0  0  0  0  0  0  0  0  0  0
  -29.0191    1.3501   28.3782 C   0  0  0  0  0  0  0  0  0  0  0  0
  -29.4107    0.1803   30.3782 C   0  0  0  0  0  0  0  0  0  0  0  0
  -29.6059    1.2495   29.6193 C   0  0  0  0  0  0  0  0  0  0  0  0
  -27.4597    0.3802   26.7091 C   0  0  0  0  0  0  0  0  0  0  0  0
  -27.9298    0.5836   25.6804 C   0  0  0  0  0  0  0  0  0  0  0  0
  -27.1251    0.5285   24.4261 C   0  0  0  0  0  0  0  0  0  0  0  0
  -26.0345    0.1369   26.7811 C   0  0  0  0  0  0  0  0  0  0  0  0
  -25.1680    0.2141   25.7256 C   0  0  0  0  0  0  0  0  0  0  0  0
  -25.7623    0.3526   24.5243 C   0  0  0  0  0  0  0  0  0  0  0  0
  -29.3652    0.7464   25.3554 C   0  0  0  0  0  0  0  0  0  0  0  0
  -30.1884    0.1503   25.9365 N   0  0  0  0  0  0  0  0  0  0  0  0
  -31.3058   -0.3372   25.5057 C   0  0  0  0  0  0  0  0  0  0  0  0
  -29.7324    1.6210   24.5448 O   0  0  0  0  0  0  0  0  0  0  0  0
  -32.1243   -1.0273   26.4804 C   0  0  0  0  0  0  0  0  0  0  0  0
  -31.0909   -1.2970   24.3623 C   0  0  0  0  0  0  0  0  0  0  0  0
  -32.2188    0.8314   25.0033 C   0  0  0  0  0  0  0  0  0  0  0  0
  -32.4724   -0.5101   27.6686 C   0  0  0  0  0  0  0  0  0  0  0  0
  -32.9792   -1.2201   28.7637 C   0  0  0  0  0  0  0  0  0  0  0  0
  -33.3850   -0.5928   29.9281 C   0  0  0  0  0  0  0  0  0  0  0  0
  -33.5042    0.8164   29.9718 C   0  0  0  0  0  0  0  0  0  0  0  0
  -33.0868    1.5657   28.8643 C   0  0  0  0  0  0  0  0  0  0  0  0
  -32.6037    0.9385   27.7582 C   0  0  0  0  0  0  0  0  0  0  0  0
  -32.4124   -2.6882   26.2715 Cl  0  0  0  0  0  0  0  0  0  0  0  0
  3  7  1  0
  8 13  1  0
 13 14  1  0
 14 15  1  0
 13 16  2  0
 15 17  1  0
 15 18  1  0
 15 19  1  0
 17 20  1  0
 17 26  1  0
 20 21  2  0
 21 22  1  0
 22 23  2  0
 23 24  1  0
 24 25  2  0
 25 20  1  0
  1  2  2  0
  2  5  1  0
  5  6  2  0
  6  4  1  0
  4  3  2  0
  3  1  1  0
  7  8  1  0
  8  9  2  0
  9 12  1  0
 12 11  2  0
 11 10  1  0
 10  7  2  0
M  END

$$$$
