No_2490-gen_results/8p0m/2024-11-26-14-13-15/
     RDKit          3D

  8  8  0  0  0  0  0  0  0  0999 V2000
  -28.0162   -0.8135   28.8779 C   0  0  0  0  0  0  0  0  0  0  0  0
  -28.4690   -0.7850   29.8287 C   0  0  0  0  0  0  0  0  0  0  0  0
  -27.1356    0.2359   28.5352 C   0  0  0  0  0  0  0  0  0  0  0  0
  -26.8050    1.0509   29.2763 C   0  0  0  0  0  0  0  0  0  0  0  0
  -28.2372    0.1503   30.9300 C   0  0  0  0  0  0  0  0  0  0  0  0
  -27.3522    1.1239   30.6071 C   0  0  0  0  0  0  0  0  0  0  0  0
  -26.5569    0.1568   27.2643 F   0  0  0  0  0  0  0  0  0  0  0  0
  -29.3671   -1.8387   30.2547 F   0  0  0  0  0  0  0  0  0  0  0  0
  3  7  1  0
  2  8  1  0
  1  2  2  0
  2  5  1  0
  5  6  2  0
  6  4  1  0
  4  3  2  0
  3  1  1  0
M  END

$$$$
