No_200-gen_results/8p0m/2024-11-26-14-13-15/
     RDKit          3D

 18 20  0  0  0  0  0  0  0  0999 V2000
  -28.0162   -0.8135   28.8779 C   0  0  0  0  0  0  0  0  0  0  0  0
  -28.4690   -0.7850   29.8287 C   0  0  0  0  0  0  0  0  0  0  0  0
  -27.1356    0.2359   28.5352 C   0  0  0  0  0  0  0  0  0  0  0  0
  -26.3351    0.2900   27.2835 C   0  0  0  0  0  0  0  0  0  0  0  0
  -28.2789    0.0305   30.6941 C   0  0  0  0  0  0  0  0  0  0  0  0
  -27.4578    1.1551   30.6624 C   0  0  0  0  0  0  0  0  0  0  0  0
  -26.7863    1.2369   29.4971 C   0  0  0  0  0  0  0  0  0  0  0  0
  -24.9952    0.3890   27.4877 C   0  0  0  0  0  0  0  0  0  0  0  0
  -24.4558    1.3524   28.3706 C   0  0  0  0  0  0  0  0  0  0  0  0
  -24.9861    1.9871   29.1878 C   0  0  0  0  0  0  0  0  0  0  0  0
  -25.4759    2.8282   30.1481 C   0  0  0  0  0  0  0  0  0  0  0  0
  -25.8112    2.1189   29.5825 C   0  0  0  0  0  0  0  0  0  0  0  0
  -26.5286    3.2787   28.4108 C   0  0  0  0  0  0  0  0  0  0  0  0
  -25.1575    1.6666   30.5477 F   0  0  0  0  0  0  0  0  0  0  0  0
  -26.5223    3.0962   28.9220 O   0  0  0  0  0  0  0  0  0  0  0  0
  -27.5082    3.7317   30.0514 C   0  0  0  0  0  0  0  0  0  0  0  0
  -25.1521    1.5231   28.8547 O   0  0  0  0  0  0  0  0  0  0  0  0
  -24.6035    0.2646   29.4520 C   0  0  0  0  0  0  0  0  0  0  0  0
  3  4  1  0
  4  8  1  0
  8  9  2  0
  9 10  1  0
 10 11  1  0
  7 12  1  0
 10 12  1  0
 12 13  1  0
 11 14  1  0
 13 15  1  0
 15 16  1  0
 10 17  1  0
  9 18  1  0
 17 18  1  0
  1  2  2  0
  2  5  1  0
  5  6  2  0
  6  7  1  0
  7  3  2  0
  3  1  1  0
M  END

$$$$
