No_2589-gen_results/8p0m/2024-11-26-14-13-15/
     RDKit          3D

 13 14  0  0  0  0  0  0  0  0999 V2000
  -28.0162   -0.8135   28.8779 C   0  0  0  0  0  0  0  0  0  0  0  0
  -28.4690   -0.7850   29.8287 C   0  0  0  0  0  0  0  0  0  0  0  0
  -26.5042   -0.7777   28.8766 C   0  0  0  0  0  0  0  0  0  0  0  0
  -25.8103   -0.8531   30.1028 C   0  0  0  0  0  0  0  0  0  0  0  0
  -27.9906   -0.8916   31.2257 C   0  0  0  0  0  0  0  0  0  0  0  0
  -24.3976   -0.8364   30.1775 C   0  0  0  0  0  0  0  0  0  0  0  0
  -26.5754   -0.8899   31.2661 C   0  0  0  0  0  0  0  0  0  0  0  0
  -23.7708   -0.9176   31.0960 C   0  0  0  0  0  0  0  0  0  0  0  0
  -22.3018   -0.8444   31.2151 C   0  0  0  0  0  0  0  0  0  0  0  0
  -21.6829   -0.5879   30.0577 C   0  0  0  0  0  0  0  0  0  0  0  0
  -23.4571   -0.5861   29.0038 C   0  0  0  0  0  0  0  0  0  0  0  0
  -22.2391   -0.4694   28.9183 C   0  0  0  0  0  0  0  0  0  0  0  0
  -30.3127   -0.7599   29.8318 Cl  0  0  0  0  0  0  0  0  0  0  0  0
  4  6  1  0
  2 13  1  0
  6  8  2  0
  8  9  1  0
  9 10  2  0
 10 12  1  0
 12 11  2  0
 11  6  1  0
  1  2  2  0
  2  5  1  0
  5  7  2  0
  7  4  1  0
  4  3  2  0
  3  1  1  0
M  END

$$$$
