No_2785-gen_results/8p0m/2024-11-26-14-13-15/
     RDKit          3D

 32 35  0  0  0  0  0  0  0  0999 V2000
  -28.0162   -0.8135   28.8779 C   0  0  0  0  0  0  0  0  0  0  0  0
  -27.0636   -0.1190   28.6079 C   0  0  0  0  0  0  0  0  0  0  0  0
  -25.7647   -0.3897   29.0360 C   0  0  0  0  0  0  0  0  0  0  0  0
  -25.5296   -1.5302   29.9014 C   0  0  0  0  0  0  0  0  0  0  0  0
  -26.6888   -2.2893   30.1810 C   0  0  0  0  0  0  0  0  0  0  0  0
  -27.8727   -1.9508   29.7373 C   0  0  0  0  0  0  0  0  0  0  0  0
  -28.8984   -2.7212   30.0727 F   0  0  0  0  0  0  0  0  0  0  0  0
  -24.4046    0.2454   28.8089 C   0  0  0  0  0  0  0  0  0  0  0  0
  -24.0561    1.3384   29.5394 C   0  0  0  0  0  0  0  0  0  0  0  0
  -22.8883    2.1080   29.1809 C   0  0  0  0  0  0  0  0  0  0  0  0
  -22.1078    1.7070   28.0363 C   0  0  0  0  0  0  0  0  0  0  0  0
  -22.5842    0.6984   27.2550 C   0  0  0  0  0  0  0  0  0  0  0  0
  -23.6959    0.0493   27.5964 C   0  0  0  0  0  0  0  0  0  0  0  0
  -24.7514    1.7186   30.8078 C   0  0  0  0  0  0  0  0  0  0  0  0
  -24.9291    1.0010   31.6963 O   0  0  0  0  0  0  0  0  0  0  0  0
  -25.1512    3.0027   30.8078 O   0  0  0  0  0  0  0  0  0  0  0  0
  -27.1480    1.1213   27.7004 C   0  0  0  0  0  0  0  0  0  0  0  0
  -26.7687    1.6000   26.8686 C   0  0  0  0  0  0  0  0  0  0  0  0
  -26.9563    2.8273   26.3019 C   0  0  0  0  0  0  0  0  0  0  0  0
  -28.3143    2.0535   28.2796 C   0  0  0  0  0  0  0  0  0  0  0  0
  -29.1058    1.6281   29.4748 C   0  0  0  0  0  0  0  0  0  0  0  0
  -28.5415    3.2316   27.7174 C   0  0  0  0  0  0  0  0  0  0  0  0
  -27.8579    3.6753   26.7207 C   0  0  0  0  0  0  0  0  0  0  0  0
  -30.1084    1.0153   29.5258 O   0  0  0  0  0  0  0  0  0  0  0  0
  -28.5514    2.1541   30.7325 N   0  0  0  0  0  0  0  0  0  0  0  0
  -29.1824    1.9353   31.9951 C   0  0  0  0  0  0  0  0  0  0  0  0
  -28.3529    2.0239   32.9733 C   0  0  0  0  0  0  0  0  0  0  0  0
  -28.0317    0.9274   33.8077 C   0  0  0  0  0  0  0  0  0  0  0  0
  -26.9965    0.9517   34.8165 C   0  0  0  0  0  0  0  0  0  0  0  0
  -26.3922    2.1953   34.9850 C   0  0  0  0  0  0  0  0  0  0  0  0
  -26.6403    3.3003   34.1921 C   0  0  0  0  0  0  0  0  0  0  0  0
  -27.5864    3.1916   33.1762 C   0  0  0  0  0  0  0  0  0  0  0  0
  6  7  1  0
  3  8  1  0
  9 14  1  0
 14 15  2  0
 14 16  1  0
  2 17  1  0
 20 21  1  0
 21 24  2  0
 21 25  1  0
 25 26  1  0
 26 27  1  0
  1  2  2  0
  2  3  1  0
  3  4  2  0
  4  5  1  0
  5  6  2  0
  6  1  1  0
 27 28  2  0
 28 29  1  0
 29 30  2  0
 30 31  1  0
 31 32  2  0
 32 27  1  0
 17 18  2  0
 18 19  1  0
 19 23  2  0
 23 22  1  0
 22 20  2  0
 20 17  1  0
  8  9  2  0
  9 10  1  0
 10 11  2  0
 11 12  1  0
 12 13  2  0
 13  8  1  0
M  END

$$$$
