No_2296-gen_results/8p0m/2024-11-26-14-13-15/
     RDKit          3D

 20 22  0  0  0  0  0  0  0  0999 V2000
  -28.0162   -0.8135   28.8779 C   0  0  0  0  0  0  0  0  0  0  0  0
  -27.0636   -0.1189   28.6079 C   0  0  0  0  0  0  0  0  0  0  0  0
  -27.0010    0.6913   27.4910 C   0  0  0  0  0  0  0  0  0  0  0  0
  -28.1373    0.7363   26.6350 C   0  0  0  0  0  0  0  0  0  0  0  0
  -29.2360    0.0765   27.0690 C   0  0  0  0  0  0  0  0  0  0  0  0
  -29.2177   -0.6429   28.1747 C   0  0  0  0  0  0  0  0  0  0  0  0
  -28.0102   -1.6025   30.0500 N   0  0  0  0  0  0  0  0  0  0  0  0
  -28.8131   -1.7796   30.8725 C   0  0  0  0  0  0  0  0  0  0  0  0
  -26.8163   -2.5379   30.0907 C   0  0  0  0  0  0  0  0  0  0  0  0
  -28.8169   -1.0269   31.9839 C   0  0  0  0  0  0  0  0  0  0  0  0
  -29.8187   -2.8601   30.7825 C   0  0  0  0  0  0  0  0  0  0  0  0
  -29.8289   -1.1444   33.0009 C   0  0  0  0  0  0  0  0  0  0  0  0
  -30.7974   -3.0023   31.7645 C   0  0  0  0  0  0  0  0  0  0  0  0
  -30.7476   -2.1765   32.9076 C   0  0  0  0  0  0  0  0  0  0  0  0
  -26.3937   -3.3415   29.2609 C   0  0  0  0  0  0  0  0  0  0  0  0
  -25.0596   -3.8238   29.0997 C   0  0  0  0  0  0  0  0  0  0  0  0
  -24.7075   -4.8398   28.2602 C   0  0  0  0  0  0  0  0  0  0  0  0
  -23.3588   -4.9562   28.1848 C   0  0  0  0  0  0  0  0  0  0  0  0
  -22.7693   -3.8265   28.7243 C   0  0  0  0  0  0  0  0  0  0  0  0
  -23.8738   -3.0034   29.2744 C   0  0  0  0  0  0  0  0  0  0  0  0
  1  7  1  0
  7  8  1  0
  7  9  1  0
  9 15  2  3
 15 16  1  0
 16 17  1  0
 17 18  2  0
 18 19  1  0
 16 20  1  0
 19 20  2  0
  1  2  2  0
  2  3  1  0
  3  4  2  0
  4  5  1  0
  5  6  2  0
  6  1  1  0
  8 10  2  0
 10 12  1  0
 12 14  2  0
 14 13  1  0
 13 11  2  0
 11  8  1  0
M  END

$$$$
