No_2345-gen_results/8p0m/2024-11-26-14-13-15/
     RDKit          3D

 15 16  0  0  0  0  0  0  0  0999 V2000
  -28.0162   -0.8135   28.8779 C   0  0  0  0  0  0  0  0  0  0  0  0
  -27.0636   -0.1189   28.6079 C   0  0  0  0  0  0  0  0  0  0  0  0
  -26.9716    0.7139   27.5060 C   0  0  0  0  0  0  0  0  0  0  0  0
  -28.1053    0.7744   26.6421 C   0  0  0  0  0  0  0  0  0  0  0  0
  -29.2041    0.1179   27.0477 C   0  0  0  0  0  0  0  0  0  0  0  0
  -30.3488    0.2568   26.2203 C   0  0  0  0  0  0  0  0  0  0  0  0
  -29.1817   -0.6758   28.1173 C   0  0  0  0  0  0  0  0  0  0  0  0
  -31.3387   -0.2347   26.5001 O   0  0  0  0  0  0  0  0  0  0  0  0
  -30.2632    0.8658   25.0069 O   0  0  0  0  0  0  0  0  0  0  0  0
  -25.8153    1.5496   27.0551 C   0  0  0  0  0  0  0  0  0  0  0  0
  -25.5768    2.3680   26.4149 C   0  0  0  0  0  0  0  0  0  0  0  0
  -24.3452    3.1452   26.1532 C   0  0  0  0  0  0  0  0  0  0  0  0
  -23.1884    2.6036   26.7566 C   0  0  0  0  0  0  0  0  0  0  0  0
  -23.3080    1.4523   27.5113 C   0  0  0  0  0  0  0  0  0  0  0  0
  -24.5393    0.8833   27.7811 C   0  0  0  0  0  0  0  0  0  0  0  0
  5  6  1  0
  6  8  2  0
  6  9  1  0
  3 10  1  0
  1  2  2  0
  2  3  1  0
  3  4  2  0
  4  5  1  0
  5  7  2  0
  7  1  1  0
 10 11  2  0
 11 12  1  0
 12 13  2  0
 13 14  1  0
 14 15  2  0
 15 10  1  0
M  END

$$$$
