No_254-gen_results/8p0m/2024-11-26-14-13-15/
     RDKit          3D

 23 25  0  0  0  0  0  0  0  0999 V2000
  -28.0162   -0.8135   28.8779 C   0  0  0  0  0  0  0  0  0  0  0  0
  -28.4690   -0.7850   29.8287 C   0  0  0  0  0  0  0  0  0  0  0  0
  -26.5042   -0.7777   28.8766 C   0  0  0  0  0  0  0  0  0  0  0  0
  -25.9150   -0.6580   29.9230 C   0  0  0  0  0  0  0  0  0  0  0  0
  -27.9691   -0.7243   31.2047 C   0  0  0  0  0  0  0  0  0  0  0  0
  -26.5847   -0.6393   31.2062 C   0  0  0  0  0  0  0  0  0  0  0  0
  -29.9234   -0.8692   29.8565 F   0  0  0  0  0  0  0  0  0  0  0  0
  -24.3899   -0.5855   30.0029 C   0  0  0  0  0  0  0  0  0  0  0  0
  -23.8328    0.8142   30.1811 C   0  0  0  0  0  0  0  0  0  0  0  0
  -22.5686    1.0239   29.6103 C   0  0  0  0  0  0  0  0  0  0  0  0
  -21.8194    0.0593   28.9892 C   0  0  0  0  0  0  0  0  0  0  0  0
  -22.3761   -1.2645   28.8550 C   0  0  0  0  0  0  0  0  0  0  0  0
  -23.6573   -1.5311   29.2968 C   0  0  0  0  0  0  0  0  0  0  0  0
  -24.1287   -2.6688   29.0655 F   0  0  0  0  0  0  0  0  0  0  0  0
  -24.6472    2.0189   31.0321 Cl  0  0  0  0  0  0  0  0  0  0  0  0
  -20.6629    0.3231   28.6239 F   0  0  0  0  0  0  0  0  0  0  0  0
  -25.7949   -0.6824   27.5250 C   0  0  0  0  0  0  0  0  0  0  0  0
  -26.2820    0.2911   26.6095 C   0  0  0  0  0  0  0  0  0  0  0  0
  -25.7281    0.3810   25.3550 C   0  0  0  0  0  0  0  0  0  0  0  0
  -27.2137    1.2616   26.9382 C   0  0  0  0  0  0  0  0  0  0  0  0
  -27.5818    2.2478   26.0216 C   0  0  0  0  0  0  0  0  0  0  0  0
  -27.1043    2.1556   24.7619 C   0  0  0  0  0  0  0  0  0  0  0  0
  -26.0998    1.2150   24.3977 C   0  0  0  0  0  0  0  0  0  0  0  0
  2  7  1  0
  4  8  1  0
 13 14  1  0
  9 15  1  0
 11 16  1  0
  3 17  1  0
 17 18  1  0
 18 19  2  0
 19 23  1  0
 23 22  2  0
 22 21  1  0
 21 20  2  0
 20 18  1  0
  8  9  2  0
  9 10  1  0
 10 11  2  0
 11 12  1  0
 12 13  2  0
 13  8  1  0
  1  2  2  0
  2  5  1  0
  5  6  2  0
  6  4  1  0
  4  3  2  0
  3  1  1  0
M  END

$$$$
