No_2276-gen_results/8p0m/2024-11-26-14-13-15/
     RDKit          3D

 27 29  0  0  0  0  0  0  0  0999 V2000
  -28.0162   -0.8135   28.8779 C   0  0  0  0  0  0  0  0  0  0  0  0
  -27.0636   -0.1189   28.6079 C   0  0  0  0  0  0  0  0  0  0  0  0
  -25.7647   -0.3897   29.0360 C   0  0  0  0  0  0  0  0  0  0  0  0
  -24.5516    0.4058   28.7646 C   0  0  0  0  0  0  0  0  0  0  0  0
  -24.6957    1.4480   27.7988 C   0  0  0  0  0  0  0  0  0  0  0  0
  -23.5821    2.2166   27.4626 C   0  0  0  0  0  0  0  0  0  0  0  0
  -22.3211    1.8240   27.9807 C   0  0  0  0  0  0  0  0  0  0  0  0
  -22.1777    0.8172   28.8883 C   0  0  0  0  0  0  0  0  0  0  0  0
  -23.3181    0.0418   29.2597 C   0  0  0  0  0  0  0  0  0  0  0  0
  -27.8970   -1.8952   29.8587 C   0  0  0  0  0  0  0  0  0  0  0  0
  -26.6530   -2.3395   30.2732 C   0  0  0  0  0  0  0  0  0  0  0  0
  -25.5330   -1.5566   29.9092 C   0  0  0  0  0  0  0  0  0  0  0  0
  -29.0621   -2.7222   30.2424 C   0  0  0  0  0  0  0  0  0  0  0  0
  -28.9743   -3.9297   30.2769 O   0  0  0  0  0  0  0  0  0  0  0  0
  -29.9660   -2.1701   30.9789 O   0  0  0  0  0  0  0  0  0  0  0  0
  -23.6516    3.1742   26.5868 F   0  0  0  0  0  0  0  0  0  0  0  0
  -31.1835   -2.7741   31.2377 C   0  0  0  0  0  0  0  0  0  0  0  0
  -31.3624   -3.3674   32.2723 C   0  0  0  0  0  0  0  0  0  0  0  0
  -31.0270   -2.8434   33.3304 O   0  0  0  0  0  0  0  0  0  0  0  0
  -31.8014   -4.6815   32.3500 N   0  0  0  0  0  0  0  0  0  0  0  0
  -31.9033   -5.5139   33.6226 C   0  0  0  0  0  0  0  0  0  0  0  0
  -32.2218   -5.4020   31.1945 C   0  0  0  0  0  0  0  0  0  0  0  0
  -32.8807   -5.2550   30.3871 C   0  0  0  0  0  0  0  0  0  0  0  0
  -33.0759   -6.0189   29.1385 C   0  0  0  0  0  0  0  0  0  0  0  0
  -32.1847   -7.1083   29.0037 C   0  0  0  0  0  0  0  0  0  0  0  0
  -31.1906   -7.3772   29.9427 C   0  0  0  0  0  0  0  0  0  0  0  0
  -31.0824   -6.5966   31.0577 C   0  0  0  0  0  0  0  0  0  0  0  0
  3  4  1  0
 10 13  1  0
 13 14  2  0
 13 15  1  0
  6 16  1  0
 15 17  1  0
 17 18  1  0
 18 19  2  0
 18 20  1  0
 20 21  1  0
 20 22  1  0
 22 23  2  0
 23 24  1  0
 24 25  2  0
 25 26  1  0
 26 27  2  0
 27 22  1  0
  1  2  2  0
  2  3  1  0
  3 12  2  0
 12 11  1  0
 11 10  2  0
 10  1  1  0
  4  5  2  0
  5  6  1  0
  6  7  2  0
  7  8  1  0
  8  9  2  0
  9  4  1  0
M  END

$$$$
