No_2375-gen_results/8p0m/2024-11-26-14-13-15/
     RDKit          3D

 35 39  0  0  0  0  0  0  0  0999 V2000
  -28.0162   -0.8135   28.8779 C   0  0  0  0  0  0  0  0  0  0  0  0
  -27.0636   -0.1189   28.6079 C   0  0  0  0  0  0  0  0  0  0  0  0
  -25.7647   -0.3897   29.0360 C   0  0  0  0  0  0  0  0  0  0  0  0
  -25.5296   -1.5302   29.9014 C   0  0  0  0  0  0  0  0  0  0  0  0
  -26.6577   -2.2915   30.2035 C   0  0  0  0  0  0  0  0  0  0  0  0
  -27.8548   -1.9555   29.7630 C   0  0  0  0  0  0  0  0  0  0  0  0
  -24.5441    0.4126   28.7379 C   0  0  0  0  0  0  0  0  0  0  0  0
  -23.3231    0.0476   29.0499 C   0  0  0  0  0  0  0  0  0  0  0  0
  -22.1997    0.8411   28.7194 C   0  0  0  0  0  0  0  0  0  0  0  0
  -22.3632    1.8394   27.7172 C   0  0  0  0  0  0  0  0  0  0  0  0
  -24.6043    1.5165   27.8119 C   0  0  0  0  0  0  0  0  0  0  0  0
  -23.5582    2.1898   27.3588 C   0  0  0  0  0  0  0  0  0  0  0  0
  -29.0212   -2.7832   30.1825 C   0  0  0  0  0  0  0  0  0  0  0  0
  -30.1633   -2.3284   30.1920 N   0  0  0  0  0  0  0  0  0  0  0  0
  -28.8042   -3.9744   30.6053 O   0  0  0  0  0  0  0  0  0  0  0  0
  -31.3670   -3.1036   30.5686 C   0  0  0  0  0  0  0  0  0  0  0  0
  -32.4281   -2.7581   29.9279 C   0  0  0  0  0  0  0  0  0  0  0  0
  -33.1706   -3.2830   29.3132 C   0  0  0  0  0  0  0  0  0  0  0  0
  -34.3422   -2.8153   28.4671 C   0  0  0  0  0  0  0  0  0  0  0  0
  -34.5355   -1.4428   28.4778 C   0  0  0  0  0  0  0  0  0  0  0  0
  -33.6947   -0.6509   29.1593 C   0  0  0  0  0  0  0  0  0  0  0  0
  -32.6198   -1.1674   29.8514 C   0  0  0  0  0  0  0  0  0  0  0  0
  -33.8988    0.8328   29.1647 C   0  0  0  0  0  0  0  0  0  0  0  0
  -34.8409    1.3636   28.9181 O   0  0  0  0  0  0  0  0  0  0  0  0
  -32.7645    1.5660   29.5043 O   0  0  0  0  0  0  0  0  0  0  0  0
  -31.4545   -2.9472   32.0730 C   0  0  0  0  0  0  0  0  0  0  0  0
  -31.1753   -1.8776   32.7294 C   0  0  0  0  0  0  0  0  0  0  0  0
  -31.2806   -1.7470   34.1515 C   0  0  0  0  0  0  0  0  0  0  0  0
  -31.7043   -2.8517   34.8205 C   0  0  0  0  0  0  0  0  0  0  0  0
  -31.9247   -4.0575   34.1828 C   0  0  0  0  0  0  0  0  0  0  0  0
  -31.8159   -4.1365   32.8071 C   0  0  0  0  0  0  0  0  0  0  0  0
  -31.0408   -4.5751   30.1339 C   0  0  0  0  0  0  0  0  0  0  0  0
  -31.1367   -5.4126   31.0901 C   0  0  0  0  0  0  0  0  0  0  0  0
  -31.6388   -5.3839   32.2498 C   0  0  0  0  0  0  0  0  0  0  0  0
  -30.8545   -4.8642   28.8381 C   0  0  0  0  0  0  0  0  0  0  0  0
  3  7  1  0
  6 13  1  0
 13 14  1  0
 13 15  2  0
 14 16  1  0
 16 17  1  0
 21 23  1  0
 23 24  2  0
 23 25  1  0
 16 26  1  0
 16 32  1  0
 31 34  1  0
 33 34  1  0
 32 35  1  0
 33 32  1  0
  1  2  2  0
  2  3  1  0
  3  4  2  0
  4  5  1  0
  5  6  2  0
  6  1  1  0
 17 18  2  0
 18 19  1  0
 19 20  2  0
 20 21  1  0
 21 22  2  0
 22 17  1  0
 26 27  2  0
 27 28  1  0
 28 29  2  0
 29 30  1  0
 30 31  2  0
 31 26  1  0
  7  8  2  0
  8  9  1  0
  9 10  2  0
 10 12  1  0
 12 11  2  0
 11  7  1  0
M  END

$$$$
