No_2087-gen_results/8p0m/2024-11-26-14-13-15/
     RDKit          3D

 31 33  0  0  0  0  0  0  0  0999 V2000
  -28.0162   -0.8135   28.8779 C   0  0  0  0  0  0  0  0  0  0  0  0
  -28.4690   -0.7850   29.8287 C   0  0  0  0  0  0  0  0  0  0  0  0
  -26.5455   -0.8762   28.8500 C   0  0  0  0  0  0  0  0  0  0  0  0
  -25.8041   -1.0324   30.0571 C   0  0  0  0  0  0  0  0  0  0  0  0
  -27.9437   -0.9869   31.2075 C   0  0  0  0  0  0  0  0  0  0  0  0
  -26.5825   -1.0386   31.2231 C   0  0  0  0  0  0  0  0  0  0  0  0
  -29.9186   -0.6439   29.7328 O   0  0  0  0  0  0  0  0  0  0  0  0
  -30.7547   -1.3912   30.2938 C   0  0  0  0  0  0  0  0  0  0  0  0
  -24.3650   -1.1102   30.0904 C   0  0  0  0  0  0  0  0  0  0  0  0
  -23.6074   -1.0297   29.0407 C   0  0  0  0  0  0  0  0  0  0  0  0
  -22.4274   -0.3379   29.0186 C   0  0  0  0  0  0  0  0  0  0  0  0
  -21.7572    0.0540   27.8652 C   0  0  0  0  0  0  0  0  0  0  0  0
  -20.5924    0.9598   28.2749 C   0  0  0  0  0  0  0  0  0  0  0  0
  -31.9888   -0.8606   30.3795 C   0  0  0  0  0  0  0  0  0  0  0  0
  -33.0345   -1.6609   30.9619 C   0  0  0  0  0  0  0  0  0  0  0  0
  -32.6819   -2.9705   31.3939 C   0  0  0  0  0  0  0  0  0  0  0  0
  -30.5836   -2.7334   30.8167 C   0  0  0  0  0  0  0  0  0  0  0  0
  -31.4901   -3.4667   31.3139 C   0  0  0  0  0  0  0  0  0  0  0  0
  -23.6939   -1.3295   31.4111 C   0  0  0  0  0  0  0  0  0  0  0  0
  -22.3753   -0.7213   31.4842 C   0  0  0  0  0  0  0  0  0  0  0  0
  -21.7384   -0.2013   30.3197 C   0  0  0  0  0  0  0  0  0  0  0  0
  -34.4129   -1.1337   31.0692 C   0  0  0  0  0  0  0  0  0  0  0  0
  -34.5302    0.0490   31.2666 F   0  0  0  0  0  0  0  0  0  0  0  0
  -35.0231   -1.8348   32.0964 F   0  0  0  0  0  0  0  0  0  0  0  0
  -35.0071   -1.4926   29.8610 F   0  0  0  0  0  0  0  0  0  0  0  0
  -31.1561   -4.8031   31.8290 C   0  0  0  0  0  0  0  0  0  0  0  0
  -30.3212   -4.8478   32.8703 C   0  0  0  0  0  0  0  0  0  0  0  0
  -29.4176   -3.9275   32.9618 C   0  0  0  0  0  0  0  0  0  0  0  0
  -29.6469   -2.7994   33.5027 C   0  0  0  0  0  0  0  0  0  0  0  0
  -28.5817   -2.0123   33.7513 F   0  0  0  0  0  0  0  0  0  0  0  0
  -30.7338   -2.2490   33.7208 F   0  0  0  0  0  0  0  0  0  0  0  0
  2  7  1  0
  7  8  1  0
  4  9  1  0
 11 12  1  0
 12 13  1  0
 15 22  1  0
 22 23  1  0
 22 24  1  0
 22 25  1  0
 18 26  1  0
 26 27  1  0
 27 28  2  3
 28 29  1  0
 29 30  1  0
 29 31  1  0
  8 14  2  0
 14 15  1  0
 15 16  2  0
 16 18  1  0
 18 17  2  0
 17  8  1  0
  1  2  2  0
  2  5  1  0
  5  6  2  0
  6  4  1  0
  4  3  2  0
  3  1  1  0
  9 10  2  0
 10 11  1  0
 11 21  2  0
 21 20  1  0
 20 19  2  0
 19  9  1  0
M  END

$$$$
