No_248-gen_results/8p0m/2024-11-26-14-13-15/
     RDKit          3D

 25 28  0  0  0  0  0  0  0  0999 V2000
  -28.0162   -0.8135   28.8779 C   0  0  0  0  0  0  0  0  0  0  0  0
  -27.0636   -0.1190   28.6079 C   0  0  0  0  0  0  0  0  0  0  0  0
  -26.9716    0.7139   27.5060 C   0  0  0  0  0  0  0  0  0  0  0  0
  -28.1053    0.7744   26.6421 C   0  0  0  0  0  0  0  0  0  0  0  0
  -29.2008    0.1044   27.0527 C   0  0  0  0  0  0  0  0  0  0  0  0
  -29.2096   -0.6029   28.1853 C   0  0  0  0  0  0  0  0  0  0  0  0
  -30.2055    0.3215   26.0588 N   0  0  0  0  0  0  0  0  0  0  0  0
  -30.0515    0.6517   24.8862 C   0  0  0  0  0  0  0  0  0  0  0  0
  -28.8853    1.4329   24.5274 C   0  0  0  0  0  0  0  0  0  0  0  0
  -27.8608    1.4746   25.4255 C   0  0  0  0  0  0  0  0  0  0  0  0
  -28.0702   -1.7667   30.3727 Cl  0  0  0  0  0  0  0  0  0  0  0  0
  -25.6379    1.3381   27.1650 C   0  0  0  0  0  0  0  0  0  0  0  0
  -25.2649    2.5522   27.4620 C   0  0  0  0  0  0  0  0  0  0  0  0
  -25.7509    3.3122   28.5174 C   0  0  0  0  0  0  0  0  0  0  0  0
  -26.5726    4.1567   28.5908 N   0  0  0  0  0  0  0  0  0  0  0  0
  -27.1732    4.6030   29.7058 C   0  0  0  0  0  0  0  0  0  0  0  0
  -25.4272    2.6774   29.6922 O   0  0  0  0  0  0  0  0  0  0  0  0
  -26.9028    4.9170   27.3169 C   0  0  0  0  0  0  0  0  0  0  0  0
  -24.3190    3.2561   26.5958 C   0  0  0  0  0  0  0  0  0  0  0  0
  -28.0078    5.2991   29.8405 C   0  0  0  0  0  0  0  0  0  0  0  0
  -28.0717    5.8164   27.4380 C   0  0  0  0  0  0  0  0  0  0  0  0
  -28.5500    6.1389   28.7002 C   0  0  0  0  0  0  0  0  0  0  0  0
  -23.6068    2.4948   25.6948 N   0  0  0  0  0  0  0  0  0  0  0  0
  -24.8258    0.5424   26.2813 C   0  0  0  0  0  0  0  0  0  0  0  0
  -23.8838    1.2124   25.5253 C   0  0  0  0  0  0  0  0  0  0  0  0
  1 11  1  0
  3 12  1  0
 12 13  1  0
 13 14  1  0
 14 15  1  0
 15 16  1  0
 14 17  2  0
 15 18  1  0
 13 19  1  0
 20 22  1  0
 21 22  1  0
 19 23  1  0
 12 24  1  0
 23 25  1  0
 24 25  1  0
 16 20  1  0
 21 18  1  0
  5  7  1  0
  7  8  2  0
  8  9  1  0
  9 10  2  0
 10  4  1  0
  1  2  2  0
  2  3  1  0
  3  4  2  0
  4  5  1  0
  5  6  2  0
  6  1  1  0
M  END

$$$$
