No_2120-gen_results/8p0m/2024-11-26-14-13-15/
     RDKit          3D

 20 20  0  0  0  0  0  0  0  0999 V2000
  -28.0162   -0.8135   28.8779 C   0  0  0  0  0  0  0  0  0  0  0  0
  -28.4690   -0.7850   29.8287 C   0  0  0  0  0  0  0  0  0  0  0  0
  -27.1356    0.2359   28.5352 C   0  0  0  0  0  0  0  0  0  0  0  0
  -26.8745    1.2825   29.3982 C   0  0  0  0  0  0  0  0  0  0  0  0
  -27.5070    1.2380   30.6295 C   0  0  0  0  0  0  0  0  0  0  0  0
  -28.3293    0.1745   30.9350 C   0  0  0  0  0  0  0  0  0  0  0  0
  -26.4077    0.3070   27.2259 C   0  0  0  0  0  0  0  0  0  0  0  0
  -27.0192    0.0345   26.2763 F   0  0  0  0  0  0  0  0  0  0  0  0
  -25.2626   -0.5297   27.3240 F   0  0  0  0  0  0  0  0  0  0  0  0
  -25.7624    1.5281   26.9439 F   0  0  0  0  0  0  0  0  0  0  0  0
  -29.3864   -2.0224   30.3300 C   0  0  0  0  0  0  0  0  0  0  0  0
  -28.9350   -3.0145   30.5009 O   0  0  0  0  0  0  0  0  0  0  0  0
  -30.4660   -1.7263   30.9270 O   0  0  0  0  0  0  0  0  0  0  0  0
  -31.4458   -2.6540   30.9450 C   0  0  0  0  0  0  0  0  0  0  0  0
  -32.6983   -2.2223   30.8419 C   0  0  0  0  0  0  0  0  0  0  0  0
  -33.5680   -3.1381   30.9185 F   0  0  0  0  0  0  0  0  0  0  0  0
  -32.9266   -1.6398   29.5817 F   0  0  0  0  0  0  0  0  0  0  0  0
  -33.1244   -1.1968   31.6567 F   0  0  0  0  0  0  0  0  0  0  0  0
  -31.2627   -3.1601   32.2946 F   0  0  0  0  0  0  0  0  0  0  0  0
  -31.1820   -3.6624   30.0849 F   0  0  0  0  0  0  0  0  0  0  0  0
  3  7  1  0
  7  8  1  0
  7  9  1  0
  7 10  1  0
  2 11  1  0
 11 12  2  0
 11 13  1  0
 13 14  1  0
 14 15  1  0
 15 16  1  0
 15 17  1  0
 15 18  1  0
 14 19  1  0
 14 20  1  0
  1  2  2  0
  2  6  1  0
  6  5  2  0
  5  4  1  0
  4  3  2  0
  3  1  1  0
M  END

$$$$
