No_2918-gen_results/8p0m/2024-11-26-14-13-15/
     RDKit          3D

 24 26  0  0  0  0  0  0  0  0999 V2000
  -28.0162   -0.8135   28.8779 C   0  0  0  0  0  0  0  0  0  0  0  0
  -27.0636   -0.1189   28.6079 C   0  0  0  0  0  0  0  0  0  0  0  0
  -27.0010    0.6913   27.4910 C   0  0  0  0  0  0  0  0  0  0  0  0
  -25.8548    1.4825   27.0830 C   0  0  0  0  0  0  0  0  0  0  0  0
  -24.6901    1.4526   27.8807 C   0  0  0  0  0  0  0  0  0  0  0  0
  -23.4878    2.1452   27.6011 C   0  0  0  0  0  0  0  0  0  0  0  0
  -25.8122   -0.1656   29.4298 C   0  0  0  0  0  0  0  0  0  0  0  0
  -24.6457    0.5887   29.0806 C   0  0  0  0  0  0  0  0  0  0  0  0
  -29.2382   -0.1001   29.3740 C   0  0  0  0  0  0  0  0  0  0  0  0
  -30.3892   -0.8509   29.7934 C   0  0  0  0  0  0  0  0  0  0  0  0
  -22.3416    1.8240   28.1900 N   0  0  0  0  0  0  0  0  0  0  0  0
  -23.5389    3.1676   26.8391 O   0  0  0  0  0  0  0  0  0  0  0  0
  -31.5960   -0.3439   29.6913 C   0  0  0  0  0  0  0  0  0  0  0  0
  -31.7299    1.0779   29.4828 C   0  0  0  0  0  0  0  0  0  0  0  0
  -30.6490    1.8097   29.1175 C   0  0  0  0  0  0  0  0  0  0  0  0
  -29.4048    1.2272   28.9454 C   0  0  0  0  0  0  0  0  0  0  0  0
  -33.2980    1.7514   29.6830 Cl  0  0  0  0  0  0  0  0  0  0  0  0
  -22.0672    0.6699   28.8682 C   0  0  0  0  0  0  0  0  0  0  0  0
  -23.2562    0.0143   29.4486 C   0  0  0  0  0  0  0  0  0  0  0  0
  -25.7289   -0.9829   30.4208 O   0  0  0  0  0  0  0  0  0  0  0  0
  -30.2491   -2.1662   29.9777 O   0  0  0  0  0  0  0  0  0  0  0  0
  -29.5859   -2.5942   31.1104 C   0  0  0  0  0  0  0  0  0  0  0  0
  -28.8825   -3.8575   30.8912 C   0  0  0  0  0  0  0  0  0  0  0  0
  -29.3526   -4.5030   29.8876 O   0  0  0  0  0  0  0  0  0  0  0  0
  1  2  1  0
  5  6  1  0
  6 11  1  0
  6 12  2  0
 14 17  1  0
 11 18  1  0
  8 19  1  0
  7 20  1  0
 10 21  1  0
 21 22  1  0
 22 23  2  3
 23 24  1  0
  1  9  1  0
 19 18  1  0
  2  3  2  0
  3  4  1  0
  4  5  2  0
  5  8  1  0
  8  7  2  0
  7  2  1  0
  9 10  2  0
 10 13  1  0
 13 14  2  0
 14 15  1  0
 15 16  2  0
 16  9  1  0
M  END

$$$$
