No_2704-gen_results/8p0m/2024-11-26-14-13-15/
     RDKit          3D

 32 36  0  0  0  0  0  0  0  0999 V2000
  -28.0162   -0.8135   28.8779 C   0  0  0  0  0  0  0  0  0  0  0  0
  -27.0636   -0.1189   28.6079 C   0  0  0  0  0  0  0  0  0  0  0  0
  -27.0010    0.6913   27.4910 C   0  0  0  0  0  0  0  0  0  0  0  0
  -28.1373    0.7363   26.6350 C   0  0  0  0  0  0  0  0  0  0  0  0
  -29.2360    0.0765   27.0690 C   0  0  0  0  0  0  0  0  0  0  0  0
  -29.2177   -0.6429   28.1747 C   0  0  0  0  0  0  0  0  0  0  0  0
  -28.0030   -1.6604   30.1266 C   0  0  0  0  0  0  0  0  0  0  0  0
  -27.1218   -2.5017   30.2445 O   0  0  0  0  0  0  0  0  0  0  0  0
  -29.0108   -1.6366   31.0273 N   0  0  0  0  0  0  0  0  0  0  0  0
  -30.0672   -0.6697   31.0659 C   0  0  0  0  0  0  0  0  0  0  0  0
  -31.0881   -1.0957   31.7573 C   0  0  0  0  0  0  0  0  0  0  0  0
  -29.1896   -2.4558   32.1237 C   0  0  0  0  0  0  0  0  0  0  0  0
  -30.5015   -2.0834   32.6637 C   0  0  0  0  0  0  0  0  0  0  0  0
  -31.3750   -3.2859   32.8912 N   0  0  0  0  0  0  0  0  0  0  0  0
  -31.1946   -4.1301   33.6952 C   0  0  0  0  0  0  0  0  0  0  0  0
  -30.7290   -5.1269   33.7467 C   0  0  0  0  0  0  0  0  0  0  0  0
  -30.2345   -5.6977   32.4314 C   0  0  0  0  0  0  0  0  0  0  0  0
  -30.1518   -4.9907   31.3625 C   0  0  0  0  0  0  0  0  0  0  0  0
  -31.1083   -3.8623   31.4949 C   0  0  0  0  0  0  0  0  0  0  0  0
  -32.0689   -3.6860   30.4625 C   0  0  0  0  0  0  0  0  0  0  0  0
  -32.8026   -4.4751   30.1172 C   0  0  0  0  0  0  0  0  0  0  0  0
  -33.7423   -4.2370   29.0279 C   0  0  0  0  0  0  0  0  0  0  0  0
  -33.7897   -2.9967   28.4223 C   0  0  0  0  0  0  0  0  0  0  0  0
  -32.9151   -2.0178   28.8701 C   0  0  0  0  0  0  0  0  0  0  0  0
  -32.0194   -2.2803   29.8645 C   0  0  0  0  0  0  0  0  0  0  0  0
  -31.5780    0.1555   32.6897 C   0  0  0  0  0  0  0  0  0  0  0  0
  -32.8915    0.5577   32.5924 C   0  0  0  0  0  0  0  0  0  0  0  0
  -33.3226    1.6420   33.3267 C   0  0  0  0  0  0  0  0  0  0  0  0
  -32.4499    2.3738   34.0977 C   0  0  0  0  0  0  0  0  0  0  0  0
  -31.1237    2.0177   34.1439 C   0  0  0  0  0  0  0  0  0  0  0  0
  -30.6587    0.8793   33.4082 C   0  0  0  0  0  0  0  0  0  0  0  0
  -29.7913   -5.3567   30.0814 C   0  0  0  0  0  0  0  0  0  0  0  0
  1  7  1  0
  7  8  2  0
  7  9  1  0
  9 10  1  0
 10 11  2  0
  9 12  1  0
 11 13  1  0
 12 13  1  0
 13 14  1  0
 14 15  1  0
 16 17  1  0
 14 19  1  0
 18 19  1  0
 19 20  1  0
 11 26  1  0
 18 32  1  0
 15 16  1  0
 17 18  1  0
 26 27  2  0
 27 28  1  0
 28 29  2  0
 29 30  1  0
 30 31  2  0
 31 26  1  0
  1  2  2  0
  2  3  1  0
  3  4  2  0
  4  5  1  0
  5  6  2  0
  6  1  1  0
 20 21  2  0
 21 22  1  0
 22 23  2  0
 23 24  1  0
 24 25  2  0
 25 20  1  0
M  END

$$$$
