No_2650-gen_results/8p0m/2024-11-26-14-13-15/
     RDKit          3D

 35 38  0  0  0  0  0  0  0  0999 V2000
  -28.0162   -0.8135   28.8779 C   0  0  0  0  0  0  0  0  0  0  0  0
  -27.0636   -0.1189   28.6079 C   0  0  0  0  0  0  0  0  0  0  0  0
  -27.0010    0.6913   27.4910 C   0  0  0  0  0  0  0  0  0  0  0  0
  -28.1373    0.7363   26.6350 C   0  0  0  0  0  0  0  0  0  0  0  0
  -29.2360    0.0765   27.0690 C   0  0  0  0  0  0  0  0  0  0  0  0
  -29.2177   -0.6429   28.1747 C   0  0  0  0  0  0  0  0  0  0  0  0
  -30.4152    0.1590   26.1819 C   0  0  0  0  0  0  0  0  0  0  0  0
  -30.3887    0.0526   24.9904 O   0  0  0  0  0  0  0  0  0  0  0  0
  -31.6681    0.1429   26.8164 N   0  0  0  0  0  0  0  0  0  0  0  0
  -31.8647    0.2728   28.2130 C   0  0  0  0  0  0  0  0  0  0  0  0
  -32.8527    0.1945   25.9236 C   0  0  0  0  0  0  0  0  0  0  0  0
  -32.5621   -0.6688   28.7585 C   0  0  0  0  0  0  0  0  0  0  0  0
  -32.6820   -0.6880   30.1780 C   0  0  0  0  0  0  0  0  0  0  0  0
  -32.1190    0.3779   30.9435 C   0  0  0  0  0  0  0  0  0  0  0  0
  -31.4046    1.3707   30.2838 C   0  0  0  0  0  0  0  0  0  0  0  0
  -31.1911    1.3075   28.9379 C   0  0  0  0  0  0  0  0  0  0  0  0
  -28.0532   -1.6321   30.1952 C   0  0  0  0  0  0  0  0  0  0  0  0
  -28.7190   -1.6638   30.9780 O   0  0  0  0  0  0  0  0  0  0  0  0
  -26.9935   -2.4895   30.1651 O   0  0  0  0  0  0  0  0  0  0  0  0
  -30.7783    2.4762   31.0914 C   0  0  0  0  0  0  0  0  0  0  0  0
  -31.2561    3.0303   32.0069 C   0  0  0  0  0  0  0  0  0  0  0  0
  -29.4142    2.8708   30.5860 C   0  0  0  0  0  0  0  0  0  0  0  0
  -28.7034    3.8482   31.2966 C   0  0  0  0  0  0  0  0  0  0  0  0
  -30.5857    4.0908   32.7719 C   0  0  0  0  0  0  0  0  0  0  0  0
  -29.2952    4.4727   32.3539 C   0  0  0  0  0  0  0  0  0  0  0  0
  -27.3497    4.2432   30.8496 C   0  0  0  0  0  0  0  0  0  0  0  0
  -27.1002    5.5004   30.6392 C   0  0  0  0  0  0  0  0  0  0  0  0
  -25.8199    5.8546   30.0886 C   0  0  0  0  0  0  0  0  0  0  0  0
  -25.1553    4.8451   29.3624 C   0  0  0  0  0  0  0  0  0  0  0  0
  -25.5140    3.5432   29.3911 C   0  0  0  0  0  0  0  0  0  0  0  0
  -26.6537    3.1863   30.1179 C   0  0  0  0  0  0  0  0  0  0  0  0
  -24.7474    2.6431   28.7949 O   0  0  0  0  0  0  0  0  0  0  0  0
  -23.8462    1.8719   29.5015 C   0  0  0  0  0  0  0  0  0  0  0  0
  -22.9321    1.1227   28.6634 C   0  0  0  0  0  0  0  0  0  0  0  0
  -22.1482    0.1059   29.2127 C   0  0  0  0  0  0  0  0  0  0  0  0
  5  7  1  0
  7  8  2  0
  7  9  1  0
  9 10  1  0
  9 11  1  0
  1 17  1  0
 17 18  1  0
 17 19  2  0
 15 20  1  0
 23 26  1  0
 30 32  1  0
 32 33  1  0
 33 34  2  3
 34 35  1  0
 26 27  2  0
 27 28  1  0
 28 29  2  0
 29 30  1  0
 30 31  2  0
 31 26  1  0
  1  2  2  0
  2  3  1  0
  3  4  2  0
  4  5  1  0
  5  6  2  0
  6  1  1  0
 20 21  2  0
 21 24  1  0
 24 25  2  0
 25 23  1  0
 23 22  2  0
 22 20  1  0
 10 12  2  0
 12 13  1  0
 13 14  2  0
 14 15  1  0
 15 16  2  0
 16 10  1  0
M  END

$$$$
