No_2851-gen_results/8p0m/2024-11-26-14-13-15/
     RDKit          3D

 15 17  0  0  0  0  0  0  0  0999 V2000
  -28.0162   -0.8135   28.8779 C   0  0  0  0  0  0  0  0  0  0  0  0
  -27.0636   -0.1190   28.6079 C   0  0  0  0  0  0  0  0  0  0  0  0
  -25.7923   -0.4302   29.0761 C   0  0  0  0  0  0  0  0  0  0  0  0
  -25.5681   -1.2411   29.7572 C   0  0  0  0  0  0  0  0  0  0  0  0
  -24.2377   -1.6686   30.3647 C   0  0  0  0  0  0  0  0  0  0  0  0
  -27.8484   -1.8924   29.8409 C   0  0  0  0  0  0  0  0  0  0  0  0
  -26.5621   -2.1768   30.2392 C   0  0  0  0  0  0  0  0  0  0  0  0
  -23.1907   -1.7440   29.4411 C   0  0  0  0  0  0  0  0  0  0  0  0
  -22.4896   -0.4559   29.1904 C   0  0  0  0  0  0  0  0  0  0  0  0
  -21.3722   -0.1719   29.2246 C   0  0  0  0  0  0  0  0  0  0  0  0
  -20.7943    1.0477   28.6278 C   0  0  0  0  0  0  0  0  0  0  0  0
  -21.7285    1.8903   27.9055 C   0  0  0  0  0  0  0  0  0  0  0  0
  -23.0476    1.5457   27.8491 C   0  0  0  0  0  0  0  0  0  0  0  0
  -23.4515    0.4233   28.4238 C   0  0  0  0  0  0  0  0  0  0  0  0
  -24.9064    0.1790   28.5546 C   0  0  0  0  0  0  0  0  0  0  0  0
  4  5  1  0
  5  8  1  0
  8  9  1  0
  3 15  1  0
 14 15  1  0
  9 10  2  0
 10 11  1  0
 11 12  2  0
 12 13  1  0
 13 14  2  0
 14  9  1  0
  1  2  2  0
  2  3  1  0
  3  4  2  0
  4  7  1  0
  7  6  2  0
  6  1  1  0
M  END

$$$$
