No_2517-gen_results/8p0m/2024-11-26-14-13-15/
     RDKit          3D

 31 34  0  0  0  0  0  0  0  0999 V2000
  -28.0162   -0.8135   28.8779 C   0  0  0  0  0  0  0  0  0  0  0  0
  -28.4690   -0.7850   29.8287 C   0  0  0  0  0  0  0  0  0  0  0  0
  -28.1816    0.4277   28.1134 C   0  0  0  0  0  0  0  0  0  0  0  0
  -27.4498    0.6435   26.8500 C   0  0  0  0  0  0  0  0  0  0  0  0
  -26.1815    0.0357   26.7145 C   0  0  0  0  0  0  0  0  0  0  0  0
  -25.7800   -0.9326   27.6938 C   0  0  0  0  0  0  0  0  0  0  0  0
  -26.5568   -1.2134   28.7413 C   0  0  0  0  0  0  0  0  0  0  0  0
  -28.3021   -1.9782   30.6613 N   0  0  0  0  0  0  0  0  0  0  0  0
  -29.1868    0.0184   30.4724 O   0  0  0  0  0  0  0  0  0  0  0  0
  -27.5726   -3.0608   30.2213 C   0  0  0  0  0  0  0  0  0  0  0  0
  -26.3426   -2.6639   29.5050 C   0  0  0  0  0  0  0  0  0  0  0  0
  -29.2541   -2.4106   31.7945 C   0  0  0  0  0  0  0  0  0  0  0  0
  -25.0915   -3.2811   29.4049 C   0  0  0  0  0  0  0  0  0  0  0  0
  -23.9303   -2.7107   29.9157 C   0  0  0  0  0  0  0  0  0  0  0  0
  -25.1300   -4.6120   28.9204 C   0  0  0  0  0  0  0  0  0  0  0  0
  -27.7555    1.6766   25.9165 C   0  0  0  0  0  0  0  0  0  0  0  0
  -27.1839    2.8744   26.2380 C   0  0  0  0  0  0  0  0  0  0  0  0
  -28.6255    1.4541   24.8621 C   0  0  0  0  0  0  0  0  0  0  0  0
  -29.9553    1.3318   25.1502 C   0  0  0  0  0  0  0  0  0  0  0  0
  -30.8245    0.8546   24.1921 C   0  0  0  0  0  0  0  0  0  0  0  0
  -32.1731    0.6287   24.4610 C   0  0  0  0  0  0  0  0  0  0  0  0
  -32.6726    0.8333   25.7434 C   0  0  0  0  0  0  0  0  0  0  0  0
  -31.8047    1.2328   26.7631 C   0  0  0  0  0  0  0  0  0  0  0  0
  -30.5064    1.4525   26.4908 C   0  0  0  0  0  0  0  0  0  0  0  0
  -23.8535   -5.1088   28.7574 N   0  0  0  0  0  0  0  0  0  0  0  0
  -23.8853   -1.3573   30.4430 C   0  0  0  0  0  0  0  0  0  0  0  0
  -24.0231   -1.1776   31.7941 C   0  0  0  0  0  0  0  0  0  0  0  0
  -24.1011    0.1771   32.3176 C   0  0  0  0  0  0  0  0  0  0  0  0
  -24.1056    1.2915   31.3923 C   0  0  0  0  0  0  0  0  0  0  0  0
  -23.8045   -0.2400   29.6069 C   0  0  0  0  0  0  0  0  0  0  0  0
  -23.8429    1.0547   30.0886 C   0  0  0  0  0  0  0  0  0  0  0  0
  1  2  1  0
  2  8  1  0
  2  9  2  0
  8 10  1  0
  7 11  1  0
 10 11  1  0
  8 12  1  0
 11 13  1  0
 13 14  1  0
 13 15  1  0
  4 16  1  0
 16 17  1  0
 16 18  1  0
 18 19  1  0
 15 25  2  0
 14 26  1  0
 26 27  2  0
 27 28  1  0
 28 29  2  0
 29 31  1  0
 31 30  2  0
 30 26  1  0
 19 20  2  0
 20 21  1  0
 21 22  2  0
 22 23  1  0
 23 24  2  0
 24 19  1  0
  1  3  2  0
  3  4  1  0
  4  5  2  0
  5  6  1  0
  6  7  2  0
  7  1  1  0
M  END

$$$$
