No_2929-gen_results/8p0m/2024-11-26-14-13-15/
     RDKit          3D

 35 38  0  0  0  0  0  0  0  0999 V2000
  -28.0162   -0.8135   28.8779 C   0  0  0  0  0  0  0  0  0  0  0  0
  -27.0636   -0.1190   28.6079 C   0  0  0  0  0  0  0  0  0  0  0  0
  -27.0010    0.6913   27.4910 C   0  0  0  0  0  0  0  0  0  0  0  0
  -28.1373    0.7363   26.6350 C   0  0  0  0  0  0  0  0  0  0  0  0
  -29.2360    0.0765   27.0690 C   0  0  0  0  0  0  0  0  0  0  0  0
  -29.2177   -0.6429   28.1747 C   0  0  0  0  0  0  0  0  0  0  0  0
  -30.4152    0.1590   26.1820 C   0  0  0  0  0  0  0  0  0  0  0  0
  -31.3727   -0.5052   26.4854 N   0  0  0  0  0  0  0  0  0  0  0  0
  -30.3871    0.8406   25.1078 O   0  0  0  0  0  0  0  0  0  0  0  0
  -31.5632   -1.3179   27.6250 C   0  0  0  0  0  0  0  0  0  0  0  0
  -30.4034   -1.3808   28.4672 N   0  0  0  0  0  0  0  0  0  0  0  0
  -32.5492   -1.9267   27.9022 O   0  0  0  0  0  0  0  0  0  0  0  0
  -25.7254    1.4264   27.1006 C   0  0  0  0  0  0  0  0  0  0  0  0
  -24.6205    1.0047   27.7919 C   0  0  0  0  0  0  0  0  0  0  0  0
  -24.5897    0.1989   28.8670 C   0  0  0  0  0  0  0  0  0  0  0  0
  -25.7226   -0.4101   29.2923 C   0  0  0  0  0  0  0  0  0  0  0  0
  -23.2947    1.7507   27.4274 C   0  0  0  0  0  0  0  0  0  0  0  0
  -23.3148    2.8125   26.6690 N   0  0  0  0  0  0  0  0  0  0  0  0
  -22.2058    1.5892   28.1416 O   0  0  0  0  0  0  0  0  0  0  0  0
  -30.6848   -2.0082   29.7598 C   0  0  0  0  0  0  0  0  0  0  0  0
  -25.6597   -1.3027   30.4574 C   0  0  0  0  0  0  0  0  0  0  0  0
  -24.9139   -2.1917   30.4197 O   0  0  0  0  0  0  0  0  0  0  0  0
  -26.5765   -1.1047   31.3318 O   0  0  0  0  0  0  0  0  0  0  0  0
  -32.6120   -0.5697   25.6342 C   0  0  0  0  0  0  0  0  0  0  0  0
  -31.3802   -1.4839   30.6410 C   0  0  0  0  0  0  0  0  0  0  0  0
  -31.4671   -0.3313   31.0457 C   0  0  0  0  0  0  0  0  0  0  0  0
  -32.2931    0.2498   32.0785 C   0  0  0  0  0  0  0  0  0  0  0  0
  -33.1396   -0.6542   32.6811 C   0  0  0  0  0  0  0  0  0  0  0  0
  -33.1634   -1.9555   32.3095 C   0  0  0  0  0  0  0  0  0  0  0  0
  -32.2828   -2.4225   31.3495 C   0  0  0  0  0  0  0  0  0  0  0  0
  -34.0575   -2.9040   33.0004 C   0  0  0  0  0  0  0  0  0  0  0  0
  -33.8861   -3.1153   34.1252 F   0  0  0  0  0  0  0  0  0  0  0  0
  -35.3577   -2.4028   32.7077 F   0  0  0  0  0  0  0  0  0  0  0  0
  -34.0328   -4.0828   32.2692 F   0  0  0  0  0  0  0  0  0  0  0  0
  -29.8936   -3.0317   29.8756 O   0  0  0  0  0  0  0  0  0  0  0  0
  5  7  1  0
  7  8  1  0
  7  9  2  0
  8 10  1  0
  6 11  1  0
 10 11  1  0
 10 12  2  0
 14 17  1  0
 17 18  1  0
 17 19  2  0
 11 20  1  0
 16 21  1  0
 21 22  2  0
 21 23  1  0
  8 24  1  0
 20 25  1  0
 29 31  1  0
 31 32  1  0
 31 33  1  0
 31 34  1  0
 20 35  2  0
  1  2  2  0
  3  4  2  0
  4  5  1  0
  5  6  2  0
  6  1  1  0
 25 26  2  0
 26 27  1  0
 27 28  2  0
 28 29  1  0
 29 30  2  0
 30 25  1  0
  2  3  1  0
  3 13  1  0
 13 14  2  0
 14 15  1  0
 15 16  2  0
 16  2  1  0
M  END

$$$$
