No_2075-gen_results/8p0m/2024-11-26-14-13-15/
     RDKit          3D

 12 13  0  0  0  0  0  0  0  0999 V2000
  -28.0162   -0.8135   28.8779 C   0  0  0  0  0  0  0  0  0  0  0  0
  -27.0636   -0.1189   28.6079 C   0  0  0  0  0  0  0  0  0  0  0  0
  -26.9287    1.1713   29.0083 C   0  0  0  0  0  0  0  0  0  0  0  0
  -27.9560    1.7411   29.7840 C   0  0  0  0  0  0  0  0  0  0  0  0
  -29.0569   -0.3271   29.7466 C   0  0  0  0  0  0  0  0  0  0  0  0
  -28.9828    0.9722   30.1516 C   0  0  0  0  0  0  0  0  0  0  0  0
  -25.8815   -0.6260   27.7945 C   0  0  0  0  0  0  0  0  0  0  0  0
  -25.4215    0.1302   26.7096 C   0  0  0  0  0  0  0  0  0  0  0  0
  -24.6114   -0.9697   28.6213 C   0  0  0  0  0  0  0  0  0  0  0  0
  -23.5089   -0.2074   28.7059 C   0  0  0  0  0  0  0  0  0  0  0  0
  -23.1111    0.5934   27.5447 C   0  0  0  0  0  0  0  0  0  0  0  0
  -24.2093    0.8812   26.6602 C   0  0  0  0  0  0  0  0  0  0  0  0
  2  7  1  0
  1  2  2  0
  2  3  1  0
  3  4  2  0
  4  6  1  0
  6  5  2  0
  5  1  1  0
  7  8  2  0
  8 12  1  0
 12 11  2  0
 11 10  1  0
 10  9  2  0
  9  7  1  0
M  END

$$$$
