No_2152-gen_results/8p0m/2024-11-26-14-13-15/
     RDKit          3D

 15 15  0  0  0  0  0  0  0  0999 V2000
  -28.0162   -0.8135   28.8779 C   0  0  0  0  0  0  0  0  0  0  0  0
  -27.0636   -0.1190   28.6079 C   0  0  0  0  0  0  0  0  0  0  0  0
  -25.7923   -0.4302   29.0761 C   0  0  0  0  0  0  0  0  0  0  0  0
  -25.5756   -1.5654   29.9363 C   0  0  0  0  0  0  0  0  0  0  0  0
  -26.7354   -2.3004   30.2173 C   0  0  0  0  0  0  0  0  0  0  0  0
  -27.9184   -1.9537   29.7629 C   0  0  0  0  0  0  0  0  0  0  0  0
  -29.0001   -2.7012   30.1151 O   0  0  0  0  0  0  0  0  0  0  0  0
  -24.6795    0.2962   28.8383 F   0  0  0  0  0  0  0  0  0  0  0  0
  -28.8871   -3.9481   30.5874 C   0  0  0  0  0  0  0  0  0  0  0  0
  -30.0731   -4.7689   30.2308 C   0  0  0  0  0  0  0  0  0  0  0  0
  -30.7272   -4.5260   29.1002 C   0  0  0  0  0  0  0  0  0  0  0  0
  -31.5296   -5.6823   28.6080 C   0  0  0  0  0  0  0  0  0  0  0  0
  -31.5162   -5.9445   27.2444 C   0  0  0  0  0  0  0  0  0  0  0  0
  -31.6090   -7.3450   26.9251 C   0  0  0  0  0  0  0  0  0  0  0  0
  -31.4886   -8.1407   27.7400 O   0  0  0  0  0  0  0  0  0  0  0  0
  6  7  1  0
  3  8  1  0
  7  9  1  0
  9 10  1  0
 10 11  1  0
 11 12  1  0
 12 13  1  0
 13 14  1  0
 14 15  2  0
  1  2  2  0
  2  3  1  0
  3  4  2  0
  4  5  1  0
  5  6  2  0
  6  1  1  0
M  END

$$$$
