No_2526-gen_results/8p0m/2024-11-26-14-13-15/
     RDKit          3D

 19 20  0  0  0  0  0  0  0  0999 V2000
  -28.1229   -1.3353   28.4874 O   0  0  0  0  0  0  0  0  0  0  0  0
  -27.4806   -0.4044   28.7094 C   0  0  0  0  0  0  0  0  0  0  0  0
  -26.3804   -0.0867   27.9394 C   0  0  0  0  0  0  0  0  0  0  0  0
  -27.4232    0.1749   30.0549 N   0  0  0  0  0  0  0  0  0  0  0  0
  -26.1558    0.1159   26.9677 C   0  0  0  0  0  0  0  0  0  0  0  0
  -24.8999    0.6041   26.2249 C   0  0  0  0  0  0  0  0  0  0  0  0
  -23.8294    0.8007   27.0443 C   0  0  0  0  0  0  0  0  0  0  0  0
  -23.9618    0.5852   28.4109 C   0  0  0  0  0  0  0  0  0  0  0  0
  -25.0820    0.2407   28.9595 C   0  0  0  0  0  0  0  0  0  0  0  0
  -28.5139    0.2146   30.7579 C   0  0  0  0  0  0  0  0  0  0  0  0
  -29.1932    1.1892   30.8032 C   0  0  0  0  0  0  0  0  0  0  0  0
  -30.4420    1.3034   31.6214 C   0  0  0  0  0  0  0  0  0  0  0  0
  -30.7745    0.1776   32.3940 C   0  0  0  0  0  0  0  0  0  0  0  0
  -29.9826   -0.9530   32.3531 C   0  0  0  0  0  0  0  0  0  0  0  0
  -28.8087   -0.9863   31.5768 C   0  0  0  0  0  0  0  0  0  0  0  0
  -22.7808    0.9295   29.2731 C   0  0  0  0  0  0  0  0  0  0  0  0
  -23.1918    1.4936   30.3372 F   0  0  0  0  0  0  0  0  0  0  0  0
  -21.9252    1.6886   28.6965 F   0  0  0  0  0  0  0  0  0  0  0  0
  -22.2221   -0.2632   29.5642 F   0  0  0  0  0  0  0  0  0  0  0  0
  1  2  2  0
  2  3  1  0
  2  4  1  0
  4 10  1  0
  8 16  1  0
 16 17  1  0
 16 18  1  0
 16 19  1  0
  3  5  2  0
  5  6  1  0
  6  7  2  0
  7  8  1  0
  8  9  2  0
  9  3  1  0
 10 11  2  0
 11 12  1  0
 12 13  2  0
 13 14  1  0
 14 15  2  0
 15 10  1  0
M  END

$$$$
