No_2182-gen_results/8p0m/2024-11-26-14-13-15/
     RDKit          3D

 35 38  0  0  0  0  0  0  0  0999 V2000
  -28.1229   -1.3353   28.4874 O   0  0  0  0  0  0  0  0  0  0  0  0
  -27.4806   -0.4044   28.7094 C   0  0  0  0  0  0  0  0  0  0  0  0
  -26.3804   -0.0867   27.9394 C   0  0  0  0  0  0  0  0  0  0  0  0
  -27.6664    0.4468   29.8988 N   0  0  0  0  0  0  0  0  0  0  0  0
  -26.4086    0.8567   26.8802 C   0  0  0  0  0  0  0  0  0  0  0  0
  -25.0824   -0.6970   28.1699 C   0  0  0  0  0  0  0  0  0  0  0  0
  -25.2842    1.0488   26.0470 C   0  0  0  0  0  0  0  0  0  0  0  0
  -23.8947   -0.3309   27.4777 C   0  0  0  0  0  0  0  0  0  0  0  0
  -24.0554    0.5635   26.3806 C   0  0  0  0  0  0  0  0  0  0  0  0
  -28.7845    0.1119   30.7794 C   0  0  0  0  0  0  0  0  0  0  0  0
  -26.8479    1.5206   30.2213 C   0  0  0  0  0  0  0  0  0  0  0  0
  -26.9446    2.2856   30.9227 C   0  0  0  0  0  0  0  0  0  0  0  0
  -27.2230    3.2276   31.2371 C   0  0  0  0  0  0  0  0  0  0  0  0
  -27.8214    4.1525   30.1738 C   0  0  0  0  0  0  0  0  0  0  0  0
  -27.4251    5.1405   29.7820 C   0  0  0  0  0  0  0  0  0  0  0  0
  -26.5148    5.3354   29.1877 C   0  0  0  0  0  0  0  0  0  0  0  0
  -25.2943    5.5922   29.7914 C   0  0  0  0  0  0  0  0  0  0  0  0
  -26.3862    5.2176   27.6972 C   0  0  0  0  0  0  0  0  0  0  0  0
  -27.6929    1.4898   26.5420 C   0  0  0  0  0  0  0  0  0  0  0  0
  -28.2334    2.3347   27.2747 C   0  0  0  0  0  0  0  0  0  0  0  0
  -29.4780    3.0613   26.9180 C   0  0  0  0  0  0  0  0  0  0  0  0
  -30.0419    2.7800   25.7675 C   0  0  0  0  0  0  0  0  0  0  0  0
  -28.2484    1.1674   25.2466 C   0  0  0  0  0  0  0  0  0  0  0  0
  -27.6625    0.1894   24.4217 C   0  0  0  0  0  0  0  0  0  0  0  0
  -29.4384    1.8003   24.8519 C   0  0  0  0  0  0  0  0  0  0  0  0
  -25.3434    5.9865   31.1462 C   0  0  0  0  0  0  0  0  0  0  0  0
  -24.4858    5.3299   32.0323 C   0  0  0  0  0  0  0  0  0  0  0  0
  -24.9338    5.0690   33.1945 N   0  0  0  0  0  0  0  0  0  0  0  0
  -28.3806    6.3442   29.8231 C   0  0  0  0  0  0  0  0  0  0  0  0
  -25.1979    6.0260   34.1291 C   0  0  0  0  0  0  0  0  0  0  0  0
  -25.9782    7.0652   33.4325 C   0  0  0  0  0  0  0  0  0  0  0  0
  -25.9980    7.1422   31.8402 C   0  0  0  0  0  0  0  0  0  0  0  0
  -28.4604    7.3194   29.2852 C   0  0  0  0  0  0  0  0  0  0  0  0
  -27.6755    7.6446   28.0599 C   0  0  0  0  0  0  0  0  0  0  0  0
  -26.8271    6.6892   27.3665 C   0  0  0  0  0  0  0  0  0  0  0  0
  1  2  2  0
  2  3  1  0
  2  4  1  0
  4 10  1  0
  4 11  1  0
 11 12  2  3
 12 13  1  0
 13 14  2  3
 14 15  1  0
 15 16  1  0
 16 17  2  3
 16 18  1  0
  5 19  1  0
 23 24  1  0
 17 26  1  0
 15 29  1  0
 29 33  2  0
 33 34  1  0
 18 35  2  0
 34 35  2  0
 19 20  2  0
 20 21  1  0
 21 22  2  0
 22 25  1  0
 25 23  2  0
 23 19  1  0
 26 27  2  0
 27 28  1  0
 28 30  2  0
 30 31  1  0
 31 32  2  0
 32 26  1  0
  3  5  2  0
  5  7  1  0
  7  9  2  0
  9  8  1  0
  8  6  2  0
  6  3  1  0
M  END

$$$$
