No_2734-gen_results/8p0m/2024-11-26-14-13-15/
     RDKit          3D

 25 26  0  0  0  0  0  0  0  0999 V2000
  -28.0162   -0.8135   28.8779 C   0  0  0  0  0  0  0  0  0  0  0  0
  -27.0636   -0.1189   28.6079 C   0  0  0  0  0  0  0  0  0  0  0  0
  -26.9716    0.7139   27.5060 C   0  0  0  0  0  0  0  0  0  0  0  0
  -25.8206    1.4910   27.1160 C   0  0  0  0  0  0  0  0  0  0  0  0
  -24.6562    1.4242   27.9180 C   0  0  0  0  0  0  0  0  0  0  0  0
  -23.4598    2.1165   27.6160 C   0  0  0  0  0  0  0  0  0  0  0  0
  -22.3449    1.9937   28.4413 C   0  0  0  0  0  0  0  0  0  0  0  0
  -22.2164    0.7373   28.9666 C   0  0  0  0  0  0  0  0  0  0  0  0
  -23.2887   -0.1160   29.3251 C   0  0  0  0  0  0  0  0  0  0  0  0
  -24.3390    0.0499   28.4722 C   0  0  0  0  0  0  0  0  0  0  0  0
  -27.9829   -1.6198   30.1118 C   0  0  0  0  0  0  0  0  0  0  0  0
  -25.6691   -0.4856   29.1603 C   0  0  0  0  0  0  0  0  0  0  0  0
  -26.8272   -2.1236   30.4916 F   0  0  0  0  0  0  0  0  0  0  0  0
  -28.3878   -0.9024   31.2371 F   0  0  0  0  0  0  0  0  0  0  0  0
  -28.8748   -2.7129   29.9805 F   0  0  0  0  0  0  0  0  0  0  0  0
  -28.2173    1.1214   26.8333 C   0  0  0  0  0  0  0  0  0  0  0  0
  -29.0651    1.6558   27.3189 O   0  0  0  0  0  0  0  0  0  0  0  0
  -28.3991    0.3631   25.6617 O   0  0  0  0  0  0  0  0  0  0  0  0
  -25.9463    2.4173   26.2724 O   0  0  0  0  0  0  0  0  0  0  0  0
  -27.8277    0.4272   24.5872 C   0  0  0  0  0  0  0  0  0  0  0  0
  -23.0642   -1.3082   30.0804 C   0  0  0  0  0  0  0  0  0  0  0  0
  -23.8237   -2.2156   30.2920 O   0  0  0  0  0  0  0  0  0  0  0  0
  -21.9523   -1.2828   30.8427 O   0  0  0  0  0  0  0  0  0  0  0  0
  -24.2592   -0.9943   27.3021 C   0  0  0  0  0  0  0  0  0  0  0  0
  -24.0781    0.5464   30.6602 Cl  0  0  0  0  0  0  0  0  0  0  0  0
  1  2  2  3
  2  3  1  0
  3  4  1  0
  4  5  1  0
  6  7  1  0
  8  9  1  0
  5 10  1  0
  9 10  1  0
  1 11  1  0
  2 12  1  0
 10 12  1  0
 11 13  1  0
 11 14  1  0
 11 15  1  0
  3 16  1  0
 16 17  2  0
 16 18  1  0
  4 19  2  0
 18 20  1  0
  9 21  1  0
 21 22  2  0
 21 23  1  0
 10 24  1  0
  9 25  1  0
  5  6  1  0
  7  8  1  0
M  END

$$$$
