No_2429-gen_results/8p0m/2024-11-26-14-13-15/
     RDKit          3D

 33 36  0  0  0  0  0  0  0  0999 V2000
  -28.0162   -0.8135   28.8779 C   0  0  0  0  0  0  0  0  0  0  0  0
  -27.0636   -0.1190   28.6079 C   0  0  0  0  0  0  0  0  0  0  0  0
  -26.9287    1.1713   29.0083 C   0  0  0  0  0  0  0  0  0  0  0  0
  -27.9560    1.7411   29.7840 C   0  0  0  0  0  0  0  0  0  0  0  0
  -29.0569   -0.3271   29.7466 C   0  0  0  0  0  0  0  0  0  0  0  0
  -28.9828    0.9722   30.1516 C   0  0  0  0  0  0  0  0  0  0  0  0
  -25.9911   -0.6119   27.8566 O   0  0  0  0  0  0  0  0  0  0  0  0
  -24.6317   -0.3328   28.2530 C   0  0  0  0  0  0  0  0  0  0  0  0
  -23.9205   -1.2516   28.9900 C   0  0  0  0  0  0  0  0  0  0  0  0
  -24.0063    0.7971   27.6717 C   0  0  0  0  0  0  0  0  0  0  0  0
  -22.6700    1.0498   28.0433 C   0  0  0  0  0  0  0  0  0  0  0  0
  -21.9478    0.1544   28.7969 C   0  0  0  0  0  0  0  0  0  0  0  0
  -22.5922   -1.0494   29.2196 C   0  0  0  0  0  0  0  0  0  0  0  0
  -20.7125    0.3124   28.9939 F   0  0  0  0  0  0  0  0  0  0  0  0
  -29.9501   -1.2612   30.1292 O   0  0  0  0  0  0  0  0  0  0  0  0
  -29.6266   -2.2529   30.9177 C   0  0  0  0  0  0  0  0  0  0  0  0
  -27.8167    3.1793   30.1829 C   0  0  0  0  0  0  0  0  0  0  0  0
  -27.1298    3.8878   29.6876 O   0  0  0  0  0  0  0  0  0  0  0  0
  -28.6037    3.5816   31.2477 N   0  0  0  0  0  0  0  0  0  0  0  0
  -28.5584    4.9461   31.7236 C   0  0  0  0  0  0  0  0  0  0  0  0
  -27.7599    5.7553   31.3741 C   0  0  0  0  0  0  0  0  0  0  0  0
  -27.9727    6.9298   31.2449 C   0  0  0  0  0  0  0  0  0  0  0  0
  -29.5529    5.1590   32.7185 C   0  0  0  0  0  0  0  0  0  0  0  0
  -29.7638    6.5869   32.9082 C   0  0  0  0  0  0  0  0  0  0  0  0
  -28.8990    7.5041   32.2629 C   0  0  0  0  0  0  0  0  0  0  0  0
  -29.0842    8.9521   32.4778 C   0  0  0  0  0  0  0  0  0  0  0  0
  -28.8734    9.3738   33.6044 N   0  0  0  0  0  0  0  0  0  0  0  0
  -28.4250    9.1169   34.5956 C   0  0  0  0  0  0  0  0  0  0  0  0
  -28.0333    9.2551   35.5603 C   0  0  0  0  0  0  0  0  0  0  0  0
  -27.4995    8.3461   36.5868 C   0  0  0  0  0  0  0  0  0  0  0  0
  -27.3666    7.0162   36.1742 C   0  0  0  0  0  0  0  0  0  0  0  0
  -27.6465    6.6573   34.9212 C   0  0  0  0  0  0  0  0  0  0  0  0
  -28.1270    7.5713   34.2952 N   0  0  0  0  0  0  0  0  0  0  0  0
  2  7  1  0
  7  8  1  0
 12 14  1  0
  5 15  1  0
 15 16  1  0
  4 17  1  0
 17 18  2  0
 17 19  1  0
 19 20  1  0
 25 26  1  0
 26 27  1  0
 27 28  1  0
 28 29  2  0
 29 30  1  0
 30 31  2  0
 31 32  1  0
 32 33  2  0
 33 28  1  0
 20 21  2  0
 21 22  1  0
 22 25  2  0
 25 24  1  0
 24 23  2  0
 23 20  1  0
  1  2  2  0
  2  3  1  0
  3  4  2  0
  4  6  1  0
  6  5  2  0
  5  1  1  0
  8  9  2  0
  9 13  1  0
 13 12  2  0
 12 11  1  0
 11 10  2  0
 10  8  1  0
M  END

$$$$
