No_2847-gen_results/8p0m/2024-11-26-14-13-15/
     RDKit          3D

 19 22  0  0  0  0  0  0  0  0999 V2000
  -28.0162   -0.8135   28.8779 C   0  0  0  0  0  0  0  0  0  0  0  0
  -27.0636   -0.1189   28.6079 C   0  0  0  0  0  0  0  0  0  0  0  0
  -25.7647   -0.3897   29.0360 C   0  0  0  0  0  0  0  0  0  0  0  0
  -24.5516    0.4058   28.7646 C   0  0  0  0  0  0  0  0  0  0  0  0
  -24.6957    1.4480   27.7988 C   0  0  0  0  0  0  0  0  0  0  0  0
  -25.9755    1.7250   27.3077 C   0  0  0  0  0  0  0  0  0  0  0  0
  -27.0718    1.0134   27.6535 C   0  0  0  0  0  0  0  0  0  0  0  0
  -29.1869   -0.1649   29.1026 N   0  0  0  0  0  0  0  0  0  0  0  0
  -23.4964    2.1689   27.4760 C   0  0  0  0  0  0  0  0  0  0  0  0
  -22.2362    1.6392   27.8619 C   0  0  0  0  0  0  0  0  0  0  0  0
  -22.1862    0.6201   28.8290 C   0  0  0  0  0  0  0  0  0  0  0  0
  -23.3020   -0.0988   29.2079 C   0  0  0  0  0  0  0  0  0  0  0  0
  -29.9304   -0.3781   30.0946 C   0  0  0  0  0  0  0  0  0  0  0  0
  -29.8312   -1.6291   30.7643 C   0  0  0  0  0  0  0  0  0  0  0  0
  -28.7269   -2.3109   30.6392 N   0  0  0  0  0  0  0  0  0  0  0  0
  -27.7472   -1.8106   29.9670 C   0  0  0  0  0  0  0  0  0  0  0  0
  -26.3589   -2.3037   30.1124 C   0  0  0  0  0  0  0  0  0  0  0  0
  -25.4805   -1.5020   29.8670 C   0  0  0  0  0  0  0  0  0  0  0  0
  -26.1397    2.9373   26.4546 C   0  0  0  0  0  0  0  0  0  0  0  0
  6 19  1  0
  3  4  2  0
  5  6  2  0
  6  7  1  0
  7  2  2  0
  1  8  2  0
  8 13  1  0
 13 14  2  0
 14 15  1  0
 15 16  2  0
  4  5  1  0
  5  9  1  0
  9 10  2  0
 10 11  1  0
 11 12  2  0
 12  4  1  0
  1  2  1  0
  2  3  1  0
  3 18  1  0
 18 17  2  0
 17 16  1  0
 16  1  1  0
M  END

$$$$
