No_2740-gen_results/8p0m/2024-11-26-14-13-15/
     RDKit          3D

 22 24  0  0  0  0  0  0  0  0999 V2000
  -28.0727   -1.2542   28.5316 F   0  0  0  0  0  0  0  0  0  0  0  0
  -27.0607   -0.6291   28.8721 C   0  0  0  0  0  0  0  0  0  0  0  0
  -26.1528   -1.1557   29.4537 C   0  0  0  0  0  0  0  0  0  0  0  0
  -24.8777   -0.5788   29.8639 C   0  0  0  0  0  0  0  0  0  0  0  0
  -24.7426    0.8273   29.4808 C   0  0  0  0  0  0  0  0  0  0  0  0
  -25.7883    1.3927   28.7628 C   0  0  0  0  0  0  0  0  0  0  0  0
  -26.9145    0.7309   28.4427 C   0  0  0  0  0  0  0  0  0  0  0  0
  -25.5328    2.8344   28.3724 C   0  0  0  0  0  0  0  0  0  0  0  0
  -25.7595    3.8174   29.1814 N   0  0  0  0  0  0  0  0  0  0  0  0
  -25.0561    3.1278   27.0330 C   0  0  0  0  0  0  0  0  0  0  0  0
  -25.9795    4.9862   28.8348 C   0  0  0  0  0  0  0  0  0  0  0  0
  -24.9610    4.4978   26.6605 C   0  0  0  0  0  0  0  0  0  0  0  0
  -25.3777    5.4858   27.5813 C   0  0  0  0  0  0  0  0  0  0  0  0
  -24.5738    2.1362   26.1782 C   0  0  0  0  0  0  0  0  0  0  0  0
  -27.9885    1.3397   27.6768 C   0  0  0  0  0  0  0  0  0  0  0  0
  -28.0030    1.2851   26.3210 C   0  0  0  0  0  0  0  0  0  0  0  0
  -28.8433    1.8204   25.6590 C   0  0  0  0  0  0  0  0  0  0  0  0
  -28.8112    1.6661   24.1547 C   0  0  0  0  0  0  0  0  0  0  0  0
  -29.7517    2.3723   23.3914 C   0  0  0  0  0  0  0  0  0  0  0  0
  -30.7875    3.1442   23.9520 C   0  0  0  0  0  0  0  0  0  0  0  0
  -30.8758    3.1682   25.3581 C   0  0  0  0  0  0  0  0  0  0  0  0
  -29.9522    2.6314   26.1710 C   0  0  0  0  0  0  0  0  0  0  0  0
  1  2  1  0
  6  8  1  0
 10 14  1  0
  7 15  1  0
 15 16  2  3
 16 17  1  0
  8  9  2  0
  9 11  1  0
 11 13  2  0
 13 12  1  0
 12 10  2  0
 10  8  1  0
  2  3  2  0
  3  4  1  0
  4  5  2  0
  5  6  1  0
  6  7  2  0
  7  2  1  0
 17 18  2  0
 18 19  1  0
 19 20  2  0
 20 21  1  0
 21 22  2  0
 22 17  1  0
M  END

$$$$
