No_2008-gen_results/8p0m/2024-11-26-14-13-15/
     RDKit          3D

 15 16  0  0  0  0  0  0  0  0999 V2000
  -28.0162   -0.8135   28.8779 C   0  0  0  0  0  0  0  0  0  0  0  0
  -28.4690   -0.7850   29.8287 C   0  0  0  0  0  0  0  0  0  0  0  0
  -26.6082   -0.9454   28.8569 N   0  0  0  0  0  0  0  0  0  0  0  0
  -26.0396   -1.5690   29.9264 C   0  0  0  0  0  0  0  0  0  0  0  0
  -30.0290   -0.5837   29.9472 C   0  0  0  0  0  0  0  0  0  0  0  0
  -24.5999   -1.7470   29.9535 N   0  0  0  0  0  0  0  0  0  0  0  0
  -27.9008   -1.2673   31.1538 C   0  0  0  0  0  0  0  0  0  0  0  0
  -26.4197   -1.2694   31.2690 C   0  0  0  0  0  0  0  0  0  0  0  0
  -23.7308   -0.8685   29.4297 C   0  0  0  0  0  0  0  0  0  0  0  0
  -24.0006    0.4949   29.2244 C   0  0  0  0  0  0  0  0  0  0  0  0
  -23.0399    1.3190   28.6783 C   0  0  0  0  0  0  0  0  0  0  0  0
  -21.7287    0.8750   28.4083 C   0  0  0  0  0  0  0  0  0  0  0  0
  -22.3429   -1.2613   29.1031 C   0  0  0  0  0  0  0  0  0  0  0  0
  -21.4122   -0.3886   28.7064 C   0  0  0  0  0  0  0  0  0  0  0  0
  -30.7120   -1.0953   30.6256 O   0  0  0  0  0  0  0  0  0  0  0  0
  1  2  1  0
  1  3  1  0
  3  4  1  0
  2  5  2  0
  4  6  1  0
  2  7  1  0
  4  8  1  0
  7  8  1  0
  6  9  1  0
  5 15  2  0
  9 10  2  0
 10 11  1  0
 11 12  2  0
 12 14  1  0
 14 13  2  0
 13  9  1  0
M  END

$$$$
