No_2282-gen_results/8p0m/2024-11-26-14-13-15/
     RDKit          3D

 18 19  0  0  0  0  0  0  0  0999 V2000
  -28.0162   -0.8135   28.8779 C   0  0  0  0  0  0  0  0  0  0  0  0
  -27.0636   -0.1190   28.6079 C   0  0  0  0  0  0  0  0  0  0  0  0
  -26.8756    1.1325   28.9134 C   0  0  0  0  0  0  0  0  0  0  0  0
  -25.6883    1.9515   28.5672 C   0  0  0  0  0  0  0  0  0  0  0  0
  -24.6394    1.2834   27.8753 C   0  0  0  0  0  0  0  0  0  0  0  0
  -24.8068   -0.0513   27.6040 C   0  0  0  0  0  0  0  0  0  0  0  0
  -25.9019   -0.7670   27.9511 C   0  0  0  0  0  0  0  0  0  0  0  0
  -28.6392   -0.5118   30.2403 C   0  0  0  0  0  0  0  0  0  0  0  0
  -28.8731    0.8215   30.4840 C   0  0  0  0  0  0  0  0  0  0  0  0
  -29.6580    1.2802   31.5038 C   0  0  0  0  0  0  0  0  0  0  0  0
  -27.8272    1.6725   29.8682 C   0  0  0  0  0  0  0  0  0  0  0  0
  -23.4606    1.9804   27.4102 C   0  0  0  0  0  0  0  0  0  0  0  0
  -22.3264    1.6948   27.7913 O   0  0  0  0  0  0  0  0  0  0  0  0
  -23.6819    3.1960   26.8931 O   0  0  0  0  0  0  0  0  0  0  0  0
  -30.4873    0.7656   31.8130 F   0  0  0  0  0  0  0  0  0  0  0  0
  -30.1080    2.5766   31.0758 F   0  0  0  0  0  0  0  0  0  0  0  0
  -28.8196    1.5851   32.5739 F   0  0  0  0  0  0  0  0  0  0  0  0
  -25.5907    3.2102   28.9262 O   0  0  0  0  0  0  0  0  0  0  0  0
  3  4  1  0
  4  5  1  0
  5  6  1  0
  2  7  1  0
  9 10  1  0
  5 12  1  0
 12 13  2  0
 12 14  1  0
 10 15  1  0
 10 16  1  0
 10 17  1  0
  4 18  2  0
  7  6  1  0
  1  2  2  0
  2  3  1  0
  3 11  2  0
 11  9  1  0
  9  8  2  0
  8  1  1  0
M  END

$$$$
