No_2981-gen_results/8p0m/2024-11-26-14-13-15/
     RDKit          3D

 19 21  0  0  0  0  0  0  0  0999 V2000
  -28.0162   -0.8135   28.8779 C   0  0  0  0  0  0  0  0  0  0  0  0
  -27.0636   -0.1189   28.6079 C   0  0  0  0  0  0  0  0  0  0  0  0
  -25.7923   -0.4302   29.0761 C   0  0  0  0  0  0  0  0  0  0  0  0
  -24.5456    0.3494   28.8225 C   0  0  0  0  0  0  0  0  0  0  0  0
  -23.2409    0.0217   29.3323 C   0  0  0  0  0  0  0  0  0  0  0  0
  -22.1362    0.7695   29.0059 C   0  0  0  0  0  0  0  0  0  0  0  0
  -27.9050   -1.8984   29.8729 C   0  0  0  0  0  0  0  0  0  0  0  0
  -26.6795   -2.3145   30.3184 C   0  0  0  0  0  0  0  0  0  0  0  0
  -25.5203   -1.5564   29.9775 C   0  0  0  0  0  0  0  0  0  0  0  0
  -22.1253    1.7361   28.0244 C   0  0  0  0  0  0  0  0  0  0  0  0
  -24.5436    1.3861   27.7915 C   0  0  0  0  0  0  0  0  0  0  0  0
  -23.3374    2.0469   27.4517 C   0  0  0  0  0  0  0  0  0  0  0  0
  -29.0589   -2.7183   30.2932 C   0  0  0  0  0  0  0  0  0  0  0  0
  -29.0117   -3.9171   30.2805 O   0  0  0  0  0  0  0  0  0  0  0  0
  -30.1888   -2.0942   30.6878 N   0  0  0  0  0  0  0  0  0  0  0  0
  -30.3706   -0.6627   30.8016 C   0  0  0  0  0  0  0  0  0  0  0  0
  -31.6413   -0.3438   30.8418 C   0  0  0  0  0  0  0  0  0  0  0  0
  -32.6036   -1.2307   30.9420 C   0  0  0  0  0  0  0  0  0  0  0  0
  -31.4936   -2.6394   30.7364 C   0  0  0  0  0  0  0  0  0  0  0  0
  3  4  1  0
  7 13  1  0
 13 14  2  0
 13 15  1  0
 15 16  1  0
 16 17  2  0
 17 18  1  0
 15 19  1  0
 18 19  2  0
  1  2  2  0
  2  3  1  0
  3  9  2  0
  9  8  1  0
  8  7  2  0
  7  1  1  0
  4  5  2  0
  5  6  1  0
  6 10  2  0
 10 12  1  0
 12 11  2  0
 11  4  1  0
M  END

$$$$
