No_2025-gen_results/8p0m/2024-11-26-14-13-15/
     RDKit          3D

 35 37  0  0  0  0  0  0  0  0999 V2000
  -28.0162   -0.8135   28.8779 C   0  0  0  0  0  0  0  0  0  0  0  0
  -27.0636   -0.1189   28.6079 C   0  0  0  0  0  0  0  0  0  0  0  0
  -26.9716    0.7139   27.5060 C   0  0  0  0  0  0  0  0  0  0  0  0
  -25.8205    1.4910   27.1160 C   0  0  0  0  0  0  0  0  0  0  0  0
  -24.6562    1.4242   27.9180 C   0  0  0  0  0  0  0  0  0  0  0  0
  -24.6847    0.5901   29.0659 C   0  0  0  0  0  0  0  0  0  0  0  0
  -25.8099   -0.1265   29.3338 C   0  0  0  0  0  0  0  0  0  0  0  0
  -28.6943   -0.4734   30.1587 C   0  0  0  0  0  0  0  0  0  0  0  0
  -28.6464    0.5791   30.6347 N   0  0  0  0  0  0  0  0  0  0  0  0
  -29.6999   -1.3940   30.5785 N   0  0  0  0  0  0  0  0  0  0  0  0
  -29.3520    0.9673   31.8179 C   0  0  0  0  0  0  0  0  0  0  0  0
  -23.4679    2.1949   27.5981 C   0  0  0  0  0  0  0  0  0  0  0  0
  -22.5419    2.2066   28.4523 O   0  0  0  0  0  0  0  0  0  0  0  0
  -23.4298    2.8877   26.5213 O   0  0  0  0  0  0  0  0  0  0  0  0
  -29.8792   -2.6127   30.0481 C   0  0  0  0  0  0  0  0  0  0  0  0
  -30.4490   -1.1069   31.7024 C   0  0  0  0  0  0  0  0  0  0  0  0
  -30.2458    0.1458   32.3215 C   0  0  0  0  0  0  0  0  0  0  0  0
  -31.2289   -3.1290   29.9439 C   0  0  0  0  0  0  0  0  0  0  0  0
  -31.7856   -2.9049   28.7627 C   0  0  0  0  0  0  0  0  0  0  0  0
  -32.8557   -2.7839   28.7263 O   0  0  0  0  0  0  0  0  0  0  0  0
  -31.1306   -2.2554   27.8519 O   0  0  0  0  0  0  0  0  0  0  0  0
  -28.0452    0.8561   26.6467 N   0  0  0  0  0  0  0  0  0  0  0  0
  -28.8940    1.8955   26.7770 C   0  0  0  0  0  0  0  0  0  0  0  0
  -28.6625    2.7821   27.5394 O   0  0  0  0  0  0  0  0  0  0  0  0
  -30.1960    1.7081   26.1066 C   0  0  0  0  0  0  0  0  0  0  0  0
  -31.2267    2.2113   26.6505 C   0  0  0  0  0  0  0  0  0  0  0  0
  -32.5774    2.0450   26.0629 C   0  0  0  0  0  0  0  0  0  0  0  0
  -32.6364    1.2636   24.9110 C   0  0  0  0  0  0  0  0  0  0  0  0
  -31.4767    0.6896   24.3625 C   0  0  0  0  0  0  0  0  0  0  0  0
  -30.2772    0.8992   24.9676 C   0  0  0  0  0  0  0  0  0  0  0  0
  -31.0587   -4.6066   30.1692 N   0  0  0  0  0  0  0  0  0  0  0  0
  -30.5271   -5.1822   31.1748 C   0  0  0  0  0  0  0  0  0  0  0  0
  -31.5010   -5.4629   29.1420 C   0  0  0  0  0  0  0  0  0  0  0  0
  -29.1038    2.2347   32.3704 N   0  0  0  0  0  0  0  0  0  0  0  0
  -29.0089    3.2901   31.7571 C   0  0  0  0  0  0  0  0  0  0  0  0
  1  8  1  0
  8 10  1  0
  9 11  1  0
  5 12  1  0
 12 13  2  0
 12 14  1  0
 10 15  1  0
 10 16  1  0
 16 17  1  0
 15 18  1  0
 18 19  1  0
 19 20  1  0
 19 21  2  0
  3 22  1  0
 22 23  1  0
 23 24  2  0
 23 25  1  0
 18 31  1  0
 31 32  1  0
 31 33  1  0
 11 34  1  0
 34 35  2  0
  1  2  1  0
  8  9  1  0
 11 17  1  0
  2  3  1  0
  3  4  2  0
  4  5  1  0
  5  6  2  0
  6  7  1  0
  7  2  2  0
 25 26  2  0
 26 27  1  0
 27 28  2  0
 28 29  1  0
 29 30  2  0
 30 25  1  0
M  END

$$$$
