No_2926-gen_results/8p0m/2024-11-26-14-13-15/
     RDKit          3D

 29 31  0  0  0  0  0  0  0  0999 V2000
  -28.0162   -0.8135   28.8779 C   0  0  0  0  0  0  0  0  0  0  0  0
  -27.0636   -0.1189   28.6079 C   0  0  0  0  0  0  0  0  0  0  0  0
  -26.9515    1.1286   28.9566 N   0  0  0  0  0  0  0  0  0  0  0  0
  -29.1088   -0.2102   29.6318 C   0  0  0  0  0  0  0  0  0  0  0  0
  -29.0365    0.8335   29.8907 C   0  0  0  0  0  0  0  0  0  0  0  0
  -27.9758    1.6953   29.6193 C   0  0  0  0  0  0  0  0  0  0  0  0
  -25.8348   -0.8018   28.0389 C   0  0  0  0  0  0  0  0  0  0  0  0
  -24.6142    0.0762   27.0454 Br  0  0  0  0  0  0  0  0  0  0  0  0
  -24.9250   -1.5427   29.0754 C   0  0  0  0  0  0  0  0  0  0  0  0
  -24.0064   -0.9047   29.6568 C   0  0  0  0  0  0  0  0  0  0  0  0
  -23.8522   -0.1748   30.4180 C   0  0  0  0  0  0  0  0  0  0  0  0
  -24.8890    0.3691   31.2827 C   0  0  0  0  0  0  0  0  0  0  0  0
  -24.6991    1.5265   32.1353 C   0  0  0  0  0  0  0  0  0  0  0  0
  -25.7405    1.9682   32.9807 C   0  0  0  0  0  0  0  0  0  0  0  0
  -26.8234    1.0856   33.1512 C   0  0  0  0  0  0  0  0  0  0  0  0
  -26.9328   -0.0825   32.4390 C   0  0  0  0  0  0  0  0  0  0  0  0
  -25.9409   -0.4891   31.6026 C   0  0  0  0  0  0  0  0  0  0  0  0
  -27.8494    3.0561   29.9391 N   0  0  0  0  0  0  0  0  0  0  0  0
  -26.8812    3.8738   29.5450 C   0  0  0  0  0  0  0  0  0  0  0  0
  -26.8367    5.1276   30.1289 C   0  0  0  0  0  0  0  0  0  0  0  0
  -28.8049    3.7343   30.7683 C   0  0  0  0  0  0  0  0  0  0  0  0
  -28.7459    4.9743   31.2930 C   0  0  0  0  0  0  0  0  0  0  0  0
  -27.6711    5.7557   30.8996 C   0  0  0  0  0  0  0  0  0  0  0  0
  -30.2591   -1.1990   29.9274 C   0  0  0  0  0  0  0  0  0  0  0  0
  -30.1805   -2.0325   30.6866 O   0  0  0  0  0  0  0  0  0  0  0  0
  -31.3527   -0.8930   29.2937 O   0  0  0  0  0  0  0  0  0  0  0  0
  -27.9742    1.5713   34.0382 C   0  0  0  0  0  0  0  0  0  0  0  0
  -29.1101    1.1601   33.9025 N   0  0  0  0  0  0  0  0  0  0  0  0
  -30.1306    1.6623   34.6330 C   0  0  0  0  0  0  0  0  0  0  0  0
  2  7  1  0
  7  8  1  0
  7  9  1  0
  9 10  2  3
 10 11  1  0
  6 18  1  0
 18 19  1  0
 18 21  1  0
 20 23  1  0
 22 23  1  0
  4 24  1  0
 24 25  2  0
 24 26  1  0
 15 27  1  0
 27 28  2  3
 28 29  1  0
 11 12  1  0
 19 20  1  0
 22 21  1  0
 12 13  2  0
 13 14  1  0
 14 15  2  0
 15 16  1  0
 16 17  2  0
 17 12  1  0
  1  2  2  0
  2  3  1  0
  3  6  2  0
  6  5  1  0
  5  4  2  0
  4  1  1  0
M  END

$$$$
