No_2221-gen_results/8p0m/2024-11-26-14-13-15/
     RDKit          3D

 17 19  0  0  0  0  0  0  0  0999 V2000
  -28.0162   -0.8135   28.8779 C   0  0  0  0  0  0  0  0  0  0  0  0
  -28.4690   -0.7850   29.8287 C   0  0  0  0  0  0  0  0  0  0  0  0
  -28.1960    0.3478   28.0550 C   0  0  0  0  0  0  0  0  0  0  0  0
  -29.0191    1.3501   28.3782 C   0  0  0  0  0  0  0  0  0  0  0  0
  -29.4107    0.1803   30.3782 C   0  0  0  0  0  0  0  0  0  0  0  0
  -29.6059    1.2495   29.6193 C   0  0  0  0  0  0  0  0  0  0  0  0
  -27.4478    0.3799   26.7122 C   0  0  0  0  0  0  0  0  0  0  0  0
  -27.8571    0.8148   25.7030 C   0  0  0  0  0  0  0  0  0  0  0  0
  -29.1924    1.3089   25.6718 C   0  0  0  0  0  0  0  0  0  0  0  0
  -29.6185    1.8224   27.0021 C   0  0  0  0  0  0  0  0  0  0  0  0
  -30.6137    2.3203   29.9706 C   0  0  0  0  0  0  0  0  0  0  0  0
  -31.6598    2.1997   30.1324 C   0  0  0  0  0  0  0  0  0  0  0  0
  -32.5740    3.2852   30.5480 C   0  0  0  0  0  0  0  0  0  0  0  0
  -29.8714    3.6261   30.1178 C   0  0  0  0  0  0  0  0  0  0  0  0
  -30.6698    4.7295   30.4858 C   0  0  0  0  0  0  0  0  0  0  0  0
  -31.9926    4.5420   30.7148 C   0  0  0  0  0  0  0  0  0  0  0  0
  -30.7203    2.6522   27.1063 O   0  0  0  0  0  0  0  0  0  0  0  0
  3  7  1  0
  8  9  1  0
  4 10  1  0
  9 10  1  0
  6 11  1  0
 10 17  2  0
  7  8  1  0
  1  2  2  0
  2  5  1  0
  5  6  2  0
  6  4  1  0
  4  3  2  0
  3  1  1  0
 11 12  2  0
 12 13  1  0
 13 16  2  0
 16 15  1  0
 15 14  2  0
 14 11  1  0
M  END

$$$$
