No_2140-gen_results/8p0m/2024-11-26-14-13-15/
     RDKit          3D

 14 14  0  0  0  0  0  0  0  0999 V2000
  -28.0162   -0.8135   28.8779 C   0  0  0  0  0  0  0  0  0  0  0  0
  -27.0636   -0.1189   28.6079 C   0  0  0  0  0  0  0  0  0  0  0  0
  -27.0010    0.6913   27.4910 C   0  0  0  0  0  0  0  0  0  0  0  0
  -25.8548    1.4825   27.0830 C   0  0  0  0  0  0  0  0  0  0  0  0
  -24.6901    1.4526   27.8807 C   0  0  0  0  0  0  0  0  0  0  0  0
  -24.7379    0.6010   29.0416 C   0  0  0  0  0  0  0  0  0  0  0  0
  -25.8234   -0.1688   29.3887 C   0  0  0  0  0  0  0  0  0  0  0  0
  -28.7350   -0.4637   30.1419 C   0  0  0  0  0  0  0  0  0  0  0  0
  -29.8111   -1.3049   30.6008 C   0  0  0  0  0  0  0  0  0  0  0  0
  -23.5152    2.1989   27.5480 C   0  0  0  0  0  0  0  0  0  0  0  0
  -23.4237    2.7858   26.4338 O   0  0  0  0  0  0  0  0  0  0  0  0
  -22.3718    1.9864   28.1864 O   0  0  0  0  0  0  0  0  0  0  0  0
  -30.0425   -2.3828   29.9306 C   0  0  0  0  0  0  0  0  0  0  0  0
  -29.2774   -3.0072   29.1195 C   0  0  0  0  0  0  0  0  0  0  0  0
  1  2  1  0
  1  8  1  0
  8  9  1  0
  5 10  1  0
 10 11  2  0
 10 12  1  0
  9 13  2  3
 13 14  1  0
  2  3  2  0
  3  4  1  0
  4  5  2  0
  5  6  1  0
  6  7  2  0
  7  2  1  0
M  END

$$$$
