No_2839-gen_results/8p0m/2024-11-26-14-13-15/
     RDKit          3D

 16 16  0  0  0  0  0  0  0  0999 V2000
  -28.0162   -0.8135   28.8779 C   0  0  0  0  0  0  0  0  0  0  0  0
  -27.0636   -0.1190   28.6079 C   0  0  0  0  0  0  0  0  0  0  0  0
  -26.9287    1.1713   29.0083 C   0  0  0  0  0  0  0  0  0  0  0  0
  -25.7702    2.0341   28.6884 C   0  0  0  0  0  0  0  0  0  0  0  0
  -24.7141    1.4431   27.9188 C   0  0  0  0  0  0  0  0  0  0  0  0
  -24.8590    0.0783   27.5836 C   0  0  0  0  0  0  0  0  0  0  0  0
  -25.9647   -0.6606   27.9164 C   0  0  0  0  0  0  0  0  0  0  0  0
  -28.0422   -1.5426   30.2417 C   0  0  0  0  0  0  0  0  0  0  0  0
  -27.0493   -1.6480   30.8391 N   0  0  0  0  0  0  0  0  0  0  0  0
  -29.1345   -2.1192   30.5825 O   0  0  0  0  0  0  0  0  0  0  0  0
  -23.5306    2.1621   27.5677 C   0  0  0  0  0  0  0  0  0  0  0  0
  -22.4080    1.6711   27.2205 N   0  0  0  0  0  0  0  0  0  0  0  0
  -23.6916    3.4623   27.4365 O   0  0  0  0  0  0  0  0  0  0  0  0
  -26.9321   -2.5467   32.1428 C   0  0  0  0  0  0  0  0  0  0  0  0
  -27.7669   -1.7039   33.1041 C   0  0  0  0  0  0  0  0  0  0  0  0
  -27.1294   -0.8688   33.7634 O   0  0  0  0  0  0  0  0  0  0  0  0
  1  2  1  0
  1  8  1  0
  8  9  1  0
  8 10  2  0
  5 11  1  0
 11 12  2  0
 11 13  1  0
  9 14  1  0
 14 15  1  0
 15 16  2  0
  2  3  2  0
  3  4  1  0
  4  5  2  0
  5  6  1  0
  6  7  2  0
  7  2  1  0
M  END

$$$$
