No_2382-gen_results/8p0m/2024-11-26-14-13-15/
     RDKit          3D

 12 12  0  0  0  0  0  0  0  0999 V2000
  -28.0162   -0.8135   28.8779 C   0  0  0  0  0  0  0  0  0  0  0  0
  -27.0636   -0.1190   28.6079 C   0  0  0  0  0  0  0  0  0  0  0  0
  -25.7647   -0.3897   29.0360 C   0  0  0  0  0  0  0  0  0  0  0  0
  -25.5296   -1.5302   29.9014 C   0  0  0  0  0  0  0  0  0  0  0  0
  -26.6888   -2.2893   30.1810 C   0  0  0  0  0  0  0  0  0  0  0  0
  -27.8727   -1.9508   29.7373 C   0  0  0  0  0  0  0  0  0  0  0  0
  -28.9305   -2.7298   30.1154 O   0  0  0  0  0  0  0  0  0  0  0  0
  -24.4178    0.2270   28.7824 C   0  0  0  0  0  0  0  0  0  0  0  0
  -24.3425    1.2461   27.8468 C   0  0  0  0  0  0  0  0  0  0  0  0
  -25.3649    1.8209   27.1274 C   0  0  0  0  0  0  0  0  0  0  0  0
  -22.9906    1.8484   27.6417 C   0  0  0  0  0  0  0  0  0  0  0  0
  -22.0152    1.5211   28.5193 N   0  0  0  0  0  0  0  0  0  0  0  0
  6  7  1  0
  3  8  1  0
  8  9  2  3
  9 10  1  0
  9 11  1  0
 11 12  1  0
  1  2  2  0
  2  3  1  0
  3  4  2  0
  4  5  1  0
  5  6  2  0
  6  1  1  0
M  END

$$$$
