No_2322-gen_results/8p0m/2024-11-26-14-13-15/
     RDKit          3D

 35 37  0  0  0  0  0  0  0  0999 V2000
  -28.0162   -0.8135   28.8779 C   0  0  0  0  0  0  0  0  0  0  0  0
  -28.4690   -0.7850   29.8287 C   0  0  0  0  0  0  0  0  0  0  0  0
  -26.5042   -0.7777   28.8766 C   0  0  0  0  0  0  0  0  0  0  0  0
  -25.8103   -0.8531   30.1028 C   0  0  0  0  0  0  0  0  0  0  0  0
  -27.9906   -0.8916   31.2257 C   0  0  0  0  0  0  0  0  0  0  0  0
  -26.6042   -0.8676   31.2652 C   0  0  0  0  0  0  0  0  0  0  0  0
  -29.9203   -0.8331   29.8239 F   0  0  0  0  0  0  0  0  0  0  0  0
  -24.4637   -0.7983   30.1309 N   0  0  0  0  0  0  0  0  0  0  0  0
  -23.6546   -0.2922   29.1890 C   0  0  0  0  0  0  0  0  0  0  0  0
  -22.2360   -0.3441   29.3855 C   0  0  0  0  0  0  0  0  0  0  0  0
  -24.1382    0.4525   28.1253 C   0  0  0  0  0  0  0  0  0  0  0  0
  -23.2525    1.1241   27.2484 C   0  0  0  0  0  0  0  0  0  0  0  0
  -21.3553    0.3067   28.5023 C   0  0  0  0  0  0  0  0  0  0  0  0
  -21.8606    1.0737   27.5018 C   0  0  0  0  0  0  0  0  0  0  0  0
  -23.7197    1.9844   26.1798 C   0  0  0  0  0  0  0  0  0  0  0  0
  -23.2902    3.1791   25.9497 C   0  0  0  0  0  0  0  0  0  0  0  0
  -24.6905    1.2710   25.3727 C   0  0  0  0  0  0  0  0  0  0  0  0
  -26.0013    0.9405   25.6984 C   0  0  0  0  0  0  0  0  0  0  0  0
  -26.7498    1.7589   26.4863 C   0  0  0  0  0  0  0  0  0  0  0  0
  -28.1806    1.6998   26.4603 C   0  0  0  0  0  0  0  0  0  0  0  0
  -28.9681    2.4903   27.3279 C   0  0  0  0  0  0  0  0  0  0  0  0
  -28.3068    3.4253   28.1695 C   0  0  0  0  0  0  0  0  0  0  0  0
  -26.9093    3.5497   28.1599 C   0  0  0  0  0  0  0  0  0  0  0  0
  -26.1926    2.7927   27.3694 C   0  0  0  0  0  0  0  0  0  0  0  0
  -26.5783   -0.1850   25.0499 C   0  0  0  0  0  0  0  0  0  0  0  0
  -26.2944    4.5619   29.0523 C   0  0  0  0  0  0  0  0  0  0  0  0
  -25.4894    5.3125   28.5468 O   0  0  0  0  0  0  0  0  0  0  0  0
  -26.5478    4.5661   30.3407 O   0  0  0  0  0  0  0  0  0  0  0  0
  -30.3981    2.3153   27.4381 C   0  0  0  0  0  0  0  0  0  0  0  0
  -31.1254    3.0354   26.7892 N   0  0  0  0  0  0  0  0  0  0  0  0
  -30.8762    1.3862   28.1692 O   0  0  0  0  0  0  0  0  0  0  0  0
  -30.8345    4.1439   25.9609 C   0  0  0  0  0  0  0  0  0  0  0  0
  -32.6562    2.8605   26.9228 C   0  0  0  0  0  0  0  0  0  0  0  0
  -24.0010   -2.1939   30.6190 C   0  0  0  0  0  0  0  0  0  0  0  0
  -33.3020    2.9869   25.8252 C   0  0  0  0  0  0  0  0  0  0  0  0
  2  7  1  0
  4  8  1  0
  8  9  1  0
 12 15  1  0
 15 16  2  0
 15 17  1  0
 17 18  1  0
 18 19  1  0
 18 25  1  0
 23 26  1  0
 26 27  2  0
 26 28  1  0
 21 29  1  0
 29 30  1  0
 29 31  2  0
 30 32  1  0
 30 33  1  0
  8 34  1  0
 33 35  1  0
  9 10  2  0
 10 13  1  0
 13 14  2  0
 14 12  1  0
 12 11  2  0
 11  9  1  0
  1  2  2  0
  2  5  1  0
  5  6  2  0
  6  4  1  0
  4  3  2  0
  3  1  1  0
 19 20  2  0
 20 21  1  0
 21 22  2  0
 22 23  1  0
 23 24  2  0
 24 19  1  0
M  END

$$$$
