No_297-gen_results/8p0m/2024-11-26-14-13-15/
     RDKit          3D

 31 36  0  0  0  0  0  0  0  0999 V2000
  -28.0162   -0.8135   28.8779 C   0  0  0  0  0  0  0  0  0  0  0  0
  -27.0636   -0.1190   28.6079 C   0  0  0  0  0  0  0  0  0  0  0  0
  -25.7647   -0.3897   29.0360 C   0  0  0  0  0  0  0  0  0  0  0  0
  -24.5516    0.4058   28.7646 C   0  0  0  0  0  0  0  0  0  0  0  0
  -23.2300    0.1178   29.2575 C   0  0  0  0  0  0  0  0  0  0  0  0
  -22.1393    0.9427   28.9224 C   0  0  0  0  0  0  0  0  0  0  0  0
  -29.3532   -0.3722   28.7487 C   0  0  0  0  0  0  0  0  0  0  0  0
  -29.5437    0.7689   27.9641 C   0  0  0  0  0  0  0  0  0  0  0  0
  -28.4686    1.4912   27.5169 C   0  0  0  0  0  0  0  0  0  0  0  0
  -27.1339    1.1511   27.8983 C   0  0  0  0  0  0  0  0  0  0  0  0
  -22.2718    1.9547   27.9273 C   0  0  0  0  0  0  0  0  0  0  0  0
  -23.5534    2.2227   27.4174 C   0  0  0  0  0  0  0  0  0  0  0  0
  -24.6398    1.4389   27.7611 C   0  0  0  0  0  0  0  0  0  0  0  0
  -26.0097    1.8696   27.4526 C   0  0  0  0  0  0  0  0  0  0  0  0
  -25.4558   -1.5055   29.7017 O   0  0  0  0  0  0  0  0  0  0  0  0
  -26.1367    3.0989   26.6476 C   0  0  0  0  0  0  0  0  0  0  0  0
  -30.9139    1.1927   27.6394 C   0  0  0  0  0  0  0  0  0  0  0  0
  -31.7995    1.2763   28.3643 N   0  0  0  0  0  0  0  0  0  0  0  0
  -33.0359    1.6027   28.2027 C   0  0  0  0  0  0  0  0  0  0  0  0
  -31.0869    1.5056   26.4286 O   0  0  0  0  0  0  0  0  0  0  0  0
  -33.9554    1.1103   28.9811 C   0  0  0  0  0  0  0  0  0  0  0  0
  -33.6122    0.5389   30.1691 C   0  0  0  0  0  0  0  0  0  0  0  0
  -32.3213    0.1837   30.4945 C   0  0  0  0  0  0  0  0  0  0  0  0
  -31.4629    0.4751   29.6411 C   0  0  0  0  0  0  0  0  0  0  0  0
  -30.4213   -0.6086   29.6130 N   0  0  0  0  0  0  0  0  0  0  0  0
  -35.3843    1.7161   28.8213 C   0  0  0  0  0  0  0  0  0  0  0  0
  -35.6029    2.9453   29.1023 C   0  0  0  0  0  0  0  0  0  0  0  0
  -36.9163    3.4906   28.8721 C   0  0  0  0  0  0  0  0  0  0  0  0
  -37.8821    2.5879   28.4094 C   0  0  0  0  0  0  0  0  0  0  0  0
  -36.3682    0.8693   28.3799 C   0  0  0  0  0  0  0  0  0  0  0  0
  -37.6214    1.3146   28.1618 C   0  0  0  0  0  0  0  0  0  0  0  0
  2  3  1  0
  3  4  1  0
 10 14  1  0
 13 14  1  0
  3 15  2  0
 14 16  1  0
  8 17  1  0
 17 18  1  0
 18 19  1  0
 17 20  2  0
 21 22  1  0
 18 24  1  0
 23 24  1  0
  7 25  1  0
 21 26  1  0
 19 21  1  0
 22 23  1  0
 25 24  1  0
  4  5  2  0
  5  6  1  0
  6 11  2  0
 11 12  1  0
 12 13  2  0
 13  4  1  0
  1  2  2  0
  2 10  1  0
 10  9  2  0
  9  8  1  0
  8  7  2  0
  7  1  1  0
 26 27  2  0
 27 28  1  0
 28 29  2  0
 29 31  1  0
 31 30  2  0
 30 26  1  0
M  END

$$$$
