No_2975-gen_results/8p0m/2024-11-26-14-13-15/
     RDKit          3D

 16 16  0  0  0  0  0  0  0  0999 V2000
  -28.0162   -0.8135   28.8779 C   0  0  0  0  0  0  0  0  0  0  0  0
  -28.4690   -0.7850   29.8287 C   0  0  0  0  0  0  0  0  0  0  0  0
  -26.5455   -0.8762   28.8500 C   0  0  0  0  0  0  0  0  0  0  0  0
  -25.8974   -0.8267   29.8894 C   0  0  0  0  0  0  0  0  0  0  0  0
  -27.9129   -0.8385   31.1942 C   0  0  0  0  0  0  0  0  0  0  0  0
  -26.5519   -0.8324   31.1775 C   0  0  0  0  0  0  0  0  0  0  0  0
  -30.0664   -0.7969   29.9410 C   0  0  0  0  0  0  0  0  0  0  0  0
  -30.6876   -1.6275   30.3111 O   0  0  0  0  0  0  0  0  0  0  0  0
  -30.6309    0.3448   29.3634 N   0  0  0  0  0  0  0  0  0  0  0  0
  -32.0431    0.4187   29.2388 C   0  0  0  0  0  0  0  0  0  0  0  0
  -29.8599    1.4822   28.8837 C   0  0  0  0  0  0  0  0  0  0  0  0
  -29.9668    1.7261   27.6427 C   0  0  0  0  0  0  0  0  0  0  0  0
  -29.7558    1.2627   26.7206 C   0  0  0  0  0  0  0  0  0  0  0  0
  -29.8405    1.6962   25.3103 C   0  0  0  0  0  0  0  0  0  0  0  0
  -30.2310    3.0352   25.1781 C   0  0  0  0  0  0  0  0  0  0  0  0
  -30.4884    3.7903   26.3144 C   0  0  0  0  0  0  0  0  0  0  0  0
  2  7  1  0
  7  8  2  0
  7  9  1  0
  9 10  1  0
  9 11  1  0
 11 12  2  3
 12 13  1  0
 13 14  1  0
 14 15  2  3
 15 16  1  0
  1  2  2  0
  2  5  1  0
  5  6  2  0
  6  4  1  0
  4  3  2  0
  3  1  1  0
M  END

$$$$
