No_2205-gen_results/8p0m/2024-11-26-14-13-15/
     RDKit          3D

 23 24  0  0  0  0  0  0  0  0999 V2000
  -28.0162   -0.8135   28.8779 C   0  0  0  0  0  0  0  0  0  0  0  0
  -27.0636   -0.1190   28.6079 C   0  0  0  0  0  0  0  0  0  0  0  0
  -25.7923   -0.4302   29.0761 C   0  0  0  0  0  0  0  0  0  0  0  0
  -24.5456    0.3494   28.8225 C   0  0  0  0  0  0  0  0  0  0  0  0
  -24.6586    1.4196   27.8878 C   0  0  0  0  0  0  0  0  0  0  0  0
  -25.9471    1.6811   27.3792 C   0  0  0  0  0  0  0  0  0  0  0  0
  -27.0439    0.9739   27.6871 C   0  0  0  0  0  0  0  0  0  0  0  0
  -29.1797   -0.1202   29.1288 N   0  0  0  0  0  0  0  0  0  0  0  0
  -30.2095   -0.7652   29.7428 C   0  0  0  0  0  0  0  0  0  0  0  0
  -23.4456    2.1545   27.6087 C   0  0  0  0  0  0  0  0  0  0  0  0
  -23.4715    3.1325   26.8088 N   0  0  0  0  0  0  0  0  0  0  0  0
  -22.2374    1.6285   27.7680 O   0  0  0  0  0  0  0  0  0  0  0  0
  -27.9318   -1.9566   29.3926 O   0  0  0  0  0  0  0  0  0  0  0  0
  -31.0699    0.0024   30.6062 C   0  0  0  0  0  0  0  0  0  0  0  0
  -30.6487    1.0021   31.0210 O   0  0  0  0  0  0  0  0  0  0  0  0
  -32.3234   -0.4767   30.8161 N   0  0  0  0  0  0  0  0  0  0  0  0
  -33.2638    0.3295   31.6492 C   0  0  0  0  0  0  0  0  0  0  0  0
  -34.3504   -0.0550   31.7265 C   0  0  0  0  0  0  0  0  0  0  0  0
  -35.2879    0.6277   32.6373 C   0  0  0  0  0  0  0  0  0  0  0  0
  -34.8388    1.7981   33.3171 C   0  0  0  0  0  0  0  0  0  0  0  0
  -33.5023    2.1584   33.1042 C   0  0  0  0  0  0  0  0  0  0  0  0
  -32.6841    1.4642   32.3458 C   0  0  0  0  0  0  0  0  0  0  0  0
  -30.4779   -1.9109   29.4399 O   0  0  0  0  0  0  0  0  0  0  0  0
  1  2  1  0
  1  8  1  0
  8  9  1  0
  5 10  1  0
 10 11  1  0
 10 12  2  0
  1 13  2  0
  9 14  1  0
 14 15  2  0
 14 16  1  0
 16 17  1  0
  9 23  2  0
 17 18  2  0
 18 19  1  0
 19 20  2  0
 20 21  1  0
 21 22  2  0
 22 17  1  0
  2  3  2  0
  3  4  1  0
  4  5  2  0
  5  6  1  0
  6  7  2  0
  7  2  1  0
M  END

$$$$
