No_2702-gen_results/8p0m/2024-11-26-14-13-15/
     RDKit          3D

 14 15  0  0  0  0  0  0  0  0999 V2000
  -28.1229   -1.3353   28.4874 O   0  0  0  0  0  0  0  0  0  0  0  0
  -27.4806   -0.4044   28.7094 C   0  0  0  0  0  0  0  0  0  0  0  0
  -27.1904    0.2460   29.5268 C   0  0  0  0  0  0  0  0  0  0  0  0
  -26.6021   -0.1576   27.5515 N   0  0  0  0  0  0  0  0  0  0  0  0
  -25.6421    0.9031   27.5822 C   0  0  0  0  0  0  0  0  0  0  0  0
  -25.5004    1.6142   28.7368 C   0  0  0  0  0  0  0  0  0  0  0  0
  -26.0185    1.3516   29.6201 C   0  0  0  0  0  0  0  0  0  0  0  0
  -24.9275    1.1075   26.4221 N   0  0  0  0  0  0  0  0  0  0  0  0
  -23.9378    2.1213   26.5635 C   0  0  0  0  0  0  0  0  0  0  0  0
  -23.6671    2.7901   27.6045 N   0  0  0  0  0  0  0  0  0  0  0  0
  -24.3557    2.6205   28.5967 C   0  0  0  0  0  0  0  0  0  0  0  0
  -27.9562    0.0388   30.9088 C   0  0  0  0  0  0  0  0  0  0  0  0
  -27.4675    0.3524   31.9733 C   0  0  0  0  0  0  0  0  0  0  0  0
  -26.4221    1.4059   32.0913 C   0  0  0  0  0  0  0  0  0  0  0  0
  1  2  2  0
  2  3  1  0
  2  4  1  0
  4  5  1  0
  3 12  1  0
 12 13  2  3
 13 14  1  0
  3  7  1  0
  7  6  1  0
  5  6  2  0
  6 11  1  0
 11 10  2  0
 10  9  1  0
  9  8  2  0
  8  5  1  0
M  END

$$$$
