No_2331-gen_results/8p0m/2024-11-26-14-13-15/
     RDKit          3D

 19 20  0  0  0  0  0  0  0  0999 V2000
  -28.0162   -0.8135   28.8779 C   0  0  0  0  0  0  0  0  0  0  0  0
  -28.4690   -0.7850   29.8287 C   0  0  0  0  0  0  0  0  0  0  0  0
  -27.1356    0.2359   28.5352 C   0  0  0  0  0  0  0  0  0  0  0  0
  -26.8745    1.2825   29.3982 C   0  0  0  0  0  0  0  0  0  0  0  0
  -27.5070    1.2380   30.6295 C   0  0  0  0  0  0  0  0  0  0  0  0
  -28.3293    0.1745   30.9350 C   0  0  0  0  0  0  0  0  0  0  0  0
  -26.4077    0.3070   27.2259 C   0  0  0  0  0  0  0  0  0  0  0  0
  -25.4085   -0.3655   27.2512 F   0  0  0  0  0  0  0  0  0  0  0  0
  -26.0182    1.5819   26.8795 F   0  0  0  0  0  0  0  0  0  0  0  0
  -27.2405   -0.0415   26.1784 F   0  0  0  0  0  0  0  0  0  0  0  0
  -29.3814   -2.0267   30.3338 C   0  0  0  0  0  0  0  0  0  0  0  0
  -28.9620   -2.9950   30.5006 O   0  0  0  0  0  0  0  0  0  0  0  0
  -30.7242   -1.6291   31.1474 Cl  0  0  0  0  0  0  0  0  0  0  0  0
  -27.2487    2.3268   31.6084 C   0  0  0  0  0  0  0  0  0  0  0  0
  -26.8484    3.4352   31.4727 C   0  0  0  0  0  0  0  0  0  0  0  0
  -26.4318    4.3399   32.4242 C   0  0  0  0  0  0  0  0  0  0  0  0
  -26.7166    3.9895   33.7811 C   0  0  0  0  0  0  0  0  0  0  0  0
  -27.2054    2.7520   34.0455 C   0  0  0  0  0  0  0  0  0  0  0  0
  -27.4669    1.8602   33.0319 C   0  0  0  0  0  0  0  0  0  0  0  0
  3  7  1  0
  7  8  1  0
  7  9  1  0
  7 10  1  0
  2 11  1  0
 11 12  1  0
 11 13  1  0
  5 14  1  0
 14 15  2  0
 15 16  1  0
 16 17  2  0
 17 18  1  0
 18 19  2  0
 19 14  1  0
  1  2  2  0
  2  6  1  0
  6  5  2  0
  5  4  1  0
  4  3  2  0
  3  1  1  0
M  END

$$$$
