No_2742-gen_results/8p0m/2024-11-26-14-13-15/
     RDKit          3D

 35 37  0  0  0  0  0  0  0  0999 V2000
  -28.1229   -1.3353   28.4874 O   0  0  0  0  0  0  0  0  0  0  0  0
  -28.5208   -0.4363   29.0779 C   0  0  0  0  0  0  0  0  0  0  0  0
  -27.9150    0.0780   30.0386 O   0  0  0  0  0  0  0  0  0  0  0  0
  -29.6198    0.3211   28.3438 C   0  0  0  0  0  0  0  0  0  0  0  0
  -30.6134    0.3502   28.4690 C   0  0  0  0  0  0  0  0  0  0  0  0
  -31.6095    1.0639   27.5837 C   0  0  0  0  0  0  0  0  0  0  0  0
  -31.0272    1.8426   26.5436 C   0  0  0  0  0  0  0  0  0  0  0  0
  -28.8755    1.1201   27.2178 C   0  0  0  0  0  0  0  0  0  0  0  0
  -29.6607    1.8503   26.3742 C   0  0  0  0  0  0  0  0  0  0  0  0
  -27.4179    1.1621   26.9720 C   0  0  0  0  0  0  0  0  0  0  0  0
  -26.6598    2.2809   27.3501 C   0  0  0  0  0  0  0  0  0  0  0  0
  -25.2842    2.3715   27.0771 C   0  0  0  0  0  0  0  0  0  0  0  0
  -24.5681    1.2922   26.4759 C   0  0  0  0  0  0  0  0  0  0  0  0
  -25.3284    0.1492   26.2440 C   0  0  0  0  0  0  0  0  0  0  0  0
  -26.6687    0.0990   26.4404 C   0  0  0  0  0  0  0  0  0  0  0  0
  -22.9270    1.4213   26.2812 Cl  0  0  0  0  0  0  0  0  0  0  0  0
  -33.0604    1.1003   27.8299 C   0  0  0  0  0  0  0  0  0  0  0  0
  -33.8418    0.7816   27.2175 N   0  0  0  0  0  0  0  0  0  0  0  0
  -33.6985    0.3352   26.0142 C   0  0  0  0  0  0  0  0  0  0  0  0
  -35.1428    0.3439   27.8043 C   0  0  0  0  0  0  0  0  0  0  0  0
  -33.1673    1.6128   29.1411 O   0  0  0  0  0  0  0  0  0  0  0  0
  -27.7630   -0.6179   31.2033 C   0  0  0  0  0  0  0  0  0  0  0  0
  -27.5560    0.1310   32.2246 C   0  0  0  0  0  0  0  0  0  0  0  0
  -26.3910    0.9132   32.2798 C   0  0  0  0  0  0  0  0  0  0  0  0
  -26.2244    1.9836   33.2348 C   0  0  0  0  0  0  0  0  0  0  0  0
  -25.2039    2.9771   33.0472 C   0  0  0  0  0  0  0  0  0  0  0  0
  -24.3890    2.9164   31.8295 C   0  0  0  0  0  0  0  0  0  0  0  0
  -24.5834    1.8623   30.9624 C   0  0  0  0  0  0  0  0  0  0  0  0
  -25.6023    0.9470   31.1238 C   0  0  0  0  0  0  0  0  0  0  0  0
  -23.6487    1.8349   29.8128 C   0  0  0  0  0  0  0  0  0  0  0  0
  -22.9752    0.6136   29.6406 N   0  0  0  0  0  0  0  0  0  0  0  0
  -21.7711    0.5397   29.1651 C   0  0  0  0  0  0  0  0  0  0  0  0
  -21.2529   -0.8020   28.9728 C   0  0  0  0  0  0  0  0  0  0  0  0
  -23.2247   -0.5506   30.3991 C   0  0  0  0  0  0  0  0  0  0  0  0
  -23.1311   -1.5104   29.9721 C   0  0  0  0  0  0  0  0  0  0  0  0
  1  2  2  0
  2  3  1  0
  2  4  1  0
  8 10  1  0
 13 16  1  0
  6 17  1  0
 17 18  1  0
 18 19  1  0
 18 20  1  0
 17 21  2  0
  3 22  1  0
 22 23  2  3
 23 24  1  0
 28 30  1  0
 30 31  1  0
 31 32  1  0
 32 33  2  0
 31 34  1  0
 34 35  2  0
  4  5  2  0
  5  6  1  0
  6  7  2  0
  7  9  1  0
  9  8  2  0
  8  4  1  0
 24 25  2  0
 25 26  1  0
 26 27  2  0
 27 28  1  0
 28 29  2  0
 29 24  1  0
 10 11  2  0
 11 12  1  0
 12 13  2  0
 13 14  1  0
 14 15  2  0
 15 10  1  0
M  END

$$$$
