No_2220-gen_results/8p0m/2024-11-26-14-13-15/
     RDKit          3D

 13 13  0  0  0  0  0  0  0  0999 V2000
  -28.0162   -0.8135   28.8779 C   0  0  0  0  0  0  0  0  0  0  0  0
  -27.0636   -0.1189   28.6079 C   0  0  0  0  0  0  0  0  0  0  0  0
  -25.7923   -0.4302   29.0761 C   0  0  0  0  0  0  0  0  0  0  0  0
  -25.5756   -1.5654   29.9363 C   0  0  0  0  0  0  0  0  0  0  0  0
  -26.7354   -2.3004   30.2173 C   0  0  0  0  0  0  0  0  0  0  0  0
  -27.9184   -1.9537   29.7629 C   0  0  0  0  0  0  0  0  0  0  0  0
  -26.8648    1.0550   27.7928 N   0  0  0  0  0  0  0  0  0  0  0  0
  -27.6916    1.5642   27.1523 C   0  0  0  0  0  0  0  0  0  0  0  0
  -28.8670    1.2509   27.1496 C   0  0  0  0  0  0  0  0  0  0  0  0
  -29.8528    1.9318   26.2413 C   0  0  0  0  0  0  0  0  0  0  0  0
  -31.1868    1.5890   26.1731 C   0  0  0  0  0  0  0  0  0  0  0  0
  -31.6036    0.5458   26.9759 C   0  0  0  0  0  0  0  0  0  0  0  0
  -30.7571   -0.1178   27.8135 C   0  0  0  0  0  0  0  0  0  0  0  0
  2  7  1  0
  7  8  1  0
  8  9  2  3
  9 10  1  0
 10 11  2  3
 11 12  1  0
 12 13  2  0
  1  2  2  0
  2  3  1  0
  3  4  2  0
  4  5  1  0
  5  6  2  0
  6  1  1  0
M  END

$$$$
