No_2587-gen_results/8p0m/2024-11-26-14-13-15/
     RDKit          3D

 10 10  0  0  0  0  0  0  0  0999 V2000
  -28.0727   -1.2542   28.5316 F   0  0  0  0  0  0  0  0  0  0  0  0
  -27.3591   -0.3792   28.7224 C   0  0  0  0  0  0  0  0  0  0  0  0
  -27.7576    0.4972   29.4008 F   0  0  0  0  0  0  0  0  0  0  0  0
  -26.9445    0.0888   27.4769 F   0  0  0  0  0  0  0  0  0  0  0  0
  -26.0342   -0.9918   29.3036 C   0  0  0  0  0  0  0  0  0  0  0  0
  -25.7650   -2.2558   29.4550 C   0  0  0  0  0  0  0  0  0  0  0  0
  -24.5057   -2.7411   29.7939 C   0  0  0  0  0  0  0  0  0  0  0  0
  -23.5035   -1.7846   30.0432 C   0  0  0  0  0  0  0  0  0  0  0  0
  -23.7292   -0.4170   29.8548 C   0  0  0  0  0  0  0  0  0  0  0  0
  -24.9751    0.0016   29.4461 C   0  0  0  0  0  0  0  0  0  0  0  0
  1  2  1  0
  2  3  1  0
  2  4  1  0
  2  5  1  0
  5  6  2  0
  6  7  1  0
  7  8  2  0
  8  9  1  0
  9 10  2  0
 10  5  1  0
M  END

$$$$
