No_206-gen_results/8p0m/2024-11-26-14-13-15/
     RDKit          3D

 10 10  0  0  0  0  0  0  0  0999 V2000
  -28.0162   -0.8135   28.8779 C   0  0  0  0  0  0  0  0  0  0  0  0
  -28.4690   -0.7850   29.8287 C   0  0  0  0  0  0  0  0  0  0  0  0
  -27.1356    0.2359   28.5352 C   0  0  0  0  0  0  0  0  0  0  0  0
  -26.8745    1.2825   29.3982 C   0  0  0  0  0  0  0  0  0  0  0  0
  -27.5070    1.2380   30.6295 C   0  0  0  0  0  0  0  0  0  0  0  0
  -28.3269    0.1637   30.9240 C   0  0  0  0  0  0  0  0  0  0  0  0
  -26.4007    0.2985   27.2217 C   0  0  0  0  0  0  0  0  0  0  0  0
  -25.7868   -0.5534   27.0575 F   0  0  0  0  0  0  0  0  0  0  0  0
  -25.5437    1.3988   27.1141 F   0  0  0  0  0  0  0  0  0  0  0  0
  -27.3308    0.5212   26.1859 F   0  0  0  0  0  0  0  0  0  0  0  0
  3  7  1  0
  7  8  1  0
  7  9  1  0
  7 10  1  0
  1  2  2  0
  2  6  1  0
  6  5  2  0
  5  4  1  0
  4  3  2  0
  3  1  1  0
M  END

$$$$
