No_2795-gen_results/8p0m/2024-11-26-14-13-15/
     RDKit          3D

 19 20  0  0  0  0  0  0  0  0999 V2000
  -28.0162   -0.8135   28.8779 C   0  0  0  0  0  0  0  0  0  0  0  0
  -28.4690   -0.7850   29.8287 C   0  0  0  0  0  0  0  0  0  0  0  0
  -27.0871    0.2903   28.6377 C   0  0  0  0  0  0  0  0  0  0  0  0
  -26.8317    1.2487   29.5869 C   0  0  0  0  0  0  0  0  0  0  0  0
  -28.3914    0.0801   31.0065 C   0  0  0  0  0  0  0  0  0  0  0  0
  -27.4940    1.1521   30.7841 C   0  0  0  0  0  0  0  0  0  0  0  0
  -26.3109    0.3918   27.3640 C   0  0  0  0  0  0  0  0  0  0  0  0
  -24.9687    0.2477   27.4806 C   0  0  0  0  0  0  0  0  0  0  0  0
  -26.9237    0.5760   26.1378 C   0  0  0  0  0  0  0  0  0  0  0  0
  -26.2090    0.4232   24.9761 C   0  0  0  0  0  0  0  0  0  0  0  0
  -24.2782    0.0093   28.7301 C   0  0  0  0  0  0  0  0  0  0  0  0
  -23.3140    0.7624   29.1416 C   0  0  0  0  0  0  0  0  0  0  0  0
  -22.5403    0.3057   30.1857 N   0  0  0  0  0  0  0  0  0  0  0  0
  -24.1057   -1.2658   29.3678 C   0  0  0  0  0  0  0  0  0  0  0  0
  -23.4459   -1.6701   30.3001 C   0  0  0  0  0  0  0  0  0  0  0  0
  -22.5426   -0.7217   30.8351 C   0  0  0  0  0  0  0  0  0  0  0  0
  -28.3006    0.8740   26.0005 C   0  0  0  0  0  0  0  0  0  0  0  0
  -28.9671    1.7740   26.6971 C   0  0  0  0  0  0  0  0  0  0  0  0
  -30.3278    2.0341   26.5192 C   0  0  0  0  0  0  0  0  0  0  0  0
  3  7  1  0
  7  8  1  0
  7  9  1  0
  9 10  1  0
  8 11  1  0
  9 17  1  0
 17 18  2  3
 18 19  1  0
  1  2  2  0
  2  5  1  0
  5  6  2  0
  6  4  1  0
  4  3  2  0
  3  1  1  0
 11 12  2  0
 12 13  1  0
 13 16  2  0
 16 15  1  0
 15 14  2  0
 14 11  1  0
M  END

$$$$
