No_2341-gen_results/8p0m/2024-11-26-14-13-15/
     RDKit          3D

 35 37  0  0  0  0  0  0  0  0999 V2000
  -28.0162   -0.8135   28.8779 C   0  0  0  0  0  0  0  0  0  0  0  0
  -27.0636   -0.1190   28.6079 C   0  0  0  0  0  0  0  0  0  0  0  0
  -25.7923   -0.4302   29.0761 C   0  0  0  0  0  0  0  0  0  0  0  0
  -25.5756   -1.5654   29.9363 C   0  0  0  0  0  0  0  0  0  0  0  0
  -26.7354   -2.3004   30.2173 C   0  0  0  0  0  0  0  0  0  0  0  0
  -27.9184   -1.9537   29.7629 C   0  0  0  0  0  0  0  0  0  0  0  0
  -29.0001   -2.7012   30.1151 O   0  0  0  0  0  0  0  0  0  0  0  0
  -24.6739    0.5156   28.7788 C   0  0  0  0  0  0  0  0  0  0  0  0
  -24.4980    1.0802   27.6263 C   0  0  0  0  0  0  0  0  0  0  0  0
  -23.3118    1.8848   27.3777 C   0  0  0  0  0  0  0  0  0  0  0  0
  -22.1973    1.8036   28.1462 C   0  0  0  0  0  0  0  0  0  0  0  0
  -23.4569    0.4002   29.5942 C   0  0  0  0  0  0  0  0  0  0  0  0
  -22.2553    1.0394   29.2691 C   0  0  0  0  0  0  0  0  0  0  0  0
  -29.3577   -2.8206   31.4421 C   0  0  0  0  0  0  0  0  0  0  0  0
  -29.7791   -4.1325   31.7426 C   0  0  0  0  0  0  0  0  0  0  0  0
  -31.0012   -4.3580   31.6090 O   0  0  0  0  0  0  0  0  0  0  0  0
  -31.4759   -5.4327   31.1231 C   0  0  0  0  0  0  0  0  0  0  0  0
  -29.0231   -5.1249   31.9964 O   0  0  0  0  0  0  0  0  0  0  0  0
  -31.3539   -5.8018   29.9239 C   0  0  0  0  0  0  0  0  0  0  0  0
  -31.2855   -6.9464   29.5008 O   0  0  0  0  0  0  0  0  0  0  0  0
  -31.4318   -4.8690   28.8996 O   0  0  0  0  0  0  0  0  0  0  0  0
  -29.2809   -0.5332   28.4592 O   0  0  0  0  0  0  0  0  0  0  0  0
  -29.5349    0.3606   27.5318 C   0  0  0  0  0  0  0  0  0  0  0  0
  -30.2785    1.3582   28.0315 C   0  0  0  0  0  0  0  0  0  0  0  0
  -30.8680    1.2835   29.0790 O   0  0  0  0  0  0  0  0  0  0  0  0
  -29.4852    2.7231   28.1062 C   0  0  0  0  0  0  0  0  0  0  0  0
  -29.1767    0.1116   26.3928 O   0  0  0  0  0  0  0  0  0  0  0  0
  -29.1573    3.4488   26.9702 C   0  0  0  0  0  0  0  0  0  0  0  0
  -27.9997    4.0206   26.9344 C   0  0  0  0  0  0  0  0  0  0  0  0
  -27.1481    4.2689   28.0852 C   0  0  0  0  0  0  0  0  0  0  0  0
  -27.5300    3.5102   29.2472 C   0  0  0  0  0  0  0  0  0  0  0  0
  -28.6253    2.7203   29.2319 C   0  0  0  0  0  0  0  0  0  0  0  0
  -26.6063    3.6615   30.4151 C   0  0  0  0  0  0  0  0  0  0  0  0
  -26.4671    2.7141   31.2091 N   0  0  0  0  0  0  0  0  0  0  0  0
  -27.0225    1.7742   31.6109 C   0  0  0  0  0  0  0  0  0  0  0  0
  6  7  1  0
  3  8  1  0
  7 14  1  0
 14 15  1  0
 15 16  1  0
 16 17  1  0
 15 18  2  0
 17 19  1  0
 19 20  2  0
 19 21  1  0
  1 22  1  0
 22 23  1  0
 23 24  1  0
 24 25  1  0
 24 26  1  0
 23 27  2  0
 31 33  1  0
 33 34  1  0
 34 35  1  0
 26 28  2  0
 28 29  1  0
 29 30  2  0
 30 31  1  0
 31 32  2  0
 32 26  1  0
  1  2  2  0
  2  3  1  0
  3  4  2  0
  4  5  1  0
  5  6  2  0
  6  1  1  0
  8  9  2  0
  9 10  1  0
 10 11  2  0
 11 13  1  0
 13 12  2  0
 12  8  1  0
M  END

$$$$
