No_2417-gen_results/8p0m/2024-11-26-14-13-15/
     RDKit          3D

 23 25  0  0  0  0  0  0  0  0999 V2000
  -28.0162   -0.8135   28.8779 C   0  0  0  0  0  0  0  0  0  0  0  0
  -28.4690   -0.7850   29.8287 C   0  0  0  0  0  0  0  0  0  0  0  0
  -26.5042   -0.7777   28.8766 C   0  0  0  0  0  0  0  0  0  0  0  0
  -25.6540   -0.6597   27.7191 C   0  0  0  0  0  0  0  0  0  0  0  0
  -27.9180   -0.9374   31.1824 C   0  0  0  0  0  0  0  0  0  0  0  0
  -26.5423   -0.9399   31.2606 C   0  0  0  0  0  0  0  0  0  0  0  0
  -25.7832   -0.8935   30.1201 C   0  0  0  0  0  0  0  0  0  0  0  0
  -25.2204    0.6866   27.3939 C   0  0  0  0  0  0  0  0  0  0  0  0
  -25.3029    1.0787   26.0731 C   0  0  0  0  0  0  0  0  0  0  0  0
  -24.7297    2.3383   25.6867 C   0  0  0  0  0  0  0  0  0  0  0  0
  -24.0128    2.9911   26.6964 C   0  0  0  0  0  0  0  0  0  0  0  0
  -24.3778    1.5707   28.1616 C   0  0  0  0  0  0  0  0  0  0  0  0
  -23.7611    2.5357   27.7782 C   0  0  0  0  0  0  0  0  0  0  0  0
  -29.9071   -0.8142   29.8324 F   0  0  0  0  0  0  0  0  0  0  0  0
  -26.0551    0.5710   24.9619 C   0  0  0  0  0  0  0  0  0  0  0  0
  -27.4799    0.4423   25.0713 C   0  0  0  0  0  0  0  0  0  0  0  0
  -28.1500    1.2098   26.0059 C   0  0  0  0  0  0  0  0  0  0  0  0
  -29.5677    1.2024   26.0916 C   0  0  0  0  0  0  0  0  0  0  0  0
  -30.2822    1.9644   27.0514 C   0  0  0  0  0  0  0  0  0  0  0  0
  -29.5394    2.7399   27.9661 C   0  0  0  0  0  0  0  0  0  0  0  0
  -28.1178    2.8035   27.8665 C   0  0  0  0  0  0  0  0  0  0  0  0
  -27.4815    2.1062   26.9429 C   0  0  0  0  0  0  0  0  0  0  0  0
  -28.1109   -0.3136   24.2913 F   0  0  0  0  0  0  0  0  0  0  0  0
  3  4  1  0
  4  8  1  0
  2 14  1  0
  9 15  1  0
 15 16  1  0
 16 23  1  0
 16 17  1  0
 17 18  2  0
 18 19  1  0
 19 20  2  0
 20 21  1  0
 21 22  2  0
 22 17  1  0
  1  2  2  0
  2  5  1  0
  5  6  2  0
  6  7  1  0
  7  3  2  0
  3  1  1  0
  8  9  1  0
  9 10  2  0
 10 11  1  0
 11 13  2  0
 13 12  1  0
 12  8  2  0
M  END

$$$$
