No_2791-gen_results/8p0m/2024-11-26-14-13-15/
     RDKit          3D

 17 17  0  0  0  0  0  0  0  0999 V2000
  -27.9505   -0.5786   29.0402 P   0  0  0  0  0  0  0  0  0  0  0  0
  -27.2401    0.0613   28.4283 O   0  0  0  0  0  0  0  0  0  0  0  0
  -27.2444   -1.9817   29.3768 O   0  0  0  0  0  0  0  0  0  0  0  0
  -29.4009   -0.6869   29.0518 O   0  0  0  0  0  0  0  0  0  0  0  0
  -27.6460   -0.3725   30.6586 O   0  0  0  0  0  0  0  0  0  0  0  0
  -27.4820   -2.9127   30.3053 C   0  0  0  0  0  0  0  0  0  0  0  0
  -25.9977    0.0992   28.4674 F   0  0  0  0  0  0  0  0  0  0  0  0
  -26.6081    0.2541   31.0678 C   0  0  0  0  0  0  0  0  0  0  0  0
  -26.1745    0.0322   32.4531 C   0  0  0  0  0  0  0  0  0  0  0  0
  -26.9324    0.6123   33.3312 C   0  0  0  0  0  0  0  0  0  0  0  0
  -26.8524    1.9640   33.4599 C   0  0  0  0  0  0  0  0  0  0  0  0
  -27.4948    2.5847   34.4052 C   0  0  0  0  0  0  0  0  0  0  0  0
  -28.1094    1.9504   35.3436 C   0  0  0  0  0  0  0  0  0  0  0  0
  -28.1337    0.5668   35.4009 C   0  0  0  0  0  0  0  0  0  0  0  0
  -27.4997   -0.1145   34.4124 C   0  0  0  0  0  0  0  0  0  0  0  0
  -27.1864   -4.3365   29.8313 C   0  0  0  0  0  0  0  0  0  0  0  0
  -26.2909   -4.5788   29.0808 O   0  0  0  0  0  0  0  0  0  0  0  0
  1  2  1  0
  1  3  1  0
  1  4  2  0
  1  5  1  0
  3  6  1  0
  2  7  1  0
  5  8  1  0
  8  9  1  0
  9 10  1  0
  6 16  2  0
 16 17  2  0
 10 11  2  0
 11 12  1  0
 12 13  2  0
 13 14  1  0
 14 15  2  0
 15 10  1  0
M  END

$$$$
