No_2875-gen_results/8p0m/2024-11-26-14-13-15/
     RDKit          3D

 15 16  0  0  0  0  0  0  0  0999 V2000
  -28.0162   -0.8135   28.8779 C   0  0  0  0  0  0  0  0  0  0  0  0
  -28.4690   -0.7850   29.8287 C   0  0  0  0  0  0  0  0  0  0  0  0
  -26.5455   -0.8762   28.8500 C   0  0  0  0  0  0  0  0  0  0  0  0
  -25.8041   -1.0324   30.0571 C   0  0  0  0  0  0  0  0  0  0  0  0
  -27.9437   -0.9869   31.2075 C   0  0  0  0  0  0  0  0  0  0  0  0
  -26.5825   -1.0386   31.2231 C   0  0  0  0  0  0  0  0  0  0  0  0
  -30.0606   -0.7371   29.9024 C   0  0  0  0  0  0  0  0  0  0  0  0
  -30.6056   -0.0348   29.0093 N   0  0  0  0  0  0  0  0  0  0  0  0
  -31.7125   -0.3118   28.3887 C   0  0  0  0  0  0  0  0  0  0  0  0
  -32.4860   -1.2855   28.7558 C   0  0  0  0  0  0  0  0  0  0  0  0
  -30.6394   -1.5004   30.6877 O   0  0  0  0  0  0  0  0  0  0  0  0
  -32.0123    0.5091   27.2237 C   0  0  0  0  0  0  0  0  0  0  0  0
  -33.6887   -1.6309   27.9985 C   0  0  0  0  0  0  0  0  0  0  0  0
  -33.2087    0.1910   26.5134 C   0  0  0  0  0  0  0  0  0  0  0  0
  -34.0081   -0.8508   26.9217 C   0  0  0  0  0  0  0  0  0  0  0  0
  2  7  1  0
  7  8  1  0
  8  9  1  0
  7 11  2  0
  9 10  2  0
 10 13  1  0
 13 15  2  0
 15 14  1  0
 14 12  2  0
 12  9  1  0
  1  2  2  0
  2  5  1  0
  5  6  2  0
  6  4  1  0
  4  3  2  0
  3  1  1  0
M  END

$$$$
