No_2787-gen_results/8p0m/2024-11-26-14-13-15/
     RDKit          3D

 23 23  0  0  0  0  0  0  0  0999 V2000
  -28.0162   -0.8135   28.8779 C   0  0  0  0  0  0  0  0  0  0  0  0
  -27.0636   -0.1189   28.6079 C   0  0  0  0  0  0  0  0  0  0  0  0
  -25.7647   -0.3897   29.0360 C   0  0  0  0  0  0  0  0  0  0  0  0
  -25.5296   -1.5302   29.9014 C   0  0  0  0  0  0  0  0  0  0  0  0
  -26.6577   -2.2915   30.2035 C   0  0  0  0  0  0  0  0  0  0  0  0
  -27.8548   -1.9555   29.7630 C   0  0  0  0  0  0  0  0  0  0  0  0
  -24.5349    0.4128   28.7431 C   0  0  0  0  0  0  0  0  0  0  0  0
  -23.5191   -0.2792   28.7198 F   0  0  0  0  0  0  0  0  0  0  0  0
  -24.3158    1.3150   29.7111 F   0  0  0  0  0  0  0  0  0  0  0  0
  -24.6728    1.1273   27.6259 F   0  0  0  0  0  0  0  0  0  0  0  0
  -28.9363   -2.7045   30.1450 O   0  0  0  0  0  0  0  0  0  0  0  0
  -30.0326   -2.2361   30.5776 C   0  0  0  0  0  0  0  0  0  0  0  0
  -30.5219   -2.8952   31.6900 C   0  0  0  0  0  0  0  0  0  0  0  0
  -29.8724   -3.5978   32.3477 O   0  0  0  0  0  0  0  0  0  0  0  0
  -31.8545   -2.7097   32.0583 N   0  0  0  0  0  0  0  0  0  0  0  0
  -32.4736   -3.3624   33.2088 C   0  0  0  0  0  0  0  0  0  0  0  0
  -32.7151   -1.7681   31.3490 C   0  0  0  0  0  0  0  0  0  0  0  0
  -33.6885   -2.2455   30.8005 C   0  0  0  0  0  0  0  0  0  0  0  0
  -33.7229   -2.6842   29.6040 C   0  0  0  0  0  0  0  0  0  0  0  0
  -34.8388   -3.2831   28.9064 C   0  0  0  0  0  0  0  0  0  0  0  0
  -35.9842   -3.3191   29.5677 C   0  0  0  0  0  0  0  0  0  0  0  0
  -36.0623   -2.8239   30.8578 C   0  0  0  0  0  0  0  0  0  0  0  0
  -34.9692   -2.2702   31.5039 C   0  0  0  0  0  0  0  0  0  0  0  0
  3  7  1  0
  7  8  1  0
  7  9  1  0
  7 10  1  0
  6 11  1  0
 11 12  1  0
 12 13  1  0
 13 14  2  0
 13 15  1  0
 15 16  1  0
 15 17  1  0
 17 18  2  3
 18 19  1  0
 19 20  1  0
 20 21  2  3
 21 22  1  0
 22 23  1  0
  1  2  2  0
  2  3  1  0
  3  4  2  0
  4  5  1  0
  5  6  2  0
  6  1  1  0
M  END

$$$$
