No_225-gen_results/8p0m/2024-11-26-14-13-15/
     RDKit          3D

 35 37  0  0  0  0  0  0  0  0999 V2000
  -28.0162   -0.8135   28.8779 C   0  0  0  0  0  0  0  0  0  0  0  0
  -27.0636   -0.1189   28.6079 C   0  0  0  0  0  0  0  0  0  0  0  0
  -25.7647   -0.3897   29.0360 C   0  0  0  0  0  0  0  0  0  0  0  0
  -25.5296   -1.5302   29.9014 C   0  0  0  0  0  0  0  0  0  0  0  0
  -26.6888   -2.2893   30.1810 C   0  0  0  0  0  0  0  0  0  0  0  0
  -27.8727   -1.9508   29.7373 C   0  0  0  0  0  0  0  0  0  0  0  0
  -29.0016   -2.8142   30.1793 C   0  0  0  0  0  0  0  0  0  0  0  0
  -28.8271   -4.0755   30.4770 N   0  0  0  0  0  0  0  0  0  0  0  0
  -30.2126   -2.3195   30.2766 N   0  0  0  0  0  0  0  0  0  0  0  0
  -31.2181   -3.1377   30.6365 C   0  0  0  0  0  0  0  0  0  0  0  0
  -29.7645   -4.9384   30.8310 C   0  0  0  0  0  0  0  0  0  0  0  0
  -31.0316   -4.4727   30.9244 C   0  0  0  0  0  0  0  0  0  0  0  0
  -32.1671   -5.3181   31.3294 C   0  0  0  0  0  0  0  0  0  0  0  0
  -33.2632   -5.0184   31.4595 F   0  0  0  0  0  0  0  0  0  0  0  0
  -32.1386   -6.4639   30.4419 F   0  0  0  0  0  0  0  0  0  0  0  0
  -31.8094   -5.9842   32.5231 F   0  0  0  0  0  0  0  0  0  0  0  0
  -24.5434    0.4113   28.6739 C   0  0  0  0  0  0  0  0  0  0  0  0
  -24.5895    1.2580   27.6061 C   0  0  0  0  0  0  0  0  0  0  0  0
  -23.6506    1.9358   27.2526 C   0  0  0  0  0  0  0  0  0  0  0  0
  -22.3306    1.8365   27.8278 C   0  0  0  0  0  0  0  0  0  0  0  0
  -23.2014    0.2242   29.1606 C   0  0  0  0  0  0  0  0  0  0  0  0
  -22.1269    0.9157   28.7681 C   0  0  0  0  0  0  0  0  0  0  0  0
  -23.7667    3.1687   25.9532 Cl  0  0  0  0  0  0  0  0  0  0  0  0
  -32.3714   -2.6281   30.7081 O   0  0  0  0  0  0  0  0  0  0  0  0
  -23.0283   -0.6725   30.2209 O   0  0  0  0  0  0  0  0  0  0  0  0
  -22.8290   -0.3428   31.5136 C   0  0  0  0  0  0  0  0  0  0  0  0
  -23.0162   -1.4556   32.4162 C   0  0  0  0  0  0  0  0  0  0  0  0
  -24.3415   -1.5006   32.8439 O   0  0  0  0  0  0  0  0  0  0  0  0
  -24.7123   -0.5255   33.7619 C   0  0  0  0  0  0  0  0  0  0  0  0
  -25.7356    0.3207   33.3941 C   0  0  0  0  0  0  0  0  0  0  0  0
  -26.8497   -0.0684   33.2398 O   0  0  0  0  0  0  0  0  0  0  0  0
  -25.5821    1.6148   33.4305 O   0  0  0  0  0  0  0  0  0  0  0  0
  -26.0507    2.4659   32.3801 C   0  0  0  0  0  0  0  0  0  0  0  0
  -25.0257    3.1863   31.7530 C   0  0  0  0  0  0  0  0  0  0  0  0
  -24.8758    4.5066   32.2386 C   0  0  0  0  0  0  0  0  0  0  0  0
  6  7  1  0
  7  8  1  0
  9 10  1  0
 10 12  1  0
 11 12  1  0
 12 13  1  0
 13 14  1  0
 13 15  1  0
 13 16  1  0
  3 17  1  0
 19 23  1  0
 10 24  2  0
 21 25  1  0
 25 26  1  0
 26 27  1  0
 27 28  1  0
 28 29  1  0
 29 30  1  0
 30 31  2  0
 30 32  1  0
 32 33  1  0
 33 34  1  0
 34 35  1  0
  9  7  1  0
  8 11  1  0
  1  2  2  0
  2  3  1  0
  3  4  2  0
  4  5  1  0
  5  6  2  0
  6  1  1  0
 17 18  2  0
 18 19  1  0
 19 20  2  0
 20 22  1  0
 22 21  2  0
 21 17  1  0
M  END

$$$$
