No_2478-gen_results/8p0m/2024-11-26-14-13-15/
     RDKit          3D

 26 27  0  0  0  0  0  0  0  0999 V2000
  -28.0162   -0.8135   28.8779 C   0  0  0  0  0  0  0  0  0  0  0  0
  -27.0636   -0.1189   28.6079 C   0  0  0  0  0  0  0  0  0  0  0  0
  -27.0010    0.6913   27.4910 C   0  0  0  0  0  0  0  0  0  0  0  0
  -28.1373    0.7363   26.6350 C   0  0  0  0  0  0  0  0  0  0  0  0
  -29.2360    0.0765   27.0690 C   0  0  0  0  0  0  0  0  0  0  0  0
  -29.2177   -0.6429   28.1747 C   0  0  0  0  0  0  0  0  0  0  0  0
  -27.7867   -1.6669   30.1199 C   0  0  0  0  0  0  0  0  0  0  0  0
  -28.7145   -2.0772   30.7562 N   0  0  0  0  0  0  0  0  0  0  0  0
  -26.6172   -1.8743   30.5618 O   0  0  0  0  0  0  0  0  0  0  0  0
  -28.6095   -3.1409   31.8283 C   0  0  0  0  0  0  0  0  0  0  0  0
  -30.4480    0.1660   26.2310 C   0  0  0  0  0  0  0  0  0  0  0  0
  -30.4959    0.1973   25.0308 O   0  0  0  0  0  0  0  0  0  0  0  0
  -31.6592    0.0033   26.8749 N   0  0  0  0  0  0  0  0  0  0  0  0
  -32.9024   -0.0345   26.1889 C   0  0  0  0  0  0  0  0  0  0  0  0
  -29.3154   -4.3064   31.2202 C   0  0  0  0  0  0  0  0  0  0  0  0
  -29.3346   -5.2543   31.9682 O   0  0  0  0  0  0  0  0  0  0  0  0
  -29.2379   -4.5134   29.9247 O   0  0  0  0  0  0  0  0  0  0  0  0
  -25.7291    1.3562   26.9970 C   0  0  0  0  0  0  0  0  0  0  0  0
  -24.6297    0.9626   27.6742 C   0  0  0  0  0  0  0  0  0  0  0  0
  -23.9296    1.7984   28.5903 C   0  0  0  0  0  0  0  0  0  0  0  0
  -22.6946    1.3858   29.1813 C   0  0  0  0  0  0  0  0  0  0  0  0
  -22.2025    0.0705   28.9406 C   0  0  0  0  0  0  0  0  0  0  0  0
  -23.0325   -0.7970   28.2223 C   0  0  0  0  0  0  0  0  0  0  0  0
  -24.1532   -0.3575   27.6468 C   0  0  0  0  0  0  0  0  0  0  0  0
  -25.5613    1.3558   25.4972 C   0  0  0  0  0  0  0  0  0  0  0  0
  -26.0458    2.9557   27.4087 C   0  0  0  0  0  0  0  0  0  0  0  0
  1  7  1  0
  7  8  1  0
  7  9  2  0
  8 10  1  0
  5 11  1  0
 11 12  2  0
 11 13  1  0
 13 14  1  0
 10 15  1  0
 15 16  1  0
 15 17  2  0
  3 18  1  0
 18 19  1  0
 18 25  1  0
 18 26  1  0
  1  2  2  0
  2  3  1  0
  3  4  2  0
  4  5  1  0
  5  6  2  0
  6  1  1  0
 19 20  2  0
 20 21  1  0
 21 22  2  0
 22 23  1  0
 23 24  2  0
 24 19  1  0
M  END

$$$$
