No_2346-gen_results/8p0m/2024-11-26-14-13-15/
     RDKit          3D

 14 15  0  0  0  0  0  0  0  0999 V2000
  -28.0162   -0.8135   28.8779 C   0  0  0  0  0  0  0  0  0  0  0  0
  -28.4690   -0.7850   29.8287 C   0  0  0  0  0  0  0  0  0  0  0  0
  -26.5455   -0.8762   28.8500 C   0  0  0  0  0  0  0  0  0  0  0  0
  -25.8041   -1.0324   30.0571 C   0  0  0  0  0  0  0  0  0  0  0  0
  -27.9437   -0.9869   31.2075 C   0  0  0  0  0  0  0  0  0  0  0  0
  -26.5825   -1.0386   31.2231 C   0  0  0  0  0  0  0  0  0  0  0  0
  -29.9648   -0.7353   29.8902 N   0  0  0  0  0  0  0  0  0  0  0  0
  -30.5344   -0.0309   29.0060 C   0  0  0  0  0  0  0  0  0  0  0  0
  -29.9774    0.1672   27.9241 C   0  0  0  0  0  0  0  0  0  0  0  0
  -30.4973    0.7836   26.7245 C   0  0  0  0  0  0  0  0  0  0  0  0
  -28.5313   -0.2312   27.7128 C   0  0  0  0  0  0  0  0  0  0  0  0
  -30.2145    0.5934   25.5775 O   0  0  0  0  0  0  0  0  0  0  0  0
  -31.2899    1.8868   26.9054 N   0  0  0  0  0  0  0  0  0  0  0  0
  -31.9084    2.6295   25.8540 C   0  0  0  0  0  0  0  0  0  0  0  0
  9 10  1  0
 10 12  2  0
 10 13  1  0
 13 14  1  0
  2  7  2  0
  7  8  1  0
  8  9  2  0
  9 11  1  0
 11  1  2  0
  1  2  1  0
  2  5  1  0
  5  6  2  0
  6  4  1  0
  4  3  2  0
  3  1  1  0
M  END

$$$$
