No_235-gen_results/8p0m/2024-11-26-14-13-15/
     RDKit          3D

 22 24  0  0  0  0  0  0  0  0999 V2000
  -28.0162   -0.8135   28.8779 C   0  0  0  0  0  0  0  0  0  0  0  0
  -27.0636   -0.1189   28.6079 C   0  0  0  0  0  0  0  0  0  0  0  0
  -26.9716    0.7139   27.5060 C   0  0  0  0  0  0  0  0  0  0  0  0
  -28.1053    0.7744   26.6421 C   0  0  0  0  0  0  0  0  0  0  0  0
  -29.2008    0.1044   27.0527 C   0  0  0  0  0  0  0  0  0  0  0  0
  -29.2096   -0.6029   28.1853 C   0  0  0  0  0  0  0  0  0  0  0  0
  -30.5651    0.2430   26.0493 Cl  0  0  0  0  0  0  0  0  0  0  0  0
  -25.7033   -0.2337   29.4132 C   0  0  0  0  0  0  0  0  0  0  0  0
  -25.5451   -0.8516   30.2590 C   0  0  0  0  0  0  0  0  0  0  0  0
  -26.7138   -1.7891   30.6815 C   0  0  0  0  0  0  0  0  0  0  0  0
  -27.8659   -1.7185   30.0143 C   0  0  0  0  0  0  0  0  0  0  0  0
  -29.1398   -2.7426   30.5225 Cl  0  0  0  0  0  0  0  0  0  0  0  0
  -24.6622    0.5624   28.9605 F   0  0  0  0  0  0  0  0  0  0  0  0
  -28.0066    1.8417   25.2882 Cl  0  0  0  0  0  0  0  0  0  0  0  0
  -23.9528   -1.0873   31.3141 Br  0  0  0  0  0  0  0  0  0  0  0  0
  -30.3008   -1.2760   28.5049 O   0  0  0  0  0  0  0  0  0  0  0  0
  -31.5283   -0.9607   28.9098 C   0  0  0  0  0  0  0  0  0  0  0  0
  -32.4113   -1.7180   28.6927 C   0  0  0  0  0  0  0  0  0  0  0  0
  -33.7094   -1.3068   28.7951 C   0  0  0  0  0  0  0  0  0  0  0  0
  -31.7011    0.3236   29.4866 C   0  0  0  0  0  0  0  0  0  0  0  0
  -32.9347    0.8168   29.7513 C   0  0  0  0  0  0  0  0  0  0  0  0
  -33.9964   -0.0814   29.4458 C   0  0  0  0  0  0  0  0  0  0  0  0
  5  7  1  0
 11 12  1  0
  8 13  1  0
  4 14  1  0
  9 15  1  0
  6 16  1  0
 16 17  1  0
  2  3  2  0
  3  4  1  0
  4  5  2  0
  5  6  1  0
  6  1  2  0
 17 18  2  0
 18 19  1  0
 19 22  2  0
 22 21  1  0
 21 20  2  0
 20 17  1  0
  1  2  1  0
  2  8  1  0
  8  9  2  0
  9 10  1  0
 10 11  2  0
 11  1  1  0
M  END

$$$$
