No_2972-gen_results/8p0m/2024-11-26-14-13-15/
     RDKit          3D

 16 16  0  0  0  0  0  0  0  0999 V2000
  -28.0162   -0.8135   28.8779 C   0  0  0  0  0  0  0  0  0  0  0  0
  -28.4690   -0.7850   29.8287 C   0  0  0  0  0  0  0  0  0  0  0  0
  -28.1816    0.4277   28.1134 C   0  0  0  0  0  0  0  0  0  0  0  0
  -28.9841    1.4155   28.5154 C   0  0  0  0  0  0  0  0  0  0  0  0
  -29.3802    0.1384   30.4612 C   0  0  0  0  0  0  0  0  0  0  0  0
  -29.5415    1.2736   29.7242 C   0  0  0  0  0  0  0  0  0  0  0  0
  -27.4452    0.4872   26.7726 C   0  0  0  0  0  0  0  0  0  0  0  0
  -26.5380    1.7140   26.3896 Cl  0  0  0  0  0  0  0  0  0  0  0  0
  -28.2365   -0.2729   25.9518 F   0  0  0  0  0  0  0  0  0  0  0  0
  -30.4630    2.3406   30.2542 C   0  0  0  0  0  0  0  0  0  0  0  0
  -31.3088    2.9387   30.0663 Cl  0  0  0  0  0  0  0  0  0  0  0  0
  -29.2998    3.0909   31.3663 Cl  0  0  0  0  0  0  0  0  0  0  0  0
  -28.2699   -2.1714   30.7736 C   0  0  0  0  0  0  0  0  0  0  0  0
  -27.6995   -3.1005   30.2502 O   0  0  0  0  0  0  0  0  0  0  0  0
  -28.8322   -2.2397   31.8894 O   0  0  0  0  0  0  0  0  0  0  0  0
  -26.2962   -0.4328   26.9525 F   0  0  0  0  0  0  0  0  0  0  0  0
  3  7  1  0
  7  8  1  0
  7  9  1  0
  6 10  1  0
 10 11  1  0
 10 12  1  0
  2 13  1  0
 13 14  2  0
 13 15  1  0
  7 16  1  0
  1  2  2  0
  2  5  1  0
  5  6  2  0
  6  4  1  0
  4  3  2  0
  3  1  1  0
M  END

$$$$
