No_2640-gen_results/8p0m/2024-11-26-14-13-15/
     RDKit          3D

 14 15  0  0  0  0  0  0  0  0999 V2000
  -28.0162   -0.8135   28.8779 C   0  0  0  0  0  0  0  0  0  0  0  0
  -28.4690   -0.7850   29.8287 C   0  0  0  0  0  0  0  0  0  0  0  0
  -26.5455   -0.8762   28.8500 C   0  0  0  0  0  0  0  0  0  0  0  0
  -25.8041   -1.0324   30.0571 C   0  0  0  0  0  0  0  0  0  0  0  0
  -26.5373   -1.0386   31.2171 C   0  0  0  0  0  0  0  0  0  0  0  0
  -27.8843   -0.9532   31.1862 C   0  0  0  0  0  0  0  0  0  0  0  0
  -24.4124   -1.2540   30.2305 C   0  0  0  0  0  0  0  0  0  0  0  0
  -23.4571   -0.3396   29.6925 C   0  0  0  0  0  0  0  0  0  0  0  0
  -23.6097    1.0035   29.8082 C   0  0  0  0  0  0  0  0  0  0  0  0
  -23.6721    1.8278   28.8122 C   0  0  0  0  0  0  0  0  0  0  0  0
  -22.6834    1.5049   27.7692 C   0  0  0  0  0  0  0  0  0  0  0  0
  -22.0806    0.3046   27.7663 C   0  0  0  0  0  0  0  0  0  0  0  0
  -22.5896   -0.7174   28.6527 C   0  0  0  0  0  0  0  0  0  0  0  0
  -25.8007   -0.8408   27.7034 O   0  0  0  0  0  0  0  0  0  0  0  0
  4  7  1  0
  7  8  1  0
  3 14  1  0
  1  2  2  0
  2  6  1  0
  6  5  2  0
  5  4  1  0
  4  3  2  0
  3  1  1  0
  8  9  2  0
  9 10  1  0
 10 11  2  0
 11 12  1  0
 12 13  2  0
 13  8  1  0
M  END

$$$$
