No_257-gen_results/8p0m/2024-11-26-14-13-15/
     RDKit          3D

 25 29  0  0  0  0  0  0  0  0999 V2000
  -28.0162   -0.8135   28.8779 C   0  0  0  0  0  0  0  0  0  0  0  0
  -27.0636   -0.1189   28.6079 C   0  0  0  0  0  0  0  0  0  0  0  0
  -26.9716    0.7139   27.5060 C   0  0  0  0  0  0  0  0  0  0  0  0
  -28.1053    0.7744   26.6421 C   0  0  0  0  0  0  0  0  0  0  0  0
  -29.2041    0.1179   27.0477 C   0  0  0  0  0  0  0  0  0  0  0  0
  -29.2127   -0.6088   28.1281 C   0  0  0  0  0  0  0  0  0  0  0  0
  -25.7106    1.4518   27.1380 C   0  0  0  0  0  0  0  0  0  0  0  0
  -24.6052    0.9253   27.6902 C   0  0  0  0  0  0  0  0  0  0  0  0
  -24.5938    0.0936   28.8217 C   0  0  0  0  0  0  0  0  0  0  0  0
  -25.7077   -0.4530   29.2468 C   0  0  0  0  0  0  0  0  0  0  0  0
  -23.2701    1.6921   27.4122 C   0  0  0  0  0  0  0  0  0  0  0  0
  -23.2737    2.8188   26.6553 C   0  0  0  0  0  0  0  0  0  0  0  0
  -24.5501    3.2071   25.9779 C   0  0  0  0  0  0  0  0  0  0  0  0
  -25.7268    2.5015   26.2821 C   0  0  0  0  0  0  0  0  0  0  0  0
  -22.0039    1.3200   28.0664 C   0  0  0  0  0  0  0  0  0  0  0  0
  -20.9486    1.9073   27.8876 O   0  0  0  0  0  0  0  0  0  0  0  0
  -21.9985    0.2651   28.9782 N   0  0  0  0  0  0  0  0  0  0  0  0
  -23.3123   -0.3702   29.4614 C   0  0  0  0  0  0  0  0  0  0  0  0
  -25.7549   -1.2924   30.2385 O   0  0  0  0  0  0  0  0  0  0  0  0
  -30.2450    0.4053   26.1415 N   0  0  0  0  0  0  0  0  0  0  0  0
  -31.4435    0.2250   26.4914 C   0  0  0  0  0  0  0  0  0  0  0  0
  -30.0118    0.6441   24.7708 C   0  0  0  0  0  0  0  0  0  0  0  0
  -32.3379    0.5846   26.2104 C   0  0  0  0  0  0  0  0  0  0  0  0
  -31.1100    1.2006   24.0640 C   0  0  0  0  0  0  0  0  0  0  0  0
  -32.3885    1.0723   24.7073 C   0  0  0  0  0  0  0  0  0  0  0  0
  3  7  1  0
  2 10  1  0
  9 10  1  0
 11 15  1  0
 15 16  2  0
 15 17  1  0
  9 18  1  0
 17 18  1  0
 10 19  2  0
  5 20  1  0
 20 21  1  0
 20 22  1  0
 23 25  1  0
 24 25  1  0
 21 23  1  0
 24 22  1  0
  8  9  1  0
  1  2  2  0
  2  3  1  0
  3  4  2  0
  4  5  1  0
  5  6  2  0
  6  1  1  0
  7  8  2  0
  8 11  1  0
 11 12  2  0
 12 13  1  0
 13 14  2  0
 14  7  1  0
M  END

$$$$
