No_2482-gen_results/8p0m/2024-11-26-14-13-15/
     RDKit          3D

 15 15  0  0  0  0  0  0  0  0999 V2000
  -28.0162   -0.8135   28.8779 C   0  0  0  0  0  0  0  0  0  0  0  0
  -27.0636   -0.1189   28.6079 C   0  0  0  0  0  0  0  0  0  0  0  0
  -27.0010    0.6913   27.4910 C   0  0  0  0  0  0  0  0  0  0  0  0
  -25.8548    1.4825   27.0830 C   0  0  0  0  0  0  0  0  0  0  0  0
  -24.6901    1.4526   27.8807 C   0  0  0  0  0  0  0  0  0  0  0  0
  -24.7379    0.6010   29.0416 C   0  0  0  0  0  0  0  0  0  0  0  0
  -25.8234   -0.1688   29.3887 C   0  0  0  0  0  0  0  0  0  0  0  0
  -29.2252   -0.0469   29.2805 C   0  0  0  0  0  0  0  0  0  0  0  0
  -30.2874   -0.8198   29.6756 N   0  0  0  0  0  0  0  0  0  0  0  0
  -23.5200    2.2054   27.5442 C   0  0  0  0  0  0  0  0  0  0  0  0
  -23.5972    2.9425   26.6256 F   0  0  0  0  0  0  0  0  0  0  0  0
  -22.9826    2.9094   28.5746 F   0  0  0  0  0  0  0  0  0  0  0  0
  -22.4269    1.3397   27.3016 F   0  0  0  0  0  0  0  0  0  0  0  0
  -30.1322   -1.8889   30.4416 C   0  0  0  0  0  0  0  0  0  0  0  0
  -29.0215   -2.6041   30.3987 O   0  0  0  0  0  0  0  0  0  0  0  0
  1  2  1  0
  1  8  1  0
  8  9  1  0
  5 10  1  0
 10 11  1  0
 10 12  1  0
 10 13  1  0
  9 14  2  0
 14 15  2  0
  2  3  2  0
  3  4  1  0
  4  5  2  0
  5  6  1  0
  6  7  2  0
  7  2  1  0
M  END

$$$$
