No_2190-gen_results/8p0m/2024-11-26-14-13-15/
     RDKit          3D

 14 15  0  0  0  0  0  0  0  0999 V2000
  -28.1229   -1.3353   28.4874 O   0  0  0  0  0  0  0  0  0  0  0  0
  -27.4806   -0.4044   28.7094 C   0  0  0  0  0  0  0  0  0  0  0  0
  -26.3804   -0.0867   27.9394 C   0  0  0  0  0  0  0  0  0  0  0  0
  -27.6664    0.4468   29.8988 N   0  0  0  0  0  0  0  0  0  0  0  0
  -25.1773   -0.4388   28.3946 C   0  0  0  0  0  0  0  0  0  0  0  0
  -24.8702   -0.1050   29.8315 C   0  0  0  0  0  0  0  0  0  0  0  0
  -26.1926    0.2176   30.5619 C   0  0  0  0  0  0  0  0  0  0  0  0
  -26.5115    1.2053   27.1733 C   0  0  0  0  0  0  0  0  0  0  0  0
  -26.2780    0.8653   25.8064 C   0  0  0  0  0  0  0  0  0  0  0  0
  -25.3467    0.0978   25.5464 C   0  0  0  0  0  0  0  0  0  0  0  0
  -24.5187   -0.3455   26.4881 C   0  0  0  0  0  0  0  0  0  0  0  0
  -23.7097    0.2989   27.0678 N   0  0  0  0  0  0  0  0  0  0  0  0
  -25.1492   -1.0965   27.3816 N   0  0  0  0  0  0  0  0  0  0  0  0
  -24.1809   -1.0535   30.7554 C   0  0  0  0  0  0  0  0  0  0  0  0
  1  2  2  0
  2  3  1  0
  2  4  1  0
  5  6  1  0
  3  8  1  0
  8  9  1  0
  9 10  1  0
 10 11  1  0
 11 12  1  0
  5 13  1  0
 11 13  1  0
  6 14  1  0
  3  5  1  0
  6  7  1  0
  7  4  1  0
M  END

$$$$
