No_253-gen_results/8p0m/2024-11-26-14-13-15/
     RDKit          3D

 35 38  0  0  0  0  0  0  0  0999 V2000
  -28.1229   -1.3353   28.4874 O   0  0  0  0  0  0  0  0  0  0  0  0
  -27.4806   -0.4044   28.7094 C   0  0  0  0  0  0  0  0  0  0  0  0
  -27.1904    0.2460   29.5268 C   0  0  0  0  0  0  0  0  0  0  0  0
  -26.7282   -0.1238   27.4073 F   0  0  0  0  0  0  0  0  0  0  0  0
  -27.6905    0.2967   30.8292 C   0  0  0  0  0  0  0  0  0  0  0  0
  -28.8636   -0.2805   31.0365 C   0  0  0  0  0  0  0  0  0  0  0  0
  -29.6683    0.0126   31.9927 C   0  0  0  0  0  0  0  0  0  0  0  0
  -29.0696    0.8070   33.1094 C   0  0  0  0  0  0  0  0  0  0  0  0
  -27.8270    1.4187   32.9757 C   0  0  0  0  0  0  0  0  0  0  0  0
  -27.1579    1.2680   31.8195 C   0  0  0  0  0  0  0  0  0  0  0  0
  -25.8791    1.8685   31.6279 C   0  0  0  0  0  0  0  0  0  0  0  0
  -25.0563    1.6886   30.4738 C   0  0  0  0  0  0  0  0  0  0  0  0
  -23.8023    2.2732   30.2277 C   0  0  0  0  0  0  0  0  0  0  0  0
  -25.6743    0.9257   29.4872 C   0  0  0  0  0  0  0  0  0  0  0  0
  -23.2859    2.9026   30.9056 O   0  0  0  0  0  0  0  0  0  0  0  0
  -23.3561    2.2011   28.9555 F   0  0  0  0  0  0  0  0  0  0  0  0
  -30.9026   -0.6967   32.3189 C   0  0  0  0  0  0  0  0  0  0  0  0
  -31.4910   -1.3364   31.6135 O   0  0  0  0  0  0  0  0  0  0  0  0
  -31.3054   -0.6530   33.6337 N   0  0  0  0  0  0  0  0  0  0  0  0
  -32.5479   -1.2937   34.0533 C   0  0  0  0  0  0  0  0  0  0  0  0
  -32.7969   -1.3061   35.2241 C   0  0  0  0  0  0  0  0  0  0  0  0
  -32.0122   -0.6970   36.1571 C   0  0  0  0  0  0  0  0  0  0  0  0
  -32.2771   -0.6889   37.6234 C   0  0  0  0  0  0  0  0  0  0  0  0
  -33.4195   -1.3709   37.9877 C   0  0  0  0  0  0  0  0  0  0  0  0
  -34.2405   -1.9789   37.1296 C   0  0  0  0  0  0  0  0  0  0  0  0
  -33.9275   -1.9546   35.7634 C   0  0  0  0  0  0  0  0  0  0  0  0
  -33.7493   -1.3743   39.4681 C   0  0  0  0  0  0  0  0  0  0  0  0
  -34.5621   -1.9505   39.9703 C   0  0  0  0  0  0  0  0  0  0  0  0
  -35.4530   -2.8064   39.2459 C   0  0  0  0  0  0  0  0  0  0  0  0
  -35.2984   -2.7743   37.7934 C   0  0  0  0  0  0  0  0  0  0  0  0
  -36.5805   -3.5663   39.7129 C   0  0  0  0  0  0  0  0  0  0  0  0
  -36.9549   -3.6995   40.8098 O   0  0  0  0  0  0  0  0  0  0  0  0
  -37.1142   -4.3847   38.7375 O   0  0  0  0  0  0  0  0  0  0  0  0
  -33.2295   -1.7498   33.1480 O   0  0  0  0  0  0  0  0  0  0  0  0
  -38.1300   -5.0820   39.0825 C   0  0  0  0  0  0  0  0  0  0  0  0
  1  2  2  0
  2  3  1  0
  2  4  1  0
 12 13  1  0
 13 15  2  0
 13 16  1  0
  7 17  1  0
 17 18  2  0
 17 19  1  0
 19 20  1  0
 20 21  1  0
 29 31  1  0
 31 32  2  0
 31 33  1  0
 20 34  2  0
 33 35  1  0
  3  5  2  0
 10 11  2  0
 11 12  1  0
 12 14  2  0
 14  3  1  0
  5  6  1  0
  6  7  2  0
  7  8  1  0
  8  9  2  0
  9 10  1  0
 10  5  1  0
 25 30  1  0
 30 29  2  0
 29 28  1  0
 28 27  2  0
 27 24  1  0
 21 22  2  0
 22 23  1  0
 23 24  2  0
 24 25  1  0
 25 26  2  0
 26 21  1  0
M  END

$$$$
