No_2411-gen_results/8p0m/2024-11-26-14-13-15/
     RDKit          3D

 26 27  0  0  0  0  0  0  0  0999 V2000
  -28.0162   -0.8135   28.8779 C   0  0  0  0  0  0  0  0  0  0  0  0
  -27.0636   -0.1190   28.6079 C   0  0  0  0  0  0  0  0  0  0  0  0
  -26.8756    1.1325   28.9134 C   0  0  0  0  0  0  0  0  0  0  0  0
  -27.9014    1.8066   29.6436 C   0  0  0  0  0  0  0  0  0  0  0  0
  -29.0458   -0.2316   29.7181 C   0  0  0  0  0  0  0  0  0  0  0  0
  -28.9402    1.0517   30.0597 C   0  0  0  0  0  0  0  0  0  0  0  0
  -25.8732   -0.7125   27.8045 C   0  0  0  0  0  0  0  0  0  0  0  0
  -24.7599   -1.1987   28.6570 C   0  0  0  0  0  0  0  0  0  0  0  0
  -24.7496   -2.3847   29.1063 C   0  0  0  0  0  0  0  0  0  0  0  0
  -23.5894   -2.8336   29.8419 C   0  0  0  0  0  0  0  0  0  0  0  0
  -22.7913   -1.8035   30.2794 C   0  0  0  0  0  0  0  0  0  0  0  0
  -23.7233   -0.4336   29.2770 C   0  0  0  0  0  0  0  0  0  0  0  0
  -23.1635    0.8351   29.2766 C   0  0  0  0  0  0  0  0  0  0  0  0
  -23.5657    1.8342   29.9833 N   0  0  0  0  0  0  0  0  0  0  0  0
  -22.1203    1.1081   28.2730 C   0  0  0  0  0  0  0  0  0  0  0  0
  -30.1944   -1.0971   30.1469 C   0  0  0  0  0  0  0  0  0  0  0  0
  -31.1722   -1.1693   29.3654 N   0  0  0  0  0  0  0  0  0  0  0  0
  -32.3558   -0.9416   29.7213 C   0  0  0  0  0  0  0  0  0  0  0  0
  -32.6987   -0.6269   30.8131 C   0  0  0  0  0  0  0  0  0  0  0  0
  -33.4384   -1.0331   28.6337 C   0  0  0  0  0  0  0  0  0  0  0  0
  -31.8290   -0.5238   31.9264 C   0  0  0  0  0  0  0  0  0  0  0  0
  -29.6780   -2.3108   30.9191 C   0  0  0  0  0  0  0  0  0  0  0  0
  -32.0087    0.0220   33.1391 C   0  0  0  0  0  0  0  0  0  0  0  0
  -31.1582   -0.0137   34.2444 C   0  0  0  0  0  0  0  0  0  0  0  0
  -29.9339   -0.6853   34.0342 C   0  0  0  0  0  0  0  0  0  0  0  0
  -29.6247   -1.2408   32.8340 C   0  0  0  0  0  0  0  0  0  0  0  0
  2  7  1  0
  7  8  1  0
  8  9  2  0
  9 10  1  0
 10 11  2  0
  8 12  1  0
 11 12  1  0
 12 13  1  0
 13 14  1  0
 13 15  1  0
  5 16  1  0
 16 17  1  0
 17 18  1  0
 18 19  2  3
 18 20  1  0
 19 21  1  0
 16 22  1  0
 21 23  2  3
 23 24  1  0
 24 25  2  3
 25 26  1  0
  1  2  2  0
  2  3  1  0
  3  4  2  0
  4  6  1  0
  6  5  2  0
  5  1  1  0
M  END

$$$$
