No_2304-gen_results/8p0m/2024-11-26-14-13-15/
     RDKit          3D

 25 27  0  0  0  0  0  0  0  0999 V2000
  -28.0162   -0.8135   28.8779 C   0  0  0  0  0  0  0  0  0  0  0  0
  -27.0636   -0.1189   28.6079 C   0  0  0  0  0  0  0  0  0  0  0  0
  -25.7647   -0.3897   29.0360 C   0  0  0  0  0  0  0  0  0  0  0  0
  -24.5516    0.4058   28.7646 C   0  0  0  0  0  0  0  0  0  0  0  0
  -24.6957    1.4480   27.7988 C   0  0  0  0  0  0  0  0  0  0  0  0
  -25.9755    1.7250   27.3077 C   0  0  0  0  0  0  0  0  0  0  0  0
  -27.0718    1.0134   27.6535 C   0  0  0  0  0  0  0  0  0  0  0  0
  -28.6178   -0.4695   30.2207 C   0  0  0  0  0  0  0  0  0  0  0  0
  -29.7296   -1.2768   30.7206 C   0  0  0  0  0  0  0  0  0  0  0  0
  -23.4863    2.1902   27.4840 C   0  0  0  0  0  0  0  0  0  0  0  0
  -23.5616    3.1509   26.7083 O   0  0  0  0  0  0  0  0  0  0  0  0
  -22.2889    1.8104   27.8553 O   0  0  0  0  0  0  0  0  0  0  0  0
  -30.1168   -2.1940   29.9227 C   0  0  0  0  0  0  0  0  0  0  0  0
  -31.2671   -2.9453   30.4768 C   0  0  0  0  0  0  0  0  0  0  0  0
  -31.7836   -2.6855   31.5883 C   0  0  0  0  0  0  0  0  0  0  0  0
  -31.3351   -1.7048   32.4389 C   0  0  0  0  0  0  0  0  0  0  0  0
  -30.2660   -0.9326   31.9979 C   0  0  0  0  0  0  0  0  0  0  0  0
  -28.0667    0.5927   31.0658 C   0  0  0  0  0  0  0  0  0  0  0  0
  -27.1754    1.2939   30.7471 N   0  0  0  0  0  0  0  0  0  0  0  0
  -26.7216    2.2010   31.7959 C   0  0  0  0  0  0  0  0  0  0  0  0
  -27.2452    2.1543   32.8270 C   0  0  0  0  0  0  0  0  0  0  0  0
  -28.3953    0.7846   32.4730 C   0  0  0  0  0  0  0  0  0  0  0  0
  -25.6185    3.1815   31.5198 C   0  0  0  0  0  0  0  0  0  0  0  0
  -24.8705    3.0100   30.6153 O   0  0  0  0  0  0  0  0  0  0  0  0
  -25.4451    4.0637   32.3965 F   0  0  0  0  0  0  0  0  0  0  0  0
  1  8  1  0
  8  9  1  0
  5 10  1  0
 10 11  2  0
 10 12  1  0
  8 18  1  0
 18 19  1  0
 19 20  1  0
 20 21  2  0
 18 22  1  0
 21 22  1  0
 20 23  1  0
 23 24  2  0
 23 25  1  0
  1  2  1  0
  2  3  2  0
  3  4  1  0
  4  5  2  0
  5  6  1  0
  6  7  2  0
  7  2  1  0
  9 13  2  0
 13 14  1  0
 14 15  2  0
 15 16  1  0
 16 17  2  0
 17  9  1  0
M  END

$$$$
