No_2121-gen_results/8p0m/2024-11-26-14-13-15/
     RDKit          3D

 12 12  0  0  0  0  0  0  0  0999 V2000
  -28.0162   -0.8135   28.8779 C   0  0  0  0  0  0  0  0  0  0  0  0
  -27.0636   -0.1189   28.6079 C   0  0  0  0  0  0  0  0  0  0  0  0
  -26.8756    1.1325   28.9134 C   0  0  0  0  0  0  0  0  0  0  0  0
  -27.9014    1.8066   29.6436 C   0  0  0  0  0  0  0  0  0  0  0  0
  -28.9449    1.0388   30.0360 C   0  0  0  0  0  0  0  0  0  0  0  0
  -29.0273   -0.2890   29.7051 C   0  0  0  0  0  0  0  0  0  0  0  0
  -25.7756    1.8718   28.5229 O   0  0  0  0  0  0  0  0  0  0  0  0
  -24.9188    1.6551   27.7542 C   0  0  0  0  0  0  0  0  0  0  0  0
  -23.6453    1.3045   28.3056 C   0  0  0  0  0  0  0  0  0  0  0  0
  -23.3677    0.1625   28.9981 C   0  0  0  0  0  0  0  0  0  0  0  0
  -24.2515   -0.4644   29.6547 C   0  0  0  0  0  0  0  0  0  0  0  0
  -23.8910   -1.6140   30.4706 C   0  0  0  0  0  0  0  0  0  0  0  0
  3  7  1  0
  7  8  1  0
  8  9  1  0
  9 10  1  0
 10 11  2  3
 11 12  1  0
  1  2  2  0
  2  3  1  0
  3  4  2  0
  4  5  1  0
  5  6  2  0
  6  1  1  0
M  END

$$$$
