No_2958-gen_results/8p0m/2024-11-26-14-13-15/
     RDKit          3D

 17 18  0  0  0  0  0  0  0  0999 V2000
  -28.0162   -0.8135   28.8779 C   0  0  0  0  0  0  0  0  0  0  0  0
  -27.0636   -0.1189   28.6079 C   0  0  0  0  0  0  0  0  0  0  0  0
  -26.9716    0.7139   27.5060 C   0  0  0  0  0  0  0  0  0  0  0  0
  -25.8205    1.4910   27.1160 C   0  0  0  0  0  0  0  0  0  0  0  0
  -24.6562    1.4242   27.9180 C   0  0  0  0  0  0  0  0  0  0  0  0
  -24.6847    0.5901   29.0659 C   0  0  0  0  0  0  0  0  0  0  0  0
  -25.8099   -0.1265   29.3338 C   0  0  0  0  0  0  0  0  0  0  0  0
  -29.2444   -0.0768   29.2011 C   0  0  0  0  0  0  0  0  0  0  0  0
  -30.3707   -0.8034   29.6891 C   0  0  0  0  0  0  0  0  0  0  0  0
  -30.1606   -2.0940   30.1407 C   0  0  0  0  0  0  0  0  0  0  0  0
  -28.9300   -2.7201   30.1719 C   0  0  0  0  0  0  0  0  0  0  0  0
  -27.8389   -2.0428   29.6726 C   0  0  0  0  0  0  0  0  0  0  0  0
  -23.4603    2.1958   27.6017 C   0  0  0  0  0  0  0  0  0  0  0  0
  -23.4545    3.0833   26.7919 O   0  0  0  0  0  0  0  0  0  0  0  0
  -22.2122    1.7546   28.0943 N   0  0  0  0  0  0  0  0  0  0  0  0
  -26.6457   -2.6317   29.7311 O   0  0  0  0  0  0  0  0  0  0  0  0
  -26.3737   -3.7682   30.0548 C   0  0  0  0  0  0  0  0  0  0  0  0
  5 13  1  0
 13 14  2  0
 13 15  1  0
 12 16  1  0
 16 17  1  0
  1  2  1  0
  2  3  2  0
  3  4  1  0
  4  5  2  0
  5  6  1  0
  6  7  2  0
  7  2  1  0
  1  8  2  0
  8  9  1  0
  9 10  2  0
 10 11  1  0
 11 12  2  0
 12  1  1  0
M  END

$$$$
