No_222-gen_results/8p0m/2024-11-26-14-13-15/
     RDKit          3D

 35 39  0  0  0  0  0  0  0  0999 V2000
  -28.0162   -0.8135   28.8779 C   0  0  0  0  0  0  0  0  0  0  0  0
  -27.0636   -0.1190   28.6079 C   0  0  0  0  0  0  0  0  0  0  0  0
  -25.7923   -0.4302   29.0761 C   0  0  0  0  0  0  0  0  0  0  0  0
  -24.5456    0.3494   28.8225 C   0  0  0  0  0  0  0  0  0  0  0  0
  -23.2409    0.0217   29.3323 C   0  0  0  0  0  0  0  0  0  0  0  0
  -27.8820   -1.8995   29.8633 C   0  0  0  0  0  0  0  0  0  0  0  0
  -26.6526   -2.3142   30.3138 C   0  0  0  0  0  0  0  0  0  0  0  0
  -25.5153   -1.5607   29.9787 C   0  0  0  0  0  0  0  0  0  0  0  0
  -23.2072   -1.2289   30.0311 C   0  0  0  0  0  0  0  0  0  0  0  0
  -24.2434   -1.9361   30.3879 C   0  0  0  0  0  0  0  0  0  0  0  0
  -24.5768    1.5651   27.9574 C   0  0  0  0  0  0  0  0  0  0  0  0
  -23.5960    1.7041   26.9962 C   0  0  0  0  0  0  0  0  0  0  0  0
  -23.6909    2.8399   26.1342 C   0  0  0  0  0  0  0  0  0  0  0  0
  -24.7146    3.8142   26.3027 C   0  0  0  0  0  0  0  0  0  0  0  0
  -25.3823    2.6194   28.3094 C   0  0  0  0  0  0  0  0  0  0  0  0
  -25.4491    3.7583   27.4861 C   0  0  0  0  0  0  0  0  0  0  0  0
  -29.0345   -2.5741   30.1576 O   0  0  0  0  0  0  0  0  0  0  0  0
  -30.1127   -1.8521   30.5303 C   0  0  0  0  0  0  0  0  0  0  0  0
  -31.2333   -2.1398   29.7156 C   0  0  0  0  0  0  0  0  0  0  0  0
  -31.4510   -3.2744   29.3571 N   0  0  0  0  0  0  0  0  0  0  0  0
  -32.2225   -3.6833   28.2760 C   0  0  0  0  0  0  0  0  0  0  0  0
  -32.1795   -5.0520   27.8086 C   0  0  0  0  0  0  0  0  0  0  0  0
  -31.2371   -5.9164   28.4111 C   0  0  0  0  0  0  0  0  0  0  0  0
  -30.3894   -5.5063   29.4083 C   0  0  0  0  0  0  0  0  0  0  0  0
  -30.5287   -4.2410   29.8320 C   0  0  0  0  0  0  0  0  0  0  0  0
  -32.0844   -1.1691   29.3922 O   0  0  0  0  0  0  0  0  0  0  0  0
  -30.4931   -2.0613   32.0342 C   0  0  0  0  0  0  0  0  0  0  0  0
  -29.8685   -1.1779   32.8313 C   0  0  0  0  0  0  0  0  0  0  0  0
  -30.2705   -0.4384   33.3740 C   0  0  0  0  0  0  0  0  0  0  0  0
  -29.5945    0.5217   34.3664 C   0  0  0  0  0  0  0  0  0  0  0  0
  -30.0462    1.6661   34.9416 C   0  0  0  0  0  0  0  0  0  0  0  0
  -28.3539   -1.4119   33.1573 C   0  0  0  0  0  0  0  0  0  0  0  0
  -27.5632   -0.7134   33.8677 C   0  0  0  0  0  0  0  0  0  0  0  0
  -28.1659    0.3742   34.5228 C   0  0  0  0  0  0  0  0  0  0  0  0
  -31.2203    1.9887   34.7554 N   0  0  0  0  0  0  0  0  0  0  0  0
  4 11  1  0
  6 17  1  0
 17 18  1  0
 18 19  1  0
 19 20  1  0
 20 21  1  0
 22 23  1  0
 20 25  1  0
 24 25  1  0
 19 26  2  0
 18 27  1  0
 27 28  1  0
 31 35  1  0
 31 30  1  0
 21 22  1  0
 23 24  1  0
  3  4  2  0
  4  5  1  0
  5  9  2  0
  9 10  1  0
 10  8  2  0
 28 29  2  0
 29 30  1  0
 30 34  2  0
 34 33  1  0
 33 32  2  0
 32 28  1  0
  1  2  2  0
  2  3  1  0
  3  8  1  0
  8  7  1  0
  7  6  2  0
  6  1  1  0
 11 12  2  0
 12 13  1  0
 13 14  2  0
 14 16  1  0
 16 15  2  0
 15 11  1  0
M  END

$$$$
