No_2319-gen_results/8p0m/2024-11-26-14-13-15/
     RDKit          3D

 13 14  0  0  0  0  0  0  0  0999 V2000
  -28.1229   -1.3353   28.4874 O   0  0  0  0  0  0  0  0  0  0  0  0
  -27.4806   -0.4044   28.7094 C   0  0  0  0  0  0  0  0  0  0  0  0
  -27.1904    0.2460   29.5268 C   0  0  0  0  0  0  0  0  0  0  0  0
  -26.6871   -0.0001   27.4423 N   0  0  0  0  0  0  0  0  0  0  0  0
  -27.8781    0.0301   30.6683 F   0  0  0  0  0  0  0  0  0  0  0  0
  -25.7257    0.9956   27.4534 C   0  0  0  0  0  0  0  0  0  0  0  0
  -25.5793    1.7016   28.6441 C   0  0  0  0  0  0  0  0  0  0  0  0
  -26.2613    1.3799   29.7239 C   0  0  0  0  0  0  0  0  0  0  0  0
  -25.0703    1.3012   26.3265 N   0  0  0  0  0  0  0  0  0  0  0  0
  -24.0420    2.2643   26.4188 C   0  0  0  0  0  0  0  0  0  0  0  0
  -23.8421    3.0015   27.5080 C   0  0  0  0  0  0  0  0  0  0  0  0
  -24.5360    2.7601   28.5883 C   0  0  0  0  0  0  0  0  0  0  0  0
  -23.3635    2.4535   25.2839 F   0  0  0  0  0  0  0  0  0  0  0  0
  1  2  2  0
  2  3  1  0
  2  4  1  0
  3  5  1  0
  3  8  1  0
  7  8  1  0
 10 13  1  0
  6  4  1  0
  6  7  2  0
  7 12  1  0
 12 11  2  0
 11 10  1  0
 10  9  2  0
  9  6  1  0
M  END

$$$$
