No_2300-gen_results/8p0m/2024-11-26-14-13-15/
     RDKit          3D

 15 16  0  0  0  0  0  0  0  0999 V2000
  -28.1229   -1.3353   28.4874 O   0  0  0  0  0  0  0  0  0  0  0  0
  -27.4806   -0.4044   28.7094 C   0  0  0  0  0  0  0  0  0  0  0  0
  -27.1904    0.2460   29.5268 C   0  0  0  0  0  0  0  0  0  0  0  0
  -26.6021   -0.1576   27.5515 N   0  0  0  0  0  0  0  0  0  0  0  0
  -25.6821    0.8355   27.5846 C   0  0  0  0  0  0  0  0  0  0  0  0
  -26.2468    1.3606   29.7944 C   0  0  0  0  0  0  0  0  0  0  0  0
  -25.4625    1.6158   28.6762 C   0  0  0  0  0  0  0  0  0  0  0  0
  -24.8955    1.0848   26.4642 N   0  0  0  0  0  0  0  0  0  0  0  0
  -23.8852    1.6041   26.4320 C   0  0  0  0  0  0  0  0  0  0  0  0
  -23.4912    2.4967   27.6070 C   0  0  0  0  0  0  0  0  0  0  0  0
  -24.2739    2.4567   28.6562 C   0  0  0  0  0  0  0  0  0  0  0  0
  -28.0947    0.0169   30.8945 C   0  0  0  0  0  0  0  0  0  0  0  0
  -27.5511   -0.3614   31.8405 O   0  0  0  0  0  0  0  0  0  0  0  0
  -29.2117    0.5785   30.8397 O   0  0  0  0  0  0  0  0  0  0  0  0
  -23.0792    1.9130   25.3714 N   0  0  0  0  0  0  0  0  0  0  0  0
  1  2  2  0
  2  3  1  0
  2  4  1  0
  6  7  1  0
  3 12  1  0
 12 13  1  0
 12 14  2  0
  9 15  1  0
  3  6  1  0
  5  4  1  0
  5  7  2  0
  7 11  1  0
 11 10  2  0
 10  9  1  0
  9  8  2  0
  8  5  1  0
M  END

$$$$
