No_2905-gen_results/8p0m/2024-11-26-14-13-15/
     RDKit          3D

 20 21  0  0  0  0  0  0  0  0999 V2000
  -28.0162   -0.8135   28.8779 C   0  0  0  0  0  0  0  0  0  0  0  0
  -27.0636   -0.1189   28.6079 C   0  0  0  0  0  0  0  0  0  0  0  0
  -25.7923   -0.4302   29.0761 C   0  0  0  0  0  0  0  0  0  0  0  0
  -25.5756   -1.5654   29.9363 C   0  0  0  0  0  0  0  0  0  0  0  0
  -26.7354   -2.3004   30.2173 C   0  0  0  0  0  0  0  0  0  0  0  0
  -27.9184   -1.9537   29.7629 C   0  0  0  0  0  0  0  0  0  0  0  0
  -26.9765    1.2687   27.5310 Cl  0  0  0  0  0  0  0  0  0  0  0  0
  -29.0098   -2.6945   30.1155 O   0  0  0  0  0  0  0  0  0  0  0  0
  -28.8862   -3.9242   30.6746 C   0  0  0  0  0  0  0  0  0  0  0  0
  -30.0004   -4.7333   30.3182 C   0  0  0  0  0  0  0  0  0  0  0  0
  -31.1699   -4.2814   30.7420 C   0  0  0  0  0  0  0  0  0  0  0  0
  -31.4346   -3.4124   31.3730 C   0  0  0  0  0  0  0  0  0  0  0  0
  -31.9830   -2.6697   31.7681 C   0  0  0  0  0  0  0  0  0  0  0  0
  -32.6612   -1.6048   32.3953 C   0  0  0  0  0  0  0  0  0  0  0  0
  -32.8858   -0.4640   32.7969 C   0  0  0  0  0  0  0  0  0  0  0  0
  -33.0512    0.6561   33.2335 C   0  0  0  0  0  0  0  0  0  0  0  0
  -32.3276   -5.2434   30.2521 C   0  0  0  0  0  0  0  0  0  0  0  0
  -32.1048   -6.1169   29.4697 C   0  0  0  0  0  0  0  0  0  0  0  0
  -30.7814   -6.5123   28.9080 C   0  0  0  0  0  0  0  0  0  0  0  0
  -29.7566   -5.7723   29.3750 C   0  0  0  0  0  0  0  0  0  0  0  0
  2  7  1  0
  6  8  1  0
  8  9  1  0
  9 10  1  0
 12 13  1  0
 13 14  2  3
 14 15  1  0
 15 16  3  0
 12 11  1  0
  1  2  2  0
  2  3  1  0
  3  4  2  0
  4  5  1  0
  5  6  2  0
  6  1  1  0
 10 11  2  0
 11 17  1  0
 17 18  2  0
 18 19  1  0
 19 20  2  0
 20 10  1  0
M  END

$$$$
