No_2568-gen_results/8p0m/2024-11-26-14-13-15/
     RDKit          3D

 13 12  0  0  0  0  0  0  0  0999 V2000
  -27.9505   -0.5786   29.0402 P   0  0  0  0  0  0  0  0  0  0  0  0
  -27.2401    0.0613   28.4283 O   0  0  0  0  0  0  0  0  0  0  0  0
  -29.3621   -0.5774   28.6194 O   0  0  0  0  0  0  0  0  0  0  0  0
  -27.4933   -2.0888   29.1563 O   0  0  0  0  0  0  0  0  0  0  0  0
  -27.9537   -0.1280   30.6351 O   0  0  0  0  0  0  0  0  0  0  0  0
  -27.2207    0.5047   27.1326 Cl  0  0  0  0  0  0  0  0  0  0  0  0
  -27.6640   -2.9202   30.2888 C   0  0  0  0  0  0  0  0  0  0  0  0
  -27.2112    0.0331   31.3438 F   0  0  0  0  0  0  0  0  0  0  0  0
  -27.2746   -4.3605   29.8865 C   0  0  0  0  0  0  0  0  0  0  0  0
  -26.3868   -4.5939   29.1396 O   0  0  0  0  0  0  0  0  0  0  0  0
  -25.0083   -4.4195   29.7953 C   0  0  0  0  0  0  0  0  0  0  0  0
  -24.5899   -3.0764   29.3955 C   0  0  0  0  0  0  0  0  0  0  0  0
  -23.5611   -2.7135   29.2820 O   0  0  0  0  0  0  0  0  0  0  0  0
  1  2  1  0
  1  3  2  0
  1  4  1  0
  1  5  1  0
  2  6  1  0
  4  7  1  0
  5  8  1  0
  7  9  1  0
  9 10  1  0
 10 11  1  0
 11 12  1  0
 12 13  2  0
M  END

$$$$
