No_2059-gen_results/8p0m/2024-11-26-14-13-15/
     RDKit          3D

 19 21  0  0  0  0  0  0  0  0999 V2000
  -28.0162   -0.8135   28.8779 C   0  0  0  0  0  0  0  0  0  0  0  0
  -27.0636   -0.1190   28.6079 C   0  0  0  0  0  0  0  0  0  0  0  0
  -26.9287    1.1713   29.0083 C   0  0  0  0  0  0  0  0  0  0  0  0
  -27.9560    1.7411   29.7840 C   0  0  0  0  0  0  0  0  0  0  0  0
  -29.0569   -0.3271   29.7466 C   0  0  0  0  0  0  0  0  0  0  0  0
  -28.9828    0.9722   30.1516 C   0  0  0  0  0  0  0  0  0  0  0  0
  -25.8815   -0.6260   27.7945 C   0  0  0  0  0  0  0  0  0  0  0  0
  -24.5472   -0.2311   28.2390 C   0  0  0  0  0  0  0  0  0  0  0  0
  -23.6883   -0.7975   28.8778 C   0  0  0  0  0  0  0  0  0  0  0  0
  -22.3307   -0.2315   29.1698 C   0  0  0  0  0  0  0  0  0  0  0  0
  -22.0692    0.9887   28.5559 C   0  0  0  0  0  0  0  0  0  0  0  0
  -24.1245    1.1500   27.7519 C   0  0  0  0  0  0  0  0  0  0  0  0
  -22.9730    1.7101   27.9529 C   0  0  0  0  0  0  0  0  0  0  0  0
  -30.1243    1.5099   31.0111 C   0  0  0  0  0  0  0  0  0  0  0  0
  -29.7843    2.3298   31.9559 C   0  0  0  0  0  0  0  0  0  0  0  0
  -31.4025    1.1398   30.6929 C   0  0  0  0  0  0  0  0  0  0  0  0
  -30.7443    2.8874   32.8514 C   0  0  0  0  0  0  0  0  0  0  0  0
  -32.4132    1.6713   31.5554 C   0  0  0  0  0  0  0  0  0  0  0  0
  -32.0688    2.5337   32.5959 C   0  0  0  0  0  0  0  0  0  0  0  0
  2  7  1  0
  7  8  1  0
  6 14  1  0
  1  2  2  0
  2  3  1  0
  3  4  2  0
  4  6  1  0
  6  5  2  0
  5  1  1  0
 14 15  2  0
 15 17  1  0
 17 19  2  0
 19 18  1  0
 18 16  2  0
 16 14  1  0
  8  9  2  0
  9 10  1  0
 10 11  2  0
 11 13  1  0
 13 12  2  0
 12  8  1  0
M  END

$$$$
