No_209-gen_results/8p0m/2024-11-26-14-13-15/
     RDKit          3D

 30 33  0  0  0  0  0  0  0  0999 V2000
  -28.0162   -0.8135   28.8779 C   0  0  0  0  0  0  0  0  0  0  0  0
  -28.4690   -0.7850   29.8287 C   0  0  0  0  0  0  0  0  0  0  0  0
  -26.5042   -0.7777   28.8766 C   0  0  0  0  0  0  0  0  0  0  0  0
  -25.8103   -0.8531   30.1028 C   0  0  0  0  0  0  0  0  0  0  0  0
  -27.9906   -0.8916   31.2257 C   0  0  0  0  0  0  0  0  0  0  0  0
  -26.6042   -0.8676   31.2652 C   0  0  0  0  0  0  0  0  0  0  0  0
  -30.0739   -0.8360   29.8615 C   0  0  0  0  0  0  0  0  0  0  0  0
  -30.6891   -1.6554   30.2229 O   0  0  0  0  0  0  0  0  0  0  0  0
  -30.6139    0.2846   29.2227 N   0  0  0  0  0  0  0  0  0  0  0  0
  -32.0200    0.3382   29.0215 C   0  0  0  0  0  0  0  0  0  0  0  0
  -29.8434    1.4263   28.7505 C   0  0  0  0  0  0  0  0  0  0  0  0
  -30.0696    2.5922   29.5725 C   0  0  0  0  0  0  0  0  0  0  0  0
  -29.3221    3.5645   29.2494 C   0  0  0  0  0  0  0  0  0  0  0  0
  -28.3501    3.6286   28.1794 C   0  0  0  0  0  0  0  0  0  0  0  0
  -28.2337    2.4801   27.4449 C   0  0  0  0  0  0  0  0  0  0  0  0
  -28.9437    1.3381   27.7818 C   0  0  0  0  0  0  0  0  0  0  0  0
  -25.6587   -0.7042   27.6763 C   0  0  0  0  0  0  0  0  0  0  0  0
  -25.1522    0.6118   27.3420 C   0  0  0  0  0  0  0  0  0  0  0  0
  -24.9906    0.9843   26.0929 C   0  0  0  0  0  0  0  0  0  0  0  0
  -24.3285    2.2265   25.7748 C   0  0  0  0  0  0  0  0  0  0  0  0
  -23.8403    2.9847   26.8892 C   0  0  0  0  0  0  0  0  0  0  0  0
  -24.4633    1.5750   28.2175 C   0  0  0  0  0  0  0  0  0  0  0  0
  -23.9164    2.6853   28.0417 C   0  0  0  0  0  0  0  0  0  0  0  0
  -27.5540    4.8543   27.8774 C   0  0  0  0  0  0  0  0  0  0  0  0
  -32.5236    1.0881   28.3016 C   0  0  0  0  0  0  0  0  0  0  0  0
  -31.9823    1.9784   27.4321 C   0  0  0  0  0  0  0  0  0  0  0  0
  -32.7755    2.8362   26.4930 C   0  0  0  0  0  0  0  0  0  0  0  0
  -33.8441    2.5702   26.3852 C   0  0  0  0  0  0  0  0  0  0  0  0
  -34.6104    1.6154   27.1197 C   0  0  0  0  0  0  0  0  0  0  0  0
  -33.9671    0.8796   28.0678 C   0  0  0  0  0  0  0  0  0  0  0  0
  2  7  1  0
  7  8  2  0
  7  9  1  0
  9 10  1  0
  9 11  1  0
  3 17  1  0
 17 18  1  0
 14 24  1  0
 10 25  1  0
 11 12  2  0
 12 13  1  0
 13 14  2  0
 14 15  1  0
 15 16  2  0
 16 11  1  0
 25 26  2  0
 26 27  1  0
 27 28  2  0
 28 29  1  0
 29 30  2  0
 30 25  1  0
 18 19  2  0
 19 20  1  0
 20 21  2  0
 21 23  1  0
 23 22  2  0
 22 18  1  0
  1  2  2  0
  2  5  1  0
  5  6  2  0
  6  4  1  0
  4  3  2  0
  3  1  1  0
M  END

$$$$
