No_2936-gen_results/8p0m/2024-11-26-14-13-15/
     RDKit          3D

 18 19  0  0  0  0  0  0  0  0999 V2000
  -28.0162   -0.8135   28.8779 C   0  0  0  0  0  0  0  0  0  0  0  0
  -28.4690   -0.7850   29.8287 C   0  0  0  0  0  0  0  0  0  0  0  0
  -28.1960    0.3478   28.0550 C   0  0  0  0  0  0  0  0  0  0  0  0
  -29.0191    1.3501   28.3782 C   0  0  0  0  0  0  0  0  0  0  0  0
  -29.4107    0.1803   30.3782 C   0  0  0  0  0  0  0  0  0  0  0  0
  -29.6059    1.2495   29.6193 C   0  0  0  0  0  0  0  0  0  0  0  0
  -27.4597    0.3802   26.7091 C   0  0  0  0  0  0  0  0  0  0  0  0
  -26.0094    0.3317   26.7236 C   0  0  0  0  0  0  0  0  0  0  0  0
  -25.3055    0.0239   27.8527 C   0  0  0  0  0  0  0  0  0  0  0  0
  -25.4404   -0.1985   28.8241 C   0  0  0  0  0  0  0  0  0  0  0  0
  -24.3927   -0.5706   29.7926 C   0  0  0  0  0  0  0  0  0  0  0  0
  -23.1391   -0.3352   29.3011 C   0  0  0  0  0  0  0  0  0  0  0  0
  -23.7857    0.2924   27.3965 C   0  0  0  0  0  0  0  0  0  0  0  0
  -22.8093    0.1553   28.1893 C   0  0  0  0  0  0  0  0  0  0  0  0
  -25.4812    0.6809   25.4020 C   0  0  0  0  0  0  0  0  0  0  0  0
  -28.2939    0.4634   25.6288 C   0  0  0  0  0  0  0  0  0  0  0  0
  -29.0912    1.3542   25.3915 C   0  0  0  0  0  0  0  0  0  0  0  0
  -29.9020    1.3769   24.2053 C   0  0  0  0  0  0  0  0  0  0  0  0
  3  7  1  0
  7  8  1  0
  8  9  1  0
  8 15  1  0
  7 16  1  0
 16 17  2  3
 17 18  1  0
  1  2  2  0
  2  5  1  0
  5  6  2  0
  6  4  1  0
  4  3  2  0
  3  1  1  0
  9 10  2  0
 10 11  1  0
 11 12  2  0
 12 14  1  0
 14 13  2  0
 13  9  1  0
M  END

$$$$
