No_2249-gen_results/8p0m/2024-11-26-14-13-15/
     RDKit          3D

 22 23  0  0  0  0  0  0  0  0999 V2000
  -28.0162   -0.8135   28.8779 C   0  0  0  0  0  0  0  0  0  0  0  0
  -27.0636   -0.1190   28.6079 C   0  0  0  0  0  0  0  0  0  0  0  0
  -27.0010    0.6913   27.4910 C   0  0  0  0  0  0  0  0  0  0  0  0
  -28.1373    0.7363   26.6350 C   0  0  0  0  0  0  0  0  0  0  0  0
  -29.2360    0.0765   27.0690 C   0  0  0  0  0  0  0  0  0  0  0  0
  -29.2177   -0.6429   28.1747 C   0  0  0  0  0  0  0  0  0  0  0  0
  -28.0030   -1.6604   30.1266 C   0  0  0  0  0  0  0  0  0  0  0  0
  -28.6910   -1.7921   30.8886 O   0  0  0  0  0  0  0  0  0  0  0  0
  -26.8311   -2.5697   30.0583 N   0  0  0  0  0  0  0  0  0  0  0  0
  -30.4336    0.1824   26.2068 C   0  0  0  0  0  0  0  0  0  0  0  0
  -30.4775    0.2190   25.0038 O   0  0  0  0  0  0  0  0  0  0  0  0
  -31.6518    0.0061   26.8514 N   0  0  0  0  0  0  0  0  0  0  0  0
  -32.8877   -0.0162   26.1395 C   0  0  0  0  0  0  0  0  0  0  0  0
  -25.7165   -2.4185   29.2569 C   0  0  0  0  0  0  0  0  0  0  0  0
  -24.5411   -2.3554   29.9541 C   0  0  0  0  0  0  0  0  0  0  0  0
  -23.8155   -1.0265   29.9069 C   0  0  0  0  0  0  0  0  0  0  0  0
  -22.8000   -0.8433   28.9312 C   0  0  0  0  0  0  0  0  0  0  0  0
  -22.2405    0.4307   28.7607 C   0  0  0  0  0  0  0  0  0  0  0  0
  -22.9119    1.5053   29.3039 C   0  0  0  0  0  0  0  0  0  0  0  0
  -23.8968    1.3938   30.2559 C   0  0  0  0  0  0  0  0  0  0  0  0
  -24.4217    0.0441   30.5534 C   0  0  0  0  0  0  0  0  0  0  0  0
  -24.3925    2.4376   30.8807 F   0  0  0  0  0  0  0  0  0  0  0  0
  1  7  1  0
  7  8  2  0
  7  9  1  0
  5 10  1  0
 10 11  2  0
 10 12  1  0
 12 13  1  0
  9 14  1  0
 14 15  1  0
 15 16  1  0
 20 22  1  0
  1  2  2  0
  2  3  1  0
  3  4  2  0
  4  5  1  0
  5  6  2  0
  6  1  1  0
 16 17  2  0
 17 18  1  0
 18 19  2  0
 19 20  1  0
 20 21  2  0
 21 16  1  0
M  END

$$$$
