No_2195-gen_results/8p0m/2024-11-26-14-13-15/
     RDKit          3D

 11 11  0  0  0  0  0  0  0  0999 V2000
  -28.1229   -1.3353   28.4874 O   0  0  0  0  0  0  0  0  0  0  0  0
  -27.0637   -0.8242   28.8687 C   0  0  0  0  0  0  0  0  0  0  0  0
  -26.4017   -0.0623   28.6224 C   0  0  0  0  0  0  0  0  0  0  0  0
  -26.3805   -1.7991   29.9619 N   0  0  0  0  0  0  0  0  0  0  0  0
  -25.1026    0.2983   29.0451 N   0  0  0  0  0  0  0  0  0  0  0  0
  -26.5440    0.7238   27.3135 C   0  0  0  0  0  0  0  0  0  0  0  0
  -24.2721    1.3512   28.7556 C   0  0  0  0  0  0  0  0  0  0  0  0
  -24.6184    2.0779   27.5956 C   0  0  0  0  0  0  0  0  0  0  0  0
  -25.7541    1.8195   26.9338 C   0  0  0  0  0  0  0  0  0  0  0  0
  -27.1247   -2.9764   30.4535 C   0  0  0  0  0  0  0  0  0  0  0  0
  -23.2262    1.5868   29.3812 F   0  0  0  0  0  0  0  0  0  0  0  0
  1  2  2  0
  2  3  1  0
  2  4  1  0
  4 10  1  0
  7 11  1  0
  3  5  2  0
  5  7  1  0
  7  8  2  0
  8  9  1  0
  9  6  2  0
  6  3  1  0
M  END

$$$$
