No_2649-gen_results/8p0m/2024-11-26-14-13-15/
     RDKit          3D

 17 19  0  0  0  0  0  0  0  0999 V2000
  -28.0162   -0.8135   28.8779 C   0  0  0  0  0  0  0  0  0  0  0  0
  -27.0636   -0.1189   28.6079 C   0  0  0  0  0  0  0  0  0  0  0  0
  -27.0010    0.6913   27.4910 C   0  0  0  0  0  0  0  0  0  0  0  0
  -25.8548    1.4825   27.0830 C   0  0  0  0  0  0  0  0  0  0  0  0
  -24.6901    1.4526   27.8807 C   0  0  0  0  0  0  0  0  0  0  0  0
  -24.7379    0.6010   29.0416 C   0  0  0  0  0  0  0  0  0  0  0  0
  -25.8234   -0.1688   29.3887 C   0  0  0  0  0  0  0  0  0  0  0  0
  -27.9524   -1.6294   30.0643 N   0  0  0  0  0  0  0  0  0  0  0  0
  -29.0363   -2.3695   30.4865 C   0  0  0  0  0  0  0  0  0  0  0  0
  -30.1588   -1.9008   30.4077 C   0  0  0  0  0  0  0  0  0  0  0  0
  -30.4226   -0.9351   29.3596 C   0  0  0  0  0  0  0  0  0  0  0  0
  -29.3214   -0.3087   28.7801 C   0  0  0  0  0  0  0  0  0  0  0  0
  -26.5770   -2.0163   30.4710 C   0  0  0  0  0  0  0  0  0  0  0  0
  -25.6427   -1.1375   30.3534 C   0  0  0  0  0  0  0  0  0  0  0  0
  -23.3895    1.8539   27.5552 C   0  0  0  0  0  0  0  0  0  0  0  0
  -23.1737    2.7455   26.5665 N   0  0  0  0  0  0  0  0  0  0  0  0
  -22.3070    1.6508   28.2043 O   0  0  0  0  0  0  0  0  0  0  0  0
  1  2  1  0
  1  8  1  0
  8  9  1  0
  9 10  1  0
  1 12  1  0
 11 12  1  0
  8 13  1  0
  7 14  1  0
  5 15  1  0
 15 16  1  0
 15 17  2  0
 11 10  1  0
 14 13  1  0
  2  3  2  0
  3  4  1  0
  4  5  2  0
  5  6  1  0
  6  7  2  0
  7  2  1  0
M  END

$$$$
