No_2712-gen_results/8p0m/2024-11-26-14-13-15/
     RDKit          3D

 16 16  0  0  0  0  0  0  0  0999 V2000
  -28.0162   -0.8135   28.8779 C   0  0  0  0  0  0  0  0  0  0  0  0
  -28.4690   -0.7850   29.8287 C   0  0  0  0  0  0  0  0  0  0  0  0
  -27.1356    0.2359   28.5352 C   0  0  0  0  0  0  0  0  0  0  0  0
  -26.8050    1.0509   29.2763 C   0  0  0  0  0  0  0  0  0  0  0  0
  -28.2372    0.1503   30.9300 C   0  0  0  0  0  0  0  0  0  0  0  0
  -27.3522    1.1239   30.6071 C   0  0  0  0  0  0  0  0  0  0  0  0
  -26.4616    0.1962   27.1371 C   0  0  0  0  0  0  0  0  0  0  0  0
  -27.0265    0.7893   26.1613 C   0  0  0  0  0  0  0  0  0  0  0  0
  -25.1687   -0.3841   26.9889 C   0  0  0  0  0  0  0  0  0  0  0  0
  -28.2629    1.3432   26.1986 C   0  0  0  0  0  0  0  0  0  0  0  0
  -28.7818    1.8352   27.0750 C   0  0  0  0  0  0  0  0  0  0  0  0
  -30.1247    2.5493   26.9322 C   0  0  0  0  0  0  0  0  0  0  0  0
  -30.8236    3.1008   28.0162 C   0  0  0  0  0  0  0  0  0  0  0  0
  -32.0490    3.6106   27.8866 C   0  0  0  0  0  0  0  0  0  0  0  0
  -32.6023    3.6848   26.5862 C   0  0  0  0  0  0  0  0  0  0  0  0
  -31.9514    3.1888   25.5064 C   0  0  0  0  0  0  0  0  0  0  0  0
  3  7  1  0
  7  8  1  0
  7  9  1  0
  8 10  1  0
 10 11  2  3
 11 12  1  0
 12 13  2  3
 13 14  1  0
 14 15  2  3
 15 16  1  0
  1  2  2  0
  2  5  1  0
  5  6  2  0
  6  4  1  0
  4  3  2  0
  3  1  1  0
M  END

$$$$
