No_2547-gen_results/8p0m/2024-11-26-14-13-15/
     RDKit          3D

 17 18  0  0  0  0  0  0  0  0999 V2000
  -28.0162   -0.8135   28.8779 C   0  0  0  0  0  0  0  0  0  0  0  0
  -28.4690   -0.7850   29.8287 C   0  0  0  0  0  0  0  0  0  0  0  0
  -28.1816    0.4277   28.1134 C   0  0  0  0  0  0  0  0  0  0  0  0
  -28.9841    1.4155   28.5154 C   0  0  0  0  0  0  0  0  0  0  0  0
  -29.3802    0.1384   30.4612 C   0  0  0  0  0  0  0  0  0  0  0  0
  -29.5415    1.2736   29.7242 C   0  0  0  0  0  0  0  0  0  0  0  0
  -27.4586    0.4934   26.7701 C   0  0  0  0  0  0  0  0  0  0  0  0
  -27.8805    0.6637   25.7783 N   0  0  0  0  0  0  0  0  0  0  0  0
  -26.0966    0.2849   26.8556 O   0  0  0  0  0  0  0  0  0  0  0  0
  -29.3111    0.9020   25.5345 C   0  0  0  0  0  0  0  0  0  0  0  0
  -27.0967    0.6766   24.5127 C   0  0  0  0  0  0  0  0  0  0  0  0
  -29.9446   -0.1266   24.6838 C   0  0  0  0  0  0  0  0  0  0  0  0
  -29.8240   -1.3827   25.0911 C   0  0  0  0  0  0  0  0  0  0  0  0
  -30.5913   -2.3740   24.2150 C   0  0  0  0  0  0  0  0  0  0  0  0
  -31.4828   -1.6264   23.3245 C   0  0  0  0  0  0  0  0  0  0  0  0
  -30.9418    0.2116   23.8059 C   0  0  0  0  0  0  0  0  0  0  0  0
  -31.7066   -0.3469   23.0723 C   0  0  0  0  0  0  0  0  0  0  0  0
  3  7  1  0
  7  8  1  0
  7  9  2  0
  8 10  1  0
  8 11  1  0
 10 12  1  0
 12 13  2  0
 13 14  1  0
 14 15  2  0
 15 17  1  0
 17 16  2  0
 16 12  1  0
  1  2  2  0
  2  5  1  0
  5  6  2  0
  6  4  1  0
  4  3  2  0
  3  1  1  0
M  END

$$$$
