No_2658-gen_results/8p0m/2024-11-26-14-13-15/
     RDKit          3D

 17 19  0  0  0  0  0  0  0  0999 V2000
  -28.0162   -0.8135   28.8779 C   0  0  0  0  0  0  0  0  0  0  0  0
  -27.0636   -0.1189   28.6079 C   0  0  0  0  0  0  0  0  0  0  0  0
  -25.7647   -0.3897   29.0360 C   0  0  0  0  0  0  0  0  0  0  0  0
  -25.5296   -1.5302   29.9014 C   0  0  0  0  0  0  0  0  0  0  0  0
  -26.6577   -2.2915   30.2035 C   0  0  0  0  0  0  0  0  0  0  0  0
  -27.8548   -1.9555   29.7630 C   0  0  0  0  0  0  0  0  0  0  0  0
  -24.5441    0.4126   28.7379 C   0  0  0  0  0  0  0  0  0  0  0  0
  -23.3654    0.0041   28.9531 N   0  0  0  0  0  0  0  0  0  0  0  0
  -22.3113    0.8205   28.5690 C   0  0  0  0  0  0  0  0  0  0  0  0
  -22.9131    1.7988   27.7985 N   0  0  0  0  0  0  0  0  0  0  0  0
  -24.4024    1.5472   27.9139 C   0  0  0  0  0  0  0  0  0  0  0  0
  -25.2850    2.3462   27.2072 C   0  0  0  0  0  0  0  0  0  0  0  0
  -25.5419    2.0548   25.8982 C   0  0  0  0  0  0  0  0  0  0  0  0
  -25.8176    3.4756   27.8609 C   0  0  0  0  0  0  0  0  0  0  0  0
  -26.7977    4.2869   27.2905 C   0  0  0  0  0  0  0  0  0  0  0  0
  -26.6152    2.8331   25.2399 C   0  0  0  0  0  0  0  0  0  0  0  0
  -27.1539    3.9483   25.9521 C   0  0  0  0  0  0  0  0  0  0  0  0
  3  7  1  0
  7  8  2  0
  8  9  1  0
  9 10  2  0
  7 11  1  0
 10 11  1  0
 11 12  1  0
  1  2  2  0
  2  3  1  0
  3  4  2  0
  4  5  1  0
  5  6  2  0
  6  1  1  0
 12 13  2  0
 13 16  1  0
 16 17  2  0
 17 15  1  0
 15 14  2  0
 14 12  1  0
M  END

$$$$
