No_2122-gen_results/8p0m/2024-11-26-14-13-15/
     RDKit          3D

 21 24  0  0  0  0  0  0  0  0999 V2000
  -28.1229   -1.3353   28.4874 O   0  0  0  0  0  0  0  0  0  0  0  0
  -28.5208   -0.4363   29.0779 C   0  0  0  0  0  0  0  0  0  0  0  0
  -27.6655    0.1129   30.0346 C   0  0  0  0  0  0  0  0  0  0  0  0
  -29.5662    0.3302   28.6099 N   0  0  0  0  0  0  0  0  0  0  0  0
  -27.6931    1.3673   30.4369 C   0  0  0  0  0  0  0  0  0  0  0  0
  -29.7947    1.5940   29.1820 C   0  0  0  0  0  0  0  0  0  0  0  0
  -28.9287    2.0790   30.1852 C   0  0  0  0  0  0  0  0  0  0  0  0
  -30.8333    2.2755   28.7644 N   0  0  0  0  0  0  0  0  0  0  0  0
  -31.5968    2.0528   27.8159 C   0  0  0  0  0  0  0  0  0  0  0  0
  -32.6735    2.9092   27.4155 C   0  0  0  0  0  0  0  0  0  0  0  0
  -33.5148    2.6640   26.4192 C   0  0  0  0  0  0  0  0  0  0  0  0
  -33.3178    1.4754   25.6514 C   0  0  0  0  0  0  0  0  0  0  0  0
  -32.2961    0.6067   25.9500 C   0  0  0  0  0  0  0  0  0  0  0  0
  -31.4705    0.8687   26.9827 C   0  0  0  0  0  0  0  0  0  0  0  0
  -30.3652   -0.1602   27.5714 C   0  0  0  0  0  0  0  0  0  0  0  0
  -26.4901   -0.7506   30.4761 C   0  0  0  0  0  0  0  0  0  0  0  0
  -25.7618   -0.5242   31.5066 C   0  0  0  0  0  0  0  0  0  0  0  0
  -24.4100   -0.9944   31.5337 C   0  0  0  0  0  0  0  0  0  0  0  0
  -23.8150   -1.2181   30.4264 C   0  0  0  0  0  0  0  0  0  0  0  0
  -24.5692   -1.5828   29.2909 C   0  0  0  0  0  0  0  0  0  0  0  0
  -25.8233   -1.4358   29.3286 C   0  0  0  0  0  0  0  0  0  0  0  0
  1  2  2  0
  2  3  1  0
  2  4  1  0
  3  5  1  0
  4  6  1  0
  6  8  1  0
  8  9  1  0
  4 15  1  0
 14 15  1  0
  3 16  1  0
  5  7  1  0
  7  6  1  0
  9 10  2  0
 10 11  1  0
 11 12  2  0
 12 13  1  0
 13 14  2  0
 14  9  1  0
 16 17  2  0
 17 18  1  0
 18 19  2  0
 19 20  1  0
 20 21  2  0
 21 16  1  0
M  END

$$$$
