No_2534-gen_results/8p0m/2024-11-26-14-13-15/
     RDKit          3D

 18 19  0  0  0  0  0  0  0  0999 V2000
  -28.0162   -0.8135   28.8779 C   0  0  0  0  0  0  0  0  0  0  0  0
  -27.0636   -0.1189   28.6079 C   0  0  0  0  0  0  0  0  0  0  0  0
  -26.8756    1.1325   28.9134 C   0  0  0  0  0  0  0  0  0  0  0  0
  -25.6883    1.9515   28.5672 C   0  0  0  0  0  0  0  0  0  0  0  0
  -24.6394    1.2834   27.8753 C   0  0  0  0  0  0  0  0  0  0  0  0
  -24.8068   -0.0513   27.6040 C   0  0  0  0  0  0  0  0  0  0  0  0
  -25.9020   -0.7670   27.9511 C   0  0  0  0  0  0  0  0  0  0  0  0
  -28.6392   -0.5118   30.2403 C   0  0  0  0  0  0  0  0  0  0  0  0
  -28.8731    0.8215   30.4840 C   0  0  0  0  0  0  0  0  0  0  0  0
  -27.6873    1.6637   30.0653 C   0  0  0  0  0  0  0  0  0  0  0  0
  -23.4738    1.9736   27.3661 C   0  0  0  0  0  0  0  0  0  0  0  0
  -23.4098    2.7652   26.5300 O   0  0  0  0  0  0  0  0  0  0  0  0
  -22.2309    1.6970   28.1139 N   0  0  0  0  0  0  0  0  0  0  0  0
  -22.0538    0.8045   29.1162 C   0  0  0  0  0  0  0  0  0  0  0  0
  -25.5275    3.3917   28.8970 C   0  0  0  0  0  0  0  0  0  0  0  0
  -25.2044    3.8385   30.0486 N   0  0  0  0  0  0  0  0  0  0  0  0
  -25.8945    4.2056   27.9918 O   0  0  0  0  0  0  0  0  0  0  0  0
  -24.9092    3.0178   31.1199 O   0  0  0  0  0  0  0  0  0  0  0  0
  5 11  1  0
 11 12  2  0
 11 13  1  0
 13 14  1  0
  4 15  1  0
 15 16  1  0
 15 17  2  0
 16 18  2  0
  3  4  1  0
  4  5  2  0
  5  6  1  0
  6  7  2  0
  7  2  1  0
  1  2  2  0
  2  3  1  0
  3 10  2  0
 10  9  1  0
  9  8  2  0
  8  1  1  0
M  END

$$$$
