No_2834-gen_results/8p0m/2024-11-26-14-13-15/
     RDKit          3D

 31 33  0  0  0  0  0  0  0  0999 V2000
  -28.0162   -0.8135   28.8779 C   0  0  0  0  0  0  0  0  0  0  0  0
  -27.0636   -0.1189   28.6079 C   0  0  0  0  0  0  0  0  0  0  0  0
  -25.7923   -0.4302   29.0761 C   0  0  0  0  0  0  0  0  0  0  0  0
  -25.5756   -1.5654   29.9363 C   0  0  0  0  0  0  0  0  0  0  0  0
  -26.7354   -2.3004   30.2173 C   0  0  0  0  0  0  0  0  0  0  0  0
  -27.9184   -1.9537   29.7629 C   0  0  0  0  0  0  0  0  0  0  0  0
  -27.1057    1.1023   27.7593 C   0  0  0  0  0  0  0  0  0  0  0  0
  -27.8576    1.5309   27.2156 C   0  0  0  0  0  0  0  0  0  0  0  0
  -27.8433    2.7213   26.2861 C   0  0  0  0  0  0  0  0  0  0  0  0
  -26.6217    3.3253   26.0566 C   0  0  0  0  0  0  0  0  0  0  0  0
  -25.4854    2.7960   26.6725 C   0  0  0  0  0  0  0  0  0  0  0  0
  -25.6222    1.7365   27.5193 C   0  0  0  0  0  0  0  0  0  0  0  0
  -29.0776   -2.7599   30.2148 C   0  0  0  0  0  0  0  0  0  0  0  0
  -30.1904   -2.2909   30.2786 N   0  0  0  0  0  0  0  0  0  0  0  0
  -28.8811   -3.9898   30.5195 O   0  0  0  0  0  0  0  0  0  0  0  0
  -31.4167   -3.0447   30.6408 C   0  0  0  0  0  0  0  0  0  0  0  0
  -24.1914    3.4149   26.4427 C   0  0  0  0  0  0  0  0  0  0  0  0
  -23.1858    2.9718   26.3660 N   0  0  0  0  0  0  0  0  0  0  0  0
  -24.1806    4.8145   26.6609 O   0  0  0  0  0  0  0  0  0  0  0  0
  -31.4809   -3.8982   31.3890 C   0  0  0  0  0  0  0  0  0  0  0  0
  -32.5465   -2.5237   29.8801 C   0  0  0  0  0  0  0  0  0  0  0  0
  -32.7090   -4.6370   31.6714 C   0  0  0  0  0  0  0  0  0  0  0  0
  -33.7739   -3.2093   30.1048 C   0  0  0  0  0  0  0  0  0  0  0  0
  -33.8147   -4.2179   31.0326 C   0  0  0  0  0  0  0  0  0  0  0  0
  -35.3233   -4.9839   31.2950 Cl  0  0  0  0  0  0  0  0  0  0  0  0
  -22.6254    1.6751   26.4338 C   0  0  0  0  0  0  0  0  0  0  0  0
  -22.1994    1.3583   27.8843 C   0  0  0  0  0  0  0  0  0  0  0  0
  -21.8522    0.1388   28.3537 C   0  0  0  0  0  0  0  0  0  0  0  0
  -21.0216   -0.0345   29.3800 C   0  0  0  0  0  0  0  0  0  0  0  0
  -21.1374   -1.2302   29.8582 N   0  0  0  0  0  0  0  0  0  0  0  0
  -22.3191   -1.8068   29.3079 C   0  0  0  0  0  0  0  0  0  0  0  0
  2  7  1  0
  6 13  1  0
 13 14  1  0
 13 15  2  0
 14 16  1  0
 11 17  1  0
 17 18  2  3
 17 19  1  0
 24 25  1  0
 18 26  1  0
 26 27  1  0
 27 28  2  3
 28 29  1  0
 29 30  1  0
 30 31  2  0
  1  2  2  0
  2  3  1  0
  3  4  2  0
  4  5  1  0
  5  6  2  0
  6  1  1  0
 16 20  2  0
 20 22  1  0
 22 24  2  0
 24 23  1  0
 23 21  2  0
 21 16  1  0
  7  8  2  0
  8  9  1  0
  9 10  2  0
 10 11  1  0
 11 12  2  0
 12  7  1  0
M  END

$$$$
