No_2680-gen_results/8p0m/2024-11-26-14-13-15/
     RDKit          3D

 35 36  0  0  0  0  0  0  0  0999 V2000
  -28.0162   -0.8135   28.8779 C   0  0  0  0  0  0  0  0  0  0  0  0
  -28.4690   -0.7850   29.8287 C   0  0  0  0  0  0  0  0  0  0  0  0
  -26.5042   -0.7777   28.8766 C   0  0  0  0  0  0  0  0  0  0  0  0
  -25.8305   -1.6807   29.6849 C   0  0  0  0  0  0  0  0  0  0  0  0
  -28.1490   -1.8854   30.9031 C   0  0  0  0  0  0  0  0  0  0  0  0
  -26.6460   -1.9561   31.0330 C   0  0  0  0  0  0  0  0  0  0  0  0
  -28.6274   -1.7308   32.1858 O   0  0  0  0  0  0  0  0  0  0  0  0
  -30.0168   -0.9269   29.8771 O   0  0  0  0  0  0  0  0  0  0  0  0
  -24.6534   -2.3030   29.3807 C   0  0  0  0  0  0  0  0  0  0  0  0
  -23.3568   -1.8979   29.8520 C   0  0  0  0  0  0  0  0  0  0  0  0
  -24.6504   -3.6906   28.8594 C   0  0  0  0  0  0  0  0  0  0  0  0
  -28.3766    0.3636   28.0472 O   0  0  0  0  0  0  0  0  0  0  0  0
  -23.3489   -0.5910   30.4861 C   0  0  0  0  0  0  0  0  0  0  0  0
  -22.8647    0.5637   29.7362 C   0  0  0  0  0  0  0  0  0  0  0  0
  -23.6799    0.9169   28.6942 C   0  0  0  0  0  0  0  0  0  0  0  0
  -23.6933    2.4019   28.3902 C   0  0  0  0  0  0  0  0  0  0  0  0
  -25.0702    2.9931   28.3605 C   0  0  0  0  0  0  0  0  0  0  0  0
  -25.1342    4.0678   27.8925 O   0  0  0  0  0  0  0  0  0  0  0  0
  -25.9337    2.4277   28.9981 O   0  0  0  0  0  0  0  0  0  0  0  0
  -29.2750    1.1273   28.1465 C   0  0  0  0  0  0  0  0  0  0  0  0
  -29.4606    2.2615   28.2908 C   0  0  0  0  0  0  0  0  0  0  0  0
  -28.3634    3.1150   28.1485 C   0  0  0  0  0  0  0  0  0  0  0  0
  -28.5390    4.4889   28.6390 C   0  0  0  0  0  0  0  0  0  0  0  0
  -29.5970    4.7949   28.9746 C   0  0  0  0  0  0  0  0  0  0  0  0
  -30.4877    2.9628   28.9684 C   0  0  0  0  0  0  0  0  0  0  0  0
  -30.6789    4.1848   29.2574 C   0  0  0  0  0  0  0  0  0  0  0  0
  -30.4662    0.4549   27.7303 O   0  0  0  0  0  0  0  0  0  0  0  0
  -29.5267   -2.6490   32.7056 C   0  0  0  0  0  0  0  0  0  0  0  0
  -30.3226   -3.3734   31.9097 C   0  0  0  0  0  0  0  0  0  0  0  0
  -29.9156   -4.3354   31.6207 F   0  0  0  0  0  0  0  0  0  0  0  0
  -31.4967   -3.5901   32.6026 F   0  0  0  0  0  0  0  0  0  0  0  0
  -30.3018   -1.8041   33.6583 O   0  0  0  0  0  0  0  0  0  0  0  0
  -23.0872    2.5487   27.0576 N   0  0  0  0  0  0  0  0  0  0  0  0
  -23.7470    2.7772   25.9844 C   0  0  0  0  0  0  0  0  0  0  0  0
  -21.9273    1.6304   26.8875 C   0  0  0  0  0  0  0  0  0  0  0  0
  1  2  1  0
  1  3  1  0
  3  4  1  0
  2  5  1  0
  4  6  1  0
  5  6  1  0
  5  7  1  0
  2  8  1  0
  4  9  1  0
  9 10  1  0
  9 11  1  0
  1 12  1  0
 10 13  1  0
 13 14  1  0
 14 15  1  0
 15 16  1  0
 16 17  1  0
 17 18  2  0
 17 19  1  0
 12 20  1  0
 20 21  1  0
 20 27  2  0
  7 28  1  0
 28 29  1  0
 29 30  1  0
 29 31  1  0
 28 32  1  0
 16 33  1  0
 33 34  1  0
 33 35  1  0
 21 22  2  0
 22 23  1  0
 23 24  2  0
 24 26  1  0
 26 25  2  0
 25 21  1  0
M  END

$$$$
