No_2747-gen_results/8p0m/2024-11-26-14-13-15/
     RDKit          3D

 14 16  0  0  0  0  0  0  0  0999 V2000
  -28.0162   -0.8135   28.8779 C   0  0  0  0  0  0  0  0  0  0  0  0
  -27.0636   -0.1189   28.6079 C   0  0  0  0  0  0  0  0  0  0  0  0
  -25.7923   -0.4302   29.0761 C   0  0  0  0  0  0  0  0  0  0  0  0
  -25.5756   -1.5654   29.9363 C   0  0  0  0  0  0  0  0  0  0  0  0
  -26.7354   -2.3004   30.2173 C   0  0  0  0  0  0  0  0  0  0  0  0
  -27.9184   -1.9537   29.7629 C   0  0  0  0  0  0  0  0  0  0  0  0
  -27.1057    1.1023   27.7593 C   0  0  0  0  0  0  0  0  0  0  0  0
  -27.8576    1.5309   27.2156 C   0  0  0  0  0  0  0  0  0  0  0  0
  -28.0991    2.2992   26.4301 C   0  0  0  0  0  0  0  0  0  0  0  0
  -29.3955    2.7159   25.7746 C   0  0  0  0  0  0  0  0  0  0  0  0
  -30.4606    1.9767   26.1528 C   0  0  0  0  0  0  0  0  0  0  0  0
  -30.3252    1.0123   26.9813 C   0  0  0  0  0  0  0  0  0  0  0  0
  -29.1089    0.6632   27.5435 C   0  0  0  0  0  0  0  0  0  0  0  0
  -29.2012   -0.4206   28.3522 N   0  0  0  0  0  0  0  0  0  0  0  0
  2  3  2  0
  3  4  1  0
  4  5  2  0
  5  6  1  0
  6  1  2  0
  8  9  1  0
  9 10  2  0
 10 11  1  0
 11 12  2  0
 12 13  1  0
  1  2  1  0
  2  7  1  0
  7  8  2  0
  8 13  1  0
 13 14  2  0
 14  1  1  0
M  END

$$$$
