No_2281-gen_results/8p0m/2024-11-26-14-13-15/
     RDKit          3D

 22 24  0  0  0  0  0  0  0  0999 V2000
  -28.0162   -0.8135   28.8779 C   0  0  0  0  0  0  0  0  0  0  0  0
  -27.0636   -0.1189   28.6079 C   0  0  0  0  0  0  0  0  0  0  0  0
  -25.8586   -0.4059   28.9035 O   0  0  0  0  0  0  0  0  0  0  0  0
  -27.1835    1.0379   27.7428 N   0  0  0  0  0  0  0  0  0  0  0  0
  -27.9085   -1.5501   30.0049 N   0  0  0  0  0  0  0  0  0  0  0  0
  -26.0356    1.7337   27.2102 C   0  0  0  0  0  0  0  0  0  0  0  0
  -25.7770    1.5993   25.9563 C   0  0  0  0  0  0  0  0  0  0  0  0
  -24.9528    0.8985   25.7012 C   0  0  0  0  0  0  0  0  0  0  0  0
  -23.6667    0.7751   26.4032 C   0  0  0  0  0  0  0  0  0  0  0  0
  -23.7159    1.4201   27.7043 C   0  0  0  0  0  0  0  0  0  0  0  0
  -25.0083    1.9691   28.0953 C   0  0  0  0  0  0  0  0  0  0  0  0
  -29.2202    0.1389   29.1377 C   0  0  0  0  0  0  0  0  0  0  0  0
  -22.4774    1.4938   28.4746 C   0  0  0  0  0  0  0  0  0  0  0  0
  -21.8954    0.6593   28.9597 N   0  0  0  0  0  0  0  0  0  0  0  0
  -29.8113    0.1251   30.0085 C   0  0  0  0  0  0  0  0  0  0  0  0
  -29.7911   -0.8589   31.0971 C   0  0  0  0  0  0  0  0  0  0  0  0
  -28.7784   -1.8140   30.9997 C   0  0  0  0  0  0  0  0  0  0  0  0
  -21.0044   -0.1533   28.3675 C   0  0  0  0  0  0  0  0  0  0  0  0
  -22.5700   -0.0455   30.1113 C   0  0  0  0  0  0  0  0  0  0  0  0
  -28.4541    1.4910   27.2700 C   0  0  0  0  0  0  0  0  0  0  0  0
  -29.3208    1.0772   27.6915 C   0  0  0  0  0  0  0  0  0  0  0  0
  -28.4474    2.3824   26.3837 F   0  0  0  0  0  0  0  0  0  0  0  0
  1  2  1  0
  2  3  2  0
  2  4  1  0
  4  6  1  0
 10 13  1  0
 13 14  1  0
 14 18  1  0
 14 19  1  0
  4 20  1  0
 12 21  1  0
 20 22  1  0
 21 20  1  0
  6  7  2  0
  7  8  1  0
  8  9  2  0
  9 10  1  0
 10 11  2  0
 11  6  1  0
  1  5  2  0
  5 17  1  0
 17 16  2  0
 16 15  1  0
 15 12  2  0
 12  1  1  0
M  END

$$$$
