No_2816-gen_results/8p0m/2024-11-26-14-13-15/
     RDKit          3D

 17 19  0  0  0  0  0  0  0  0999 V2000
  -28.0162   -0.8135   28.8779 C   0  0  0  0  0  0  0  0  0  0  0  0
  -27.0636   -0.1190   28.6079 C   0  0  0  0  0  0  0  0  0  0  0  0
  -26.9287    1.1713   29.0083 C   0  0  0  0  0  0  0  0  0  0  0  0
  -27.9560    1.7411   29.7840 C   0  0  0  0  0  0  0  0  0  0  0  0
  -29.0569   -0.3271   29.7466 C   0  0  0  0  0  0  0  0  0  0  0  0
  -28.9828    0.9722   30.1516 C   0  0  0  0  0  0  0  0  0  0  0  0
  -25.8815   -0.6260   27.7945 C   0  0  0  0  0  0  0  0  0  0  0  0
  -25.4214    0.1302   26.7096 C   0  0  0  0  0  0  0  0  0  0  0  0
  -25.0332   -1.6821   28.2396 C   0  0  0  0  0  0  0  0  0  0  0  0
  -23.8635   -1.4377   29.0263 C   0  0  0  0  0  0  0  0  0  0  0  0
  -23.2724   -0.1521   29.1376 C   0  0  0  0  0  0  0  0  0  0  0  0
  -21.8771   -0.0831   29.3676 C   0  0  0  0  0  0  0  0  0  0  0  0
  -21.1046    0.0007   28.3970 C   0  0  0  0  0  0  0  0  0  0  0  0
  -26.1107    0.4321   25.5667 C   0  0  0  0  0  0  0  0  0  0  0  0
  -24.1843    0.9300   26.7871 C   0  0  0  0  0  0  0  0  0  0  0  0
  -23.3092    0.6176   27.7506 C   0  0  0  0  0  0  0  0  0  0  0  0
  -21.8925    1.0326   27.4829 C   0  0  0  0  0  0  0  0  0  0  0  0
  2  7  1  0
  7  8  1  0
  7  9  1  0
  9 10  2  0
 10 11  1  0
 11 12  2  0
 12 13  1  0
  8 14  1  0
  8 15  1  0
 11 16  1  0
 15 16  2  0
 13 17  1  0
 16 17  1  0
  1  2  2  0
  2  3  1  0
  3  4  2  0
  4  6  1  0
  6  5  2  0
  5  1  1  0
M  END

$$$$
