No_2845-gen_results/8p0m/2024-11-26-14-13-15/
     RDKit          3D

 19 19  0  0  0  0  0  0  0  0999 V2000
  -28.0162   -0.8135   28.8779 C   0  0  0  0  0  0  0  0  0  0  0  0
  -28.4690   -0.7850   29.8287 C   0  0  0  0  0  0  0  0  0  0  0  0
  -26.5042   -0.7777   28.8766 C   0  0  0  0  0  0  0  0  0  0  0  0
  -25.8103   -0.8531   30.1028 C   0  0  0  0  0  0  0  0  0  0  0  0
  -27.9906   -0.8916   31.2257 C   0  0  0  0  0  0  0  0  0  0  0  0
  -24.3976   -0.8364   30.1775 C   0  0  0  0  0  0  0  0  0  0  0  0
  -26.5754   -0.8899   31.2661 C   0  0  0  0  0  0  0  0  0  0  0  0
  -23.7964    0.4357   29.9090 C   0  0  0  0  0  0  0  0  0  0  0  0
  -22.4944    0.4757   29.3633 C   0  0  0  0  0  0  0  0  0  0  0  0
  -21.9370    1.6932   28.9178 C   0  0  0  0  0  0  0  0  0  0  0  0
  -24.3775    1.6726   30.3250 C   0  0  0  0  0  0  0  0  0  0  0  0
  -25.5867    1.6901   31.0763 C   0  0  0  0  0  0  0  0  0  0  0  0
  -26.0347    3.0756   31.4254 C   0  0  0  0  0  0  0  0  0  0  0  0
  -27.0112    3.2510   32.3696 C   0  0  0  0  0  0  0  0  0  0  0  0
  -22.3007    1.9294   27.5912 C   0  0  0  0  0  0  0  0  0  0  0  0
  -25.7059   -0.6171   27.6383 C   0  0  0  0  0  0  0  0  0  0  0  0
  -27.5459    4.5113   32.5522 C   0  0  0  0  0  0  0  0  0  0  0  0
  -27.0644    5.6169   31.8240 C   0  0  0  0  0  0  0  0  0  0  0  0
  -27.6195    6.8996   31.9532 C   0  0  0  0  0  0  0  0  0  0  0  0
  4  6  1  0
  6  8  1  0
  8  9  2  3
  9 10  1  0
  8 11  1  0
 11 12  1  0
 12 13  2  3
 13 14  1  0
 10 15  1  0
  3 16  1  0
 14 17  2  3
 17 18  1  0
 18 19  1  0
  1  2  2  0
  2  5  1  0
  5  7  2  0
  7  4  1  0
  4  3  2  0
  3  1  1  0
M  END

$$$$
