No_2049-gen_results/8p0m/2024-11-26-14-13-15/
     RDKit          3D

 35 37  0  0  0  0  0  0  0  0999 V2000
  -28.1229   -1.3353   28.4874 O   0  0  0  0  0  0  0  0  0  0  0  0
  -28.5208   -0.4363   29.0779 C   0  0  0  0  0  0  0  0  0  0  0  0
  -28.5894    0.5916   28.9464 C   0  0  0  0  0  0  0  0  0  0  0  0
  -28.7866   -0.8872   30.4874 N   0  0  0  0  0  0  0  0  0  0  0  0
  -27.7841    1.2822   27.9869 C   0  0  0  0  0  0  0  0  0  0  0  0
  -28.0838    1.5823   26.7801 C   0  0  0  0  0  0  0  0  0  0  0  0
  -29.4226    1.3802   26.4063 C   0  0  0  0  0  0  0  0  0  0  0  0
  -29.7147    0.7172   25.3765 C   0  0  0  0  0  0  0  0  0  0  0  0
  -31.0777    0.3771   25.1000 C   0  0  0  0  0  0  0  0  0  0  0  0
  -32.0573    0.7529   25.9678 C   0  0  0  0  0  0  0  0  0  0  0  0
  -31.7405    1.4998   27.0425 C   0  0  0  0  0  0  0  0  0  0  0  0
  -30.4056    1.8169   27.3252 C   0  0  0  0  0  0  0  0  0  0  0  0
  -28.8251   -2.2818   30.8338 C   0  0  0  0  0  0  0  0  0  0  0  0
  -28.6120   -0.1510   31.6729 C   0  0  0  0  0  0  0  0  0  0  0  0
  -29.4153    1.5069   29.5383 O   0  0  0  0  0  0  0  0  0  0  0  0
  -30.0303   -2.9493   30.5230 C   0  0  0  0  0  0  0  0  0  0  0  0
  -30.6215   -3.2283   31.6463 C   0  0  0  0  0  0  0  0  0  0  0  0
  -31.9619   -3.7873   31.5189 C   0  0  0  0  0  0  0  0  0  0  0  0
  -32.4462   -4.0810   30.2279 C   0  0  0  0  0  0  0  0  0  0  0  0
  -31.6921   -3.7619   29.1159 C   0  0  0  0  0  0  0  0  0  0  0  0
  -30.4623   -3.1794   29.2651 C   0  0  0  0  0  0  0  0  0  0  0  0
  -32.2418   -3.9667   27.9099 O   0  0  0  0  0  0  0  0  0  0  0  0
  -32.5904   -2.9437   27.1140 C   0  0  0  0  0  0  0  0  0  0  0  0
  -33.7990   -3.0826   26.4601 C   0  0  0  0  0  0  0  0  0  0  0  0
  -34.2446   -2.0663   25.9878 O   0  0  0  0  0  0  0  0  0  0  0  0
  -34.2937   -4.2224   26.3906 O   0  0  0  0  0  0  0  0  0  0  0  0
  -31.4311   -0.3945   23.8691 C   0  0  0  0  0  0  0  0  0  0  0  0
  -32.5426   -0.3875   23.4615 N   0  0  0  0  0  0  0  0  0  0  0  0
  -30.4939   -1.3312   23.5247 N   0  0  0  0  0  0  0  0  0  0  0  0
  -29.7813    0.3785   32.2116 C   0  0  0  0  0  0  0  0  0  0  0  0
  -29.7075    1.2259   33.0761 C   0  0  0  0  0  0  0  0  0  0  0  0
  -28.4907    1.7400   33.5728 C   0  0  0  0  0  0  0  0  0  0  0  0
  -27.6563   -0.3713   32.5343 C   0  0  0  0  0  0  0  0  0  0  0  0
  -27.3479    0.7444   33.4416 C   0  0  0  0  0  0  0  0  0  0  0  0
  -32.7800   -4.1797   32.7160 C   0  0  0  0  0  0  0  0  0  0  0  0
  1  2  2  0
  2  3  1  0
  2  4  1  0
  3  5  1  0
  5  6  2  3
  6  7  1  0
  4 13  1  0
  4 14  1  0
  3 15  2  0
 13 16  1  0
 20 22  1  0
 22 23  1  0
 23 24  1  0
 24 25  1  0
 24 26  2  0
  9 27  1  0
 27 28  1  0
 27 29  2  0
 18 35  1  0
 14 30  2  0
 30 31  1  0
 31 32  2  0
 32 34  1  0
 34 33  2  0
 33 14  1  0
  7  8  2  0
  8  9  1  0
  9 10  2  0
 10 11  1  0
 11 12  2  0
 12  7  1  0
 16 17  2  0
 17 18  1  0
 18 19  2  0
 19 20  1  0
 20 21  2  0
 21 16  1  0
M  END

$$$$
