No_2028-gen_results/8p0m/2024-11-26-14-13-15/
     RDKit          3D

 14 14  0  0  0  0  0  0  0  0999 V2000
  -28.0162   -0.8135   28.8779 C   0  0  0  0  0  0  0  0  0  0  0  0
  -28.4690   -0.7850   29.8287 C   0  0  0  0  0  0  0  0  0  0  0  0
  -27.0871    0.2903   28.6377 C   0  0  0  0  0  0  0  0  0  0  0  0
  -26.2516    0.4114   27.4223 C   0  0  0  0  0  0  0  0  0  0  0  0
  -28.3913    0.1041   30.9805 C   0  0  0  0  0  0  0  0  0  0  0  0
  -27.5332    1.1666   30.7866 C   0  0  0  0  0  0  0  0  0  0  0  0
  -26.8281    1.2557   29.6454 C   0  0  0  0  0  0  0  0  0  0  0  0
  -26.2895   -0.3207   26.7007 F   0  0  0  0  0  0  0  0  0  0  0  0
  -24.9065    0.6297   27.8498 F   0  0  0  0  0  0  0  0  0  0  0  0
  -26.5253    1.7003   26.8049 F   0  0  0  0  0  0  0  0  0  0  0  0
  -29.4614   -2.0180   30.2134 C   0  0  0  0  0  0  0  0  0  0  0  0
  -28.9944   -3.2014   30.1585 F   0  0  0  0  0  0  0  0  0  0  0  0
  -29.8782   -1.9018   31.5119 F   0  0  0  0  0  0  0  0  0  0  0  0
  -30.5167   -1.9669   29.4318 F   0  0  0  0  0  0  0  0  0  0  0  0
  3  4  1  0
  4  8  1  0
  4  9  1  0
  4 10  1  0
  2 11  1  0
 11 12  1  0
 11 13  1  0
 11 14  1  0
  1  2  2  0
  2  5  1  0
  5  6  2  0
  6  7  1  0
  7  3  2  0
  3  1  1  0
M  END

$$$$
