No_2196-gen_results/8p0m/2024-11-26-14-13-15/
     RDKit          3D

 18 20  0  0  0  0  0  0  0  0999 V2000
  -28.0162   -0.8135   28.8779 C   0  0  0  0  0  0  0  0  0  0  0  0
  -27.0636   -0.1190   28.6079 C   0  0  0  0  0  0  0  0  0  0  0  0
  -27.0010    0.6913   27.4910 C   0  0  0  0  0  0  0  0  0  0  0  0
  -28.1373    0.7363   26.6350 C   0  0  0  0  0  0  0  0  0  0  0  0
  -29.2360    0.0765   27.0690 C   0  0  0  0  0  0  0  0  0  0  0  0
  -29.2177   -0.6429   28.1747 C   0  0  0  0  0  0  0  0  0  0  0  0
  -28.0466   -1.5481   30.0087 F   0  0  0  0  0  0  0  0  0  0  0  0
  -30.3371    0.2364   26.0196 C   0  0  0  0  0  0  0  0  0  0  0  0
  -31.2153   -0.4583   26.1006 O   0  0  0  0  0  0  0  0  0  0  0  0
  -30.2244    1.1223   24.9993 N   0  0  0  0  0  0  0  0  0  0  0  0
  -25.6957    1.3932   27.1072 C   0  0  0  0  0  0  0  0  0  0  0  0
  -24.5819    1.0828   27.8265 C   0  0  0  0  0  0  0  0  0  0  0  0
  -23.3398    1.8131   27.4808 C   0  0  0  0  0  0  0  0  0  0  0  0
  -22.1418    1.6211   28.2012 C   0  0  0  0  0  0  0  0  0  0  0  0
  -22.1049    0.5845   29.1572 C   0  0  0  0  0  0  0  0  0  0  0  0
  -23.2099   -0.2428   29.4396 C   0  0  0  0  0  0  0  0  0  0  0  0
  -24.4157    0.0132   28.7390 C   0  0  0  0  0  0  0  0  0  0  0  0
  -25.7734   -0.4052   29.2997 N   0  0  0  0  0  0  0  0  0  0  0  0
  1  7  1  0
  5  8  1  0
  8  9  2  0
  8 10  1  0
 12 13  1  0
 13 14  2  0
 14 15  1  0
 15 16  2  0
 16 17  1  0
  1  2  2  0
  3  4  2  0
  4  5  1  0
  5  6  2  0
  6  1  1  0
  2  3  1  0
  3 11  1  0
 11 12  2  0
 12 17  1  0
 17 18  2  0
 18  2  1  0
M  END

$$$$
