No_2460-gen_results/8p0m/2024-11-26-14-13-15/
     RDKit          3D

 26 28  0  0  0  0  0  0  0  0999 V2000
  -28.0162   -0.8135   28.8779 C   0  0  0  0  0  0  0  0  0  0  0  0
  -27.0636   -0.1189   28.6079 C   0  0  0  0  0  0  0  0  0  0  0  0
  -25.7647   -0.3897   29.0360 C   0  0  0  0  0  0  0  0  0  0  0  0
  -25.5296   -1.5302   29.9014 C   0  0  0  0  0  0  0  0  0  0  0  0
  -26.6888   -2.2893   30.1810 C   0  0  0  0  0  0  0  0  0  0  0  0
  -27.8727   -1.9508   29.7373 C   0  0  0  0  0  0  0  0  0  0  0  0
  -24.5491    0.4100   28.7341 C   0  0  0  0  0  0  0  0  0  0  0  0
  -24.0931    1.3779   29.5761 C   0  0  0  0  0  0  0  0  0  0  0  0
  -22.9754    2.1437   29.2395 C   0  0  0  0  0  0  0  0  0  0  0  0
  -22.2571    1.9096   28.0218 C   0  0  0  0  0  0  0  0  0  0  0  0
  -23.7980    0.2733   27.5521 C   0  0  0  0  0  0  0  0  0  0  0  0
  -22.7107    1.0013   27.2291 C   0  0  0  0  0  0  0  0  0  0  0  0
  -29.0291   -2.7933   30.1645 C   0  0  0  0  0  0  0  0  0  0  0  0
  -30.1935   -2.3218   30.1814 N   0  0  0  0  0  0  0  0  0  0  0  0
  -28.8123   -3.9797   30.5759 O   0  0  0  0  0  0  0  0  0  0  0  0
  -31.3772   -3.1181   30.5530 C   0  0  0  0  0  0  0  0  0  0  0  0
  -32.3834   -2.5500   30.8454 C   0  0  0  0  0  0  0  0  0  0  0  0
  -32.6667   -1.4665   30.2022 C   0  0  0  0  0  0  0  0  0  0  0  0
  -33.8850   -0.6546   30.4700 C   0  0  0  0  0  0  0  0  0  0  0  0
  -34.1211    0.5856   29.8473 C   0  0  0  0  0  0  0  0  0  0  0  0
  -33.1478    1.0213   28.9088 C   0  0  0  0  0  0  0  0  0  0  0  0
  -32.0179    0.2861   28.6394 C   0  0  0  0  0  0  0  0  0  0  0  0
  -31.8088   -0.8961   29.2900 C   0  0  0  0  0  0  0  0  0  0  0  0
  -30.5070   -1.4311   29.2810 N   0  0  0  0  0  0  0  0  0  0  0  0
  -33.2792   -1.4874   29.3590 N   0  0  0  0  0  0  0  0  0  0  0  0
  -31.4695   -0.2145   28.6149 Cl  0  0  0  0  0  0  0  0  0  0  0  0
  3  7  1  0
  6 13  1  0
 13 14  1  0
 13 15  2  0
 14 16  1  0
 16 17  1  0
 17 18  2  3
 18 19  1  0
 19 20  2  3
 20 21  1  0
 21 22  2  3
 22 23  1  0
 14 24  1  0
 23 24  2  3
 18 25  1  0
 22 26  1  0
  7  8  2  0
  8  9  1  0
  9 10  2  0
 10 12  1  0
 12 11  2  0
 11  7  1  0
  1  2  2  0
  2  3  1  0
  3  4  2  0
  4  5  1  0
  5  6  2  0
  6  1  1  0
M  END

$$$$
