No_2798-gen_results/8p0m/2024-11-26-14-13-15/
     RDKit          3D

 19 19  0  0  0  0  0  0  0  0999 V2000
  -28.0162   -0.8135   28.8779 C   0  0  0  0  0  0  0  0  0  0  0  0
  -27.0636   -0.1190   28.6079 C   0  0  0  0  0  0  0  0  0  0  0  0
  -26.9716    0.7139   27.5060 C   0  0  0  0  0  0  0  0  0  0  0  0
  -28.1053    0.7744   26.6421 C   0  0  0  0  0  0  0  0  0  0  0  0
  -29.2008    0.1044   27.0527 C   0  0  0  0  0  0  0  0  0  0  0  0
  -29.2096   -0.6029   28.1853 C   0  0  0  0  0  0  0  0  0  0  0  0
  -30.2808    0.2156   26.2913 F   0  0  0  0  0  0  0  0  0  0  0  0
  -25.7162   -0.2143   29.4079 C   0  0  0  0  0  0  0  0  0  0  0  0
  -25.5845   -1.1990   30.0583 F   0  0  0  0  0  0  0  0  0  0  0  0
  -25.6661    0.8568   30.3080 F   0  0  0  0  0  0  0  0  0  0  0  0
  -24.6389    0.0475   28.6278 F   0  0  0  0  0  0  0  0  0  0  0  0
  -28.0211    1.5431   25.5580 O   0  0  0  0  0  0  0  0  0  0  0  0
  -30.2807   -1.2959   28.5854 O   0  0  0  0  0  0  0  0  0  0  0  0
  -30.3894   -1.8421   29.8324 C   0  0  0  0  0  0  0  0  0  0  0  0
  -31.7360   -1.8486   30.2779 C   0  0  0  0  0  0  0  0  0  0  0  0
  -32.0186   -2.3009   31.2553 O   0  0  0  0  0  0  0  0  0  0  0  0
  -32.4829   -0.9701   29.6990 O   0  0  0  0  0  0  0  0  0  0  0  0
  -29.7378   -3.2066   29.9040 C   0  0  0  0  0  0  0  0  0  0  0  0
  -28.5486   -3.2150   30.4388 O   0  0  0  0  0  0  0  0  0  0  0  0
  5  7  1  0
  2  8  1  0
  8  9  1  0
  8 10  1  0
  8 11  1  0
  4 12  1  0
  6 13  1  0
 13 14  1  0
 14 15  1  0
 15 16  2  0
 15 17  1  0
 14 18  1  0
 18 19  2  0
  1  2  2  0
  2  3  1  0
  3  4  2  0
  4  5  1  0
  5  6  2  0
  6  1  1  0
M  END

$$$$
