No_2328-gen_results/8p0m/2024-11-26-14-13-15/
     RDKit          3D

 17 19  0  0  0  0  0  0  0  0999 V2000
  -28.0162   -0.8135   28.8779 C   0  0  0  0  0  0  0  0  0  0  0  0
  -27.0636   -0.1189   28.6079 C   0  0  0  0  0  0  0  0  0  0  0  0
  -26.9716    0.7139   27.5060 C   0  0  0  0  0  0  0  0  0  0  0  0
  -28.1053    0.7744   26.6421 C   0  0  0  0  0  0  0  0  0  0  0  0
  -29.2041    0.1179   27.0477 C   0  0  0  0  0  0  0  0  0  0  0  0
  -29.2127   -0.6088   28.1281 C   0  0  0  0  0  0  0  0  0  0  0  0
  -30.2671    0.2179   26.2593 F   0  0  0  0  0  0  0  0  0  0  0  0
  -25.6932    1.4470   27.1347 C   0  0  0  0  0  0  0  0  0  0  0  0
  -24.9049    1.3259   26.4698 C   0  0  0  0  0  0  0  0  0  0  0  0
  -23.6271    2.1181   26.3715 C   0  0  0  0  0  0  0  0  0  0  0  0
  -23.5086    3.0631   27.4091 C   0  0  0  0  0  0  0  0  0  0  0  0
  -25.1831    2.5921   28.1356 C   0  0  0  0  0  0  0  0  0  0  0  0
  -25.6535    3.3329   29.1514 C   0  0  0  0  0  0  0  0  0  0  0  0
  -26.7460    3.1068   29.2872 O   0  0  0  0  0  0  0  0  0  0  0  0
  -27.4191    3.7354   30.3101 C   0  0  0  0  0  0  0  0  0  0  0  0
  -26.6585    4.3275   30.9782 C   0  0  0  0  0  0  0  0  0  0  0  0
  -25.2582    4.1286   30.1985 C   0  0  0  0  0  0  0  0  0  0  0  0
  5  7  1  0
  3  8  1  0
  8  9  2  0
  9 10  1  0
 10 11  2  0
  8 12  1  0
 11 12  1  0
 12 13  1  0
 13 14  1  0
 14 15  1  0
 15 16  2  0
 13 17  1  0
 16 17  1  0
  1  2  2  0
  2  3  1  0
  3  4  2  0
  4  5  1  0
  5  6  2  0
  6  1  1  0
M  END

$$$$
