No_2762-gen_results/8p0m/2024-11-26-14-13-15/
     RDKit          3D

 21 21  0  0  0  0  0  0  0  0999 V2000
  -28.0162   -0.8135   28.8779 C   0  0  0  0  0  0  0  0  0  0  0  0
  -28.4690   -0.7850   29.8287 C   0  0  0  0  0  0  0  0  0  0  0  0
  -27.0871    0.2903   28.6377 C   0  0  0  0  0  0  0  0  0  0  0  0
  -26.8317    1.2487   29.5869 C   0  0  0  0  0  0  0  0  0  0  0  0
  -28.3914    0.0801   31.0065 C   0  0  0  0  0  0  0  0  0  0  0  0
  -27.4940    1.1521   30.7841 C   0  0  0  0  0  0  0  0  0  0  0  0
  -26.3109    0.3918   27.3640 C   0  0  0  0  0  0  0  0  0  0  0  0
  -26.8602    0.4028   26.3801 F   0  0  0  0  0  0  0  0  0  0  0  0
  -25.5436    1.6041   27.3823 F   0  0  0  0  0  0  0  0  0  0  0  0
  -25.2379   -0.5488   27.4310 F   0  0  0  0  0  0  0  0  0  0  0  0
  -29.4584   -2.0281   30.2335 C   0  0  0  0  0  0  0  0  0  0  0  0
  -30.5237   -1.8823   29.8670 O   0  0  0  0  0  0  0  0  0  0  0  0
  -29.0017   -3.0709   30.8831 O   0  0  0  0  0  0  0  0  0  0  0  0
  -27.2759    2.1747   31.8409 C   0  0  0  0  0  0  0  0  0  0  0  0
  -27.5950    3.2105   31.8314 N   0  0  0  0  0  0  0  0  0  0  0  0
  -28.2101    3.9425   31.2305 C   0  0  0  0  0  0  0  0  0  0  0  0
  -28.9841    3.4526   30.2626 C   0  0  0  0  0  0  0  0  0  0  0  0
  -29.8253    4.3844   29.4422 C   0  0  0  0  0  0  0  0  0  0  0  0
  -30.6562    3.8342   28.4969 C   0  0  0  0  0  0  0  0  0  0  0  0
  -30.6497    2.4597   28.2451 C   0  0  0  0  0  0  0  0  0  0  0  0
  -29.8953    1.6280   29.0928 C   0  0  0  0  0  0  0  0  0  0  0  0
  3  7  1  0
  7  8  1  0
  7  9  1  0
  7 10  1  0
  2 11  1  0
 11 12  1  0
 11 13  2  0
  6 14  1  0
 14 15  1  0
 15 16  1  0
 16 17  2  3
 17 18  1  0
 18 19  2  3
 19 20  1  0
 20 21  2  0
  1  2  2  0
  2  5  1  0
  5  6  2  0
  6  4  1  0
  4  3  2  0
  3  1  1  0
M  END

$$$$
