No_2467-gen_results/8p0m/2024-11-26-14-13-15/
     RDKit          3D

 12 13  0  0  0  0  0  0  0  0999 V2000
  -28.1229   -1.3353   28.4874 O   0  0  0  0  0  0  0  0  0  0  0  0
  -27.4806   -0.4044   28.7094 C   0  0  0  0  0  0  0  0  0  0  0  0
  -26.3804   -0.0867   27.9394 C   0  0  0  0  0  0  0  0  0  0  0  0
  -27.4232    0.1749   30.0549 N   0  0  0  0  0  0  0  0  0  0  0  0
  -25.8482    1.0048   27.9942 C   0  0  0  0  0  0  0  0  0  0  0  0
  -24.7535    1.5238   27.1444 C   0  0  0  0  0  0  0  0  0  0  0  0
  -23.8637    2.5487   27.5414 C   0  0  0  0  0  0  0  0  0  0  0  0
  -26.6965    1.3093   30.2824 C   0  0  0  0  0  0  0  0  0  0  0  0
  -25.7549    1.8161   29.2767 C   0  0  0  0  0  0  0  0  0  0  0  0
  -24.1164    3.2268   28.6574 C   0  0  0  0  0  0  0  0  0  0  0  0
  -24.9553    2.8772   29.5571 C   0  0  0  0  0  0  0  0  0  0  0  0
  -28.4417   -0.3150   30.9748 C   0  0  0  0  0  0  0  0  0  0  0  0
  1  2  2  0
  2  3  1  0
  2  4  1  0
  4  8  1  0
  4 12  1  0
  3  5  1  0
  9  8  1  0
  5  6  2  0
  6  7  1  0
  7 10  2  0
 10 11  1  0
 11  9  2  0
  9  5  1  0
M  END

$$$$
