No_2469-gen_results/8p0m/2024-11-26-14-13-15/
     RDKit          3D

 14 14  0  0  0  0  0  0  0  0999 V2000
  -28.0162   -0.8135   28.8779 C   0  0  0  0  0  0  0  0  0  0  0  0
  -28.4690   -0.7850   29.8287 C   0  0  0  0  0  0  0  0  0  0  0  0
  -26.5455   -0.8762   28.8500 C   0  0  0  0  0  0  0  0  0  0  0  0
  -25.8041   -1.0324   30.0571 C   0  0  0  0  0  0  0  0  0  0  0  0
  -26.5373   -1.0386   31.2171 C   0  0  0  0  0  0  0  0  0  0  0  0
  -27.8843   -0.9532   31.1862 C   0  0  0  0  0  0  0  0  0  0  0  0
  -23.9630   -1.1368   30.0387 Br  0  0  0  0  0  0  0  0  0  0  0  0
  -30.0682   -0.6350   29.7407 C   0  0  0  0  0  0  0  0  0  0  0  0
  -30.6138    0.3003   30.4017 O   0  0  0  0  0  0  0  0  0  0  0  0
  -30.6672   -1.4548   29.0837 O   0  0  0  0  0  0  0  0  0  0  0  0
  -25.5008   -0.7741   27.3338 P   0  0  0  0  0  0  0  0  0  0  0  0
  -24.2514   -0.3578   27.8235 O   0  0  0  0  0  0  0  0  0  0  0  0
  -26.1799    0.4189   26.6672 O   0  0  0  0  0  0  0  0  0  0  0  0
  -25.5749   -1.9392   26.6073 O   0  0  0  0  0  0  0  0  0  0  0  0
  4  7  1  0
  2  8  1  0
  8  9  1  0
  8 10  2  0
  3 11  1  0
 11 12  1  0
 11 13  2  0
 11 14  1  0
  1  2  2  0
  2  6  1  0
  6  5  2  0
  5  4  1  0
  4  3  2  0
  3  1  1  0
M  END

$$$$
