No_2038-gen_results/8p0m/2024-11-26-14-13-15/
     RDKit          3D

 20 21  0  0  0  0  0  0  0  0999 V2000
  -28.0162   -0.8135   28.8779 C   0  0  0  0  0  0  0  0  0  0  0  0
  -28.4690   -0.7850   29.8287 C   0  0  0  0  0  0  0  0  0  0  0  0
  -28.4333    0.3351   27.6491 Cl  0  0  0  0  0  0  0  0  0  0  0  0
  -27.9093   -1.5473   30.9293 C   0  0  0  0  0  0  0  0  0  0  0  0
  -26.8187   -2.4356   30.6847 C   0  0  0  0  0  0  0  0  0  0  0  0
  -26.2227   -2.3199   29.4371 C   0  0  0  0  0  0  0  0  0  0  0  0
  -26.7077   -1.3954   28.5891 C   0  0  0  0  0  0  0  0  0  0  0  0
  -24.9858   -3.0669   29.2000 C   0  0  0  0  0  0  0  0  0  0  0  0
  -23.8385   -2.4395   29.0781 N   0  0  0  0  0  0  0  0  0  0  0  0
  -25.0184   -4.3300   29.0790 O   0  0  0  0  0  0  0  0  0  0  0  0
  -23.5156   -1.0774   29.2943 C   0  0  0  0  0  0  0  0  0  0  0  0
  -22.2863   -0.6244   29.2797 C   0  0  0  0  0  0  0  0  0  0  0  0
  -22.0487    0.7989   29.0079 C   0  0  0  0  0  0  0  0  0  0  0  0
  -23.1160    1.6625   28.9049 C   0  0  0  0  0  0  0  0  0  0  0  0
  -24.3880    1.1135   28.8451 C   0  0  0  0  0  0  0  0  0  0  0  0
  -24.5603   -0.1988   28.9934 C   0  0  0  0  0  0  0  0  0  0  0  0
  -25.5098    2.0953   28.6739 C   0  0  0  0  0  0  0  0  0  0  0  0
  -26.5175    2.0184   28.6311 F   0  0  0  0  0  0  0  0  0  0  0  0
  -25.2332    3.0851   29.6845 F   0  0  0  0  0  0  0  0  0  0  0  0
  -25.0472    2.6049   27.5273 F   0  0  0  0  0  0  0  0  0  0  0  0
  1  3  1  0
  6  8  1  0
  8  9  1  0
  8 10  2  0
  9 11  1  0
 15 17  1  0
 17 18  1  0
 17 19  1  0
 17 20  1  0
 11 12  2  0
 12 13  1  0
 13 14  2  0
 14 15  1  0
 15 16  2  0
 16 11  1  0
  1  2  2  0
  2  4  1  0
  4  5  2  0
  5  6  1  0
  6  7  2  0
  7  1  1  0
M  END

$$$$
