No_244-gen_results/8p0m/2024-11-26-14-13-15/
     RDKit          3D

 18 20  0  0  0  0  0  0  0  0999 V2000
  -28.0162   -0.8135   28.8779 C   0  0  0  0  0  0  0  0  0  0  0  0
  -28.4690   -0.7850   29.8287 C   0  0  0  0  0  0  0  0  0  0  0  0
  -27.1356    0.2359   28.5352 C   0  0  0  0  0  0  0  0  0  0  0  0
  -26.3351    0.2900   27.2835 C   0  0  0  0  0  0  0  0  0  0  0  0
  -28.3692    0.1957   30.9236 C   0  0  0  0  0  0  0  0  0  0  0  0
  -27.5158    1.2655   30.6540 C   0  0  0  0  0  0  0  0  0  0  0  0
  -26.8411    1.2942   29.4761 C   0  0  0  0  0  0  0  0  0  0  0  0
  -25.3614    0.7751   26.9672 C   0  0  0  0  0  0  0  0  0  0  0  0
  -24.5345    1.1332   27.4189 C   0  0  0  0  0  0  0  0  0  0  0  0
  -23.3042    1.8381   26.9053 C   0  0  0  0  0  0  0  0  0  0  0  0
  -22.1944    2.2796   27.6897 C   0  0  0  0  0  0  0  0  0  0  0  0
  -22.1299    1.3793   28.8008 C   0  0  0  0  0  0  0  0  0  0  0  0
  -23.0741    0.6917   29.4247 C   0  0  0  0  0  0  0  0  0  0  0  0
  -24.1585    0.4586   28.8031 C   0  0  0  0  0  0  0  0  0  0  0  0
  -25.2482    0.9773   25.3758 C   0  0  0  0  0  0  0  0  0  0  0  0
  -23.3911    2.3281   25.6271 C   0  0  0  0  0  0  0  0  0  0  0  0
  -24.3546    1.7900   24.8631 C   0  0  0  0  0  0  0  0  0  0  0  0
  -27.2731   -0.3797   26.3936 O   0  0  0  0  0  0  0  0  0  0  0  0
  3  4  1  0
  4  8  1  0
  4 18  2  0
 10 11  2  0
 11 12  1  0
 12 13  2  0
 13 14  1  0
 14  9  2  0
  8  9  1  0
  9 10  1  0
 10 16  1  0
 16 17  2  0
 17 15  1  0
 15  8  2  0
  1  2  2  0
  2  5  1  0
  5  6  2  0
  6  7  1  0
  7  3  2  0
  3  1  1  0
M  END

$$$$
