No_2508-gen_results/8p0m/2024-11-26-14-13-15/
     RDKit          3D

 24 26  0  0  0  0  0  0  0  0999 V2000
  -28.0162   -0.8135   28.8779 C   0  0  0  0  0  0  0  0  0  0  0  0
  -27.0636   -0.1189   28.6079 C   0  0  0  0  0  0  0  0  0  0  0  0
  -26.9716    0.7139   27.5060 C   0  0  0  0  0  0  0  0  0  0  0  0
  -28.1053    0.7744   26.6421 C   0  0  0  0  0  0  0  0  0  0  0  0
  -29.2008    0.1044   27.0527 C   0  0  0  0  0  0  0  0  0  0  0  0
  -29.2096   -0.6029   28.1853 C   0  0  0  0  0  0  0  0  0  0  0  0
  -30.3702    0.2264   26.1604 C   0  0  0  0  0  0  0  0  0  0  0  0
  -30.9870    1.1892   26.1601 O   0  0  0  0  0  0  0  0  0  0  0  0
  -30.8551   -0.9345   25.7613 O   0  0  0  0  0  0  0  0  0  0  0  0
  -25.6964   -0.2125   29.4271 C   0  0  0  0  0  0  0  0  0  0  0  0
  -24.5388    0.0898   28.9222 C   0  0  0  0  0  0  0  0  0  0  0  0
  -23.3128   -0.0090   29.6340 C   0  0  0  0  0  0  0  0  0  0  0  0
  -23.3717   -0.6317   30.8905 C   0  0  0  0  0  0  0  0  0  0  0  0
  -24.5938   -0.9756   31.4709 C   0  0  0  0  0  0  0  0  0  0  0  0
  -25.7832   -0.8477   30.7266 C   0  0  0  0  0  0  0  0  0  0  0  0
  -22.0793    0.3914   29.0462 C   0  0  0  0  0  0  0  0  0  0  0  0
  -22.0063    1.3208   28.1335 N   0  0  0  0  0  0  0  0  0  0  0  0
  -21.0026   -0.3357   29.1990 O   0  0  0  0  0  0  0  0  0  0  0  0
  -22.9920    2.2785   27.7870 C   0  0  0  0  0  0  0  0  0  0  0  0
  -23.6791    2.1106   26.6055 C   0  0  0  0  0  0  0  0  0  0  0  0
  -24.5724    3.1105   26.1548 C   0  0  0  0  0  0  0  0  0  0  0  0
  -24.8576    4.2286   27.0307 C   0  0  0  0  0  0  0  0  0  0  0  0
  -24.4931    4.1813   28.3259 C   0  0  0  0  0  0  0  0  0  0  0  0
  -23.4664    3.2515   28.7246 C   0  0  0  0  0  0  0  0  0  0  0  0
  5  7  1  0
  7  8  2  0
  7  9  1  0
  2 10  1  0
 12 16  1  0
 16 17  2  3
 16 18  1  0
 17 19  1  0
  1  2  2  0
  2  3  1  0
  3  4  2  0
  4  5  1  0
  5  6  2  0
  6  1  1  0
 10 11  2  0
 11 12  1  0
 12 13  2  0
 13 14  1  0
 14 15  2  0
 15 10  1  0
 19 20  2  0
 20 21  1  0
 21 22  2  0
 22 23  1  0
 23 24  2  0
 24 19  1  0
M  END

$$$$
