No_2600-gen_results/8p0m/2024-11-26-14-13-15/
     RDKit          3D

 17 18  0  0  0  0  0  0  0  0999 V2000
  -28.1146   -0.6256   29.0813 Br  0  0  0  0  0  0  0  0  0  0  0  0
  -27.4917    0.8142   29.3550 C   0  0  0  0  0  0  0  0  0  0  0  0
  -27.5451    1.4114   30.5533 C   0  0  0  0  0  0  0  0  0  0  0  0
  -26.7125    1.5072   28.2957 C   0  0  0  0  0  0  0  0  0  0  0  0
  -26.0888    2.7652   28.5655 C   0  0  0  0  0  0  0  0  0  0  0  0
  -26.9140    2.7295   30.8395 C   0  0  0  0  0  0  0  0  0  0  0  0
  -26.2244    3.3609   29.8484 C   0  0  0  0  0  0  0  0  0  0  0  0
  -25.3501    3.4451   27.5291 C   0  0  0  0  0  0  0  0  0  0  0  0
  -25.5294    4.6473   27.2121 N   0  0  0  0  0  0  0  0  0  0  0  0
  -24.6790    2.7121   26.6511 O   0  0  0  0  0  0  0  0  0  0  0  0
  -26.2148    5.6078   28.0621 C   0  0  0  0  0  0  0  0  0  0  0  0
  -25.9332    6.9538   27.6127 C   0  0  0  0  0  0  0  0  0  0  0  0
  -24.9408    7.1387   26.6343 C   0  0  0  0  0  0  0  0  0  0  0  0
  -24.6739    8.5347   26.2311 C   0  0  0  0  0  0  0  0  0  0  0  0
  -25.3991    9.5172   26.7936 C   0  0  0  0  0  0  0  0  0  0  0  0
  -26.3698    9.3334   27.7458 C   0  0  0  0  0  0  0  0  0  0  0  0
  -26.5997    8.0292   28.1780 C   0  0  0  0  0  0  0  0  0  0  0  0
  1  2  1  0
  5  8  1  0
  8  9  1  0
  8 10  2  0
  9 11  1  0
 11 12  1  0
 12 13  2  0
 13 14  1  0
 14 15  2  0
 15 16  1  0
 16 17  2  0
 17 12  1  0
  2  3  2  0
  3  6  1  0
  6  7  2  0
  7  5  1  0
  5  4  2  0
  4  2  1  0
M  END

$$$$
