No_2793-gen_results/8p0m/2024-11-26-14-13-15/
     RDKit          3D

 18 20  0  0  0  0  0  0  0  0999 V2000
  -28.0162   -0.8135   28.8779 C   0  0  0  0  0  0  0  0  0  0  0  0
  -28.4690   -0.7850   29.8287 C   0  0  0  0  0  0  0  0  0  0  0  0
  -26.5042   -0.7777   28.8766 C   0  0  0  0  0  0  0  0  0  0  0  0
  -25.7819   -0.0917   28.0078 N   0  0  0  0  0  0  0  0  0  0  0  0
  -24.4684    0.0474   28.1024 C   0  0  0  0  0  0  0  0  0  0  0  0
  -23.7690   -0.7933   29.0032 C   0  0  0  0  0  0  0  0  0  0  0  0
  -25.7130   -1.4733   29.8687 C   0  0  0  0  0  0  0  0  0  0  0  0
  -24.3812   -1.4503   29.9722 C   0  0  0  0  0  0  0  0  0  0  0  0
  -28.1815   -1.8518   30.9145 C   0  0  0  0  0  0  0  0  0  0  0  0
  -26.6071   -2.0113   30.9491 N   0  0  0  0  0  0  0  0  0  0  0  0
  -26.3338    0.5793   26.8641 C   0  0  0  0  0  0  0  0  0  0  0  0
  -25.7439    0.8049   25.7760 C   0  0  0  0  0  0  0  0  0  0  0  0
  -24.2695    1.1315   25.9385 C   0  0  0  0  0  0  0  0  0  0  0  0
  -23.6145    0.5782   27.0149 C   0  0  0  0  0  0  0  0  0  0  0  0
  -30.1181   -0.9578   29.7716 C   0  0  0  0  0  0  0  0  0  0  0  0
  -30.7611   -1.6715   30.1797 O   0  0  0  0  0  0  0  0  0  0  0  0
  -30.6384    0.2152   29.3623 O   0  0  0  0  0  0  0  0  0  0  0  0
  -22.2363   -0.7128   29.1030 C   0  0  0  0  0  0  0  0  0  0  0  0
  3  4  1  0
  4  5  1  0
  6  8  1  0
  7  8  1  0
  4 11  1  0
 12 13  1  0
  5 14  1  0
 13 14  1  0
  2 15  1  0
 15 16  1  0
 15 17  2  0
  6 18  1  0
  6  5  1  0
 12 11  1  0
  1  2  2  0
  2  9  1  0
  9 10  2  0
 10  7  1  0
  7  3  2  0
  3  1  1  0
M  END

$$$$
