No_2005-gen_results/8p0m/2024-11-26-14-13-15/
     RDKit          3D

 15 17  0  0  0  0  0  0  0  0999 V2000
  -28.0162   -0.8135   28.8779 C   0  0  0  0  0  0  0  0  0  0  0  0
  -28.4690   -0.7850   29.8287 C   0  0  0  0  0  0  0  0  0  0  0  0
  -28.1960    0.3478   28.0550 C   0  0  0  0  0  0  0  0  0  0  0  0
  -27.4421    0.5100   26.7946 C   0  0  0  0  0  0  0  0  0  0  0  0
  -26.1689   -0.0794   26.6787 C   0  0  0  0  0  0  0  0  0  0  0  0
  -25.7312   -0.9607   27.6875 C   0  0  0  0  0  0  0  0  0  0  0  0
  -26.5043   -1.2222   28.7582 C   0  0  0  0  0  0  0  0  0  0  0  0
  -29.6164   -0.3573   30.1420 N   0  0  0  0  0  0  0  0  0  0  0  0
  -29.4473    0.8619   28.1473 C   0  0  0  0  0  0  0  0  0  0  0  0
  -30.1604    0.5785   29.2913 C   0  0  0  0  0  0  0  0  0  0  0  0
  -25.9067   -2.2467   29.7029 C   0  0  0  0  0  0  0  0  0  0  0  0
  -24.6762   -2.7777   29.4373 C   0  0  0  0  0  0  0  0  0  0  0  0
  -23.8068   -2.2214   28.5195 C   0  0  0  0  0  0  0  0  0  0  0  0
  -24.3102   -1.3351   27.5942 C   0  0  0  0  0  0  0  0  0  0  0  0
  -25.2418    0.3007   25.3163 Cl  0  0  0  0  0  0  0  0  0  0  0  0
  3  4  1  0
  4  5  1  0
  5  6  1  0
  1  7  1  0
  5 15  1  0
  1  2  2  0
  2  8  1  0
  8 10  2  0
 10  9  1  0
  9  3  2  0
  3  1  1  0
  6  7  2  0
  7 11  1  0
 11 12  2  0
 12 13  1  0
 13 14  2  0
 14  6  1  0
M  END

$$$$
