No_289-gen_results/8p0m/2024-11-26-14-13-15/
     RDKit          3D

 21 23  0  0  0  0  0  0  0  0999 V2000
  -28.0162   -0.8135   28.8779 C   0  0  0  0  0  0  0  0  0  0  0  0
  -27.0636   -0.1190   28.6079 C   0  0  0  0  0  0  0  0  0  0  0  0
  -25.7923   -0.4302   29.0761 C   0  0  0  0  0  0  0  0  0  0  0  0
  -24.5456    0.3494   28.8225 C   0  0  0  0  0  0  0  0  0  0  0  0
  -23.2409    0.0217   29.3323 C   0  0  0  0  0  0  0  0  0  0  0  0
  -22.1362    0.7695   29.0059 C   0  0  0  0  0  0  0  0  0  0  0  0
  -27.9050   -1.8984   29.8729 C   0  0  0  0  0  0  0  0  0  0  0  0
  -26.6795   -2.3145   30.3184 C   0  0  0  0  0  0  0  0  0  0  0  0
  -25.5203   -1.5564   29.9775 C   0  0  0  0  0  0  0  0  0  0  0  0
  -22.1253    1.7361   28.0244 C   0  0  0  0  0  0  0  0  0  0  0  0
  -24.5436    1.3861   27.7916 C   0  0  0  0  0  0  0  0  0  0  0  0
  -23.3374    2.0469   27.4517 C   0  0  0  0  0  0  0  0  0  0  0  0
  -29.0599   -2.7170   30.2888 C   0  0  0  0  0  0  0  0  0  0  0  0
  -28.9656   -4.0144   30.4464 N   0  0  0  0  0  0  0  0  0  0  0  0
  -30.0272   -4.8678   30.2366 C   0  0  0  0  0  0  0  0  0  0  0  0
  -30.7375   -4.8304   29.1080 C   0  0  0  0  0  0  0  0  0  0  0  0
  -31.5651   -5.9582   28.7723 C   0  0  0  0  0  0  0  0  0  0  0  0
  -31.7114   -7.0128   29.6635 C   0  0  0  0  0  0  0  0  0  0  0  0
  -30.0598   -6.1030   31.0620 C   0  0  0  0  0  0  0  0  0  0  0  0
  -30.9156   -7.0394   30.8493 C   0  0  0  0  0  0  0  0  0  0  0  0
  -30.1741   -2.1599   30.4047 O   0  0  0  0  0  0  0  0  0  0  0  0
  3  4  1  0
  7 13  1  0
 13 14  1  0
 14 15  1  0
 13 21  2  0
 15 16  2  0
 16 17  1  0
 17 18  2  0
 18 20  1  0
 20 19  2  0
 19 15  1  0
  1  2  2  0
  2  3  1  0
  3  9  2  0
  9  8  1  0
  8  7  2  0
  7  1  1  0
  4  5  2  0
  5  6  1  0
  6 10  2  0
 10 12  1  0
 12 11  2  0
 11  4  1  0
M  END

$$$$
