No_2180-gen_results/8p0m/2024-11-26-14-13-15/
     RDKit          3D

 22 23  0  0  0  0  0  0  0  0999 V2000
  -28.0162   -0.8135   28.8779 C   0  0  0  0  0  0  0  0  0  0  0  0
  -28.4690   -0.7850   29.8287 C   0  0  0  0  0  0  0  0  0  0  0  0
  -26.5455   -0.8762   28.8500 C   0  0  0  0  0  0  0  0  0  0  0  0
  -25.8041   -1.0324   30.0571 C   0  0  0  0  0  0  0  0  0  0  0  0
  -26.5373   -1.0386   31.2171 C   0  0  0  0  0  0  0  0  0  0  0  0
  -27.8929   -0.9601   31.1743 C   0  0  0  0  0  0  0  0  0  0  0  0
  -25.8272   -0.8507   27.7418 F   0  0  0  0  0  0  0  0  0  0  0  0
  -28.7965   -0.9472   32.6498 Cl  0  0  0  0  0  0  0  0  0  0  0  0
  -24.3497   -1.1441   30.0645 C   0  0  0  0  0  0  0  0  0  0  0  0
  -23.6688    0.0955   29.9811 C   0  0  0  0  0  0  0  0  0  0  0  0
  -23.3440    0.7219   28.8030 C   0  0  0  0  0  0  0  0  0  0  0  0
  -23.7181    1.9510   28.4136 C   0  0  0  0  0  0  0  0  0  0  0  0
  -23.2278    2.4293   27.1225 C   0  0  0  0  0  0  0  0  0  0  0  0
  -22.3055    1.6455   26.4685 C   0  0  0  0  0  0  0  0  0  0  0  0
  -21.7342    0.6552   27.1077 C   0  0  0  0  0  0  0  0  0  0  0  0
  -22.1844    0.1136   28.2609 C   0  0  0  0  0  0  0  0  0  0  0  0
  -24.8525    2.6682   29.0340 C   0  0  0  0  0  0  0  0  0  0  0  0
  -25.3461    3.6397   28.5858 O   0  0  0  0  0  0  0  0  0  0  0  0
  -25.1434    2.3344   30.2845 O   0  0  0  0  0  0  0  0  0  0  0  0
  -26.3451    2.8831   30.8155 C   0  0  0  0  0  0  0  0  0  0  0  0
  -27.3809    2.9533   30.0378 C   0  0  0  0  0  0  0  0  0  0  0  0
  -27.2504    3.1381   28.7691 C   0  0  0  0  0  0  0  0  0  0  0  0
  3  7  1  0
  6  8  1  0
  4  9  1  0
  9 10  1  0
 10 11  1  0
 12 17  1  0
 17 18  2  0
 17 19  1  0
 19 20  1  0
 20 21  1  0
 21 22  1  0
 11 12  2  0
 12 13  1  0
 13 14  2  0
 14 15  1  0
 15 16  2  0
 16 11  1  0
  1  2  2  0
  2  6  1  0
  6  5  2  0
  5  4  1  0
  4  3  2  0
  3  1  1  0
M  END

$$$$
