No_210-gen_results/8p0m/2024-11-26-14-13-15/
     RDKit          3D

 21 21  0  0  0  0  0  0  0  0999 V2000
  -28.0162   -0.8135   28.8779 C   0  0  0  0  0  0  0  0  0  0  0  0
  -27.0636   -0.1189   28.6079 C   0  0  0  0  0  0  0  0  0  0  0  0
  -25.7923   -0.4302   29.0761 C   0  0  0  0  0  0  0  0  0  0  0  0
  -24.5456    0.3494   28.8225 C   0  0  0  0  0  0  0  0  0  0  0  0
  -24.6586    1.4196   27.8878 C   0  0  0  0  0  0  0  0  0  0  0  0
  -25.9471    1.6811   27.3792 C   0  0  0  0  0  0  0  0  0  0  0  0
  -27.0439    0.9739   27.6871 C   0  0  0  0  0  0  0  0  0  0  0  0
  -27.9736   -1.7264   29.9612 N   0  0  0  0  0  0  0  0  0  0  0  0
  -29.2056   -0.3437   28.7182 O   0  0  0  0  0  0  0  0  0  0  0  0
  -29.0548   -2.5141   30.5112 C   0  0  0  0  0  0  0  0  0  0  0  0
  -23.4537    2.1668   27.6108 C   0  0  0  0  0  0  0  0  0  0  0  0
  -23.4808    3.1527   26.9330 O   0  0  0  0  0  0  0  0  0  0  0  0
  -22.1915    1.5503   27.7474 O   0  0  0  0  0  0  0  0  0  0  0  0
  -29.3134   -2.1069   31.7451 C   0  0  0  0  0  0  0  0  0  0  0  0
  -30.2117   -3.0769   32.4789 C   0  0  0  0  0  0  0  0  0  0  0  0
  -30.3803   -4.2260   31.8926 C   0  0  0  0  0  0  0  0  0  0  0  0
  -29.2424   -3.8732   30.3335 C   0  0  0  0  0  0  0  0  0  0  0  0
  -29.0890   -4.7339   29.5229 O   0  0  0  0  0  0  0  0  0  0  0  0
  -28.4077   -4.0421   31.2281 O   0  0  0  0  0  0  0  0  0  0  0  0
  -31.7739   -4.3177   31.3278 C   0  0  0  0  0  0  0  0  0  0  0  0
  -29.9290   -5.3784   32.4485 C   0  0  0  0  0  0  0  0  0  0  0  0
  1  2  1  0
  1  8  1  0
  1  9  2  0
  8 10  1  0
  5 11  1  0
 11 12  2  0
 11 13  1  0
 10 14  1  0
 14 15  1  0
 15 16  2  3
 10 17  1  0
 17 18  2  0
 17 19  1  0
 16 20  1  0
 16 21  1  0
  2  3  2  0
  3  4  1  0
  4  5  2  0
  5  6  1  0
  6  7  2  0
  7  2  1  0
M  END

$$$$
