No_214-gen_results/8p0m/2024-11-26-14-13-15/
     RDKit          3D

 13 14  0  0  0  0  0  0  0  0999 V2000
  -28.0162   -0.8135   28.8779 C   0  0  0  0  0  0  0  0  0  0  0  0
  -28.4690   -0.7850   29.8287 C   0  0  0  0  0  0  0  0  0  0  0  0
  -27.1356    0.2359   28.5352 C   0  0  0  0  0  0  0  0  0  0  0  0
  -26.8745    1.2825   29.3982 C   0  0  0  0  0  0  0  0  0  0  0  0
  -27.5070    1.2380   30.6295 C   0  0  0  0  0  0  0  0  0  0  0  0
  -28.3293    0.1745   30.9350 C   0  0  0  0  0  0  0  0  0  0  0  0
  -26.3848    0.5209   27.2533 C   0  0  0  0  0  0  0  0  0  0  0  0
  -25.1527    0.6094   27.2133 C   0  0  0  0  0  0  0  0  0  0  0  0
  -24.4684    1.3588   28.2443 C   0  0  0  0  0  0  0  0  0  0  0  0
  -24.8748    1.7416   29.2455 C   0  0  0  0  0  0  0  0  0  0  0  0
  -25.2829    2.1346   30.5023 C   0  0  0  0  0  0  0  0  0  0  0  0
  -25.5396    1.4969   29.9747 C   0  0  0  0  0  0  0  0  0  0  0  0
  -24.9490    0.1436   30.7217 C   0  0  0  0  0  0  0  0  0  0  0  0
  3  7  1  0
  7  8  1  0
  8  9  2  3
  9 10  1  0
 10 11  2  3
  4 12  1  0
 11 12  1  0
 12 13  1  0
  1  2  2  0
  2  6  1  0
  6  5  2  0
  5  4  1  0
  4  3  2  0
  3  1  1  0
M  END

$$$$
