No_2616-gen_results/8p0m/2024-11-26-14-13-15/
     RDKit          3D

 29 30  0  0  0  0  0  0  0  0999 V2000
  -28.0162   -0.8135   28.8779 C   0  0  0  0  0  0  0  0  0  0  0  0
  -27.0636   -0.1189   28.6079 C   0  0  0  0  0  0  0  0  0  0  0  0
  -25.7923   -0.4302   29.0761 C   0  0  0  0  0  0  0  0  0  0  0  0
  -24.5456    0.3494   28.8225 C   0  0  0  0  0  0  0  0  0  0  0  0
  -23.2409    0.0217   29.3323 C   0  0  0  0  0  0  0  0  0  0  0  0
  -27.8820   -1.8995   29.8633 C   0  0  0  0  0  0  0  0  0  0  0  0
  -26.6706   -2.3272   30.3212 C   0  0  0  0  0  0  0  0  0  0  0  0
  -25.5433   -1.5852   29.9316 C   0  0  0  0  0  0  0  0  0  0  0  0
  -22.1918    0.8302   29.0004 C   0  0  0  0  0  0  0  0  0  0  0  0
  -22.1472    1.7783   28.0287 C   0  0  0  0  0  0  0  0  0  0  0  0
  -24.5322    1.3987   27.8163 C   0  0  0  0  0  0  0  0  0  0  0  0
  -23.3620    2.0694   27.4607 C   0  0  0  0  0  0  0  0  0  0  0  0
  -29.0617   -2.7252   30.3001 C   0  0  0  0  0  0  0  0  0  0  0  0
  -29.0044   -3.9353   30.2807 O   0  0  0  0  0  0  0  0  0  0  0  0
  -30.1563   -2.1003   30.7402 N   0  0  0  0  0  0  0  0  0  0  0  0
  -31.3157   -2.8766   31.1792 C   0  0  0  0  0  0  0  0  0  0  0  0
  -30.2485   -0.6680   30.8912 C   0  0  0  0  0  0  0  0  0  0  0  0
  -30.4081   -0.2701   32.2815 C   0  0  0  0  0  0  0  0  0  0  0  0
  -29.6283   -0.6693   33.1302 C   0  0  0  0  0  0  0  0  0  0  0  0
  -28.3661   -1.0515   33.0071 C   0  0  0  0  0  0  0  0  0  0  0  0
  -27.4340   -1.2673   34.1285 C   0  0  0  0  0  0  0  0  0  0  0  0
  -28.1891   -1.5485   35.6212 Cl  0  0  0  0  0  0  0  0  0  0  0  0
  -26.4851   -0.2404   34.3031 N   0  0  0  0  0  0  0  0  0  0  0  0
  -26.0130    0.3888   33.1626 C   0  0  0  0  0  0  0  0  0  0  0  0
  -25.9606    1.8351   33.2414 C   0  0  0  0  0  0  0  0  0  0  0  0
  -25.3243    2.5651   32.1427 C   0  0  0  0  0  0  0  0  0  0  0  0
  -25.4326    3.9395   32.0232 C   0  0  0  0  0  0  0  0  0  0  0  0
  -25.9885    4.7093   33.0568 C   0  0  0  0  0  0  0  0  0  0  0  0
  -26.5943    4.0175   34.1204 C   0  0  0  0  0  0  0  0  0  0  0  0
  3  4  1  0
  6 13  1  0
 13 14  2  0
 13 15  1  0
 15 16  1  0
 15 17  1  0
 17 18  2  3
 18 19  1  0
 19 20  2  3
 20 21  1  0
 21 22  1  0
 21 23  1  0
 23 24  1  0
 24 25  2  3
 25 26  1  0
 26 27  2  3
 27 28  1  0
 28 29  2  0
  1  2  2  0
  2  3  1  0
  3  8  2  0
  8  7  1  0
  7  6  2  0
  6  1  1  0
  4  5  2  0
  5  9  1  0
  9 10  2  0
 10 12  1  0
 12 11  2  0
 11  4  1  0
M  END

$$$$
