No_2610-gen_results/8p0m/2024-11-26-14-13-15/
     RDKit          3D

 35 38  0  0  0  0  0  0  0  0999 V2000
  -28.0162   -0.8135   28.8779 C   0  0  0  0  0  0  0  0  0  0  0  0
  -28.4690   -0.7850   29.8287 C   0  0  0  0  0  0  0  0  0  0  0  0
  -26.5042   -0.7777   28.8766 C   0  0  0  0  0  0  0  0  0  0  0  0
  -25.6540   -0.6597   27.7191 C   0  0  0  0  0  0  0  0  0  0  0  0
  -27.9180   -0.9374   31.1824 C   0  0  0  0  0  0  0  0  0  0  0  0
  -26.5424   -0.9399   31.2606 C   0  0  0  0  0  0  0  0  0  0  0  0
  -25.7832   -0.8935   30.1201 C   0  0  0  0  0  0  0  0  0  0  0  0
  -25.2204    0.6866   27.3939 C   0  0  0  0  0  0  0  0  0  0  0  0
  -25.3030    1.0787   26.0731 C   0  0  0  0  0  0  0  0  0  0  0  0
  -23.8499    1.0484   27.8926 C   0  0  0  0  0  0  0  0  0  0  0  0
  -23.3554    0.8269   29.1255 C   0  0  0  0  0  0  0  0  0  0  0  0
  -23.4272    2.3938   27.2987 C   0  0  0  0  0  0  0  0  0  0  0  0
  -23.6612    2.7255   25.9985 C   0  0  0  0  0  0  0  0  0  0  0  0
  -24.7787    2.1801   25.4460 C   0  0  0  0  0  0  0  0  0  0  0  0
  -23.6658    1.2073   30.2404 O   0  0  0  0  0  0  0  0  0  0  0  0
  -22.2401   -0.1579   29.0764 N   0  0  0  0  0  0  0  0  0  0  0  0
  -21.6091   -0.6663   27.9701 C   0  0  0  0  0  0  0  0  0  0  0  0
  -26.0701    1.8450   28.1501 C   0  0  0  0  0  0  0  0  0  0  0  0
  -26.3121    3.0749   27.5421 C   0  0  0  0  0  0  0  0  0  0  0  0
  -27.0892    3.9875   28.4063 C   0  0  0  0  0  0  0  0  0  0  0  0
  -27.3020    3.7491   29.6451 C   0  0  0  0  0  0  0  0  0  0  0  0
  -28.1438    4.5803   30.4944 C   0  0  0  0  0  0  0  0  0  0  0  0
  -28.6417    5.7238   29.8950 C   0  0  0  0  0  0  0  0  0  0  0  0
  -27.5190    5.2656   27.8403 C   0  0  0  0  0  0  0  0  0  0  0  0
  -28.3177    6.0802   28.6326 C   0  0  0  0  0  0  0  0  0  0  0  0
  -25.1806   -1.6194   27.2163 O   0  0  0  0  0  0  0  0  0  0  0  0
  -30.0725   -0.7060   29.8701 C   0  0  0  0  0  0  0  0  0  0  0  0
  -30.6296    0.0582   29.2764 O   0  0  0  0  0  0  0  0  0  0  0  0
  -30.6923   -1.1827   30.9099 O   0  0  0  0  0  0  0  0  0  0  0  0
  -28.4374    4.1564   31.8786 C   0  0  0  0  0  0  0  0  0  0  0  0
  -27.8679    3.0573   32.3579 C   0  0  0  0  0  0  0  0  0  0  0  0
  -28.1947    2.6269   33.6627 C   0  0  0  0  0  0  0  0  0  0  0  0
  -29.2019    3.2877   34.3679 C   0  0  0  0  0  0  0  0  0  0  0  0
  -29.8119    4.3637   33.8257 C   0  0  0  0  0  0  0  0  0  0  0  0
  -29.4634    4.8321   32.5460 C   0  0  0  0  0  0  0  0  0  0  0  0
  3  4  1  0
  4  8  1  0
  8  9  1  0
  8 10  1  0
 10 11  1  0
 10 12  1  0
 13 14  1  0
 11 15  2  0
 11 16  1  0
 16 17  1  0
  8 18  1  0
 18 19  2  3
 19 20  1  0
  4 26  2  0
  2 27  1  0
 27 28  1  0
 27 29  2  0
 22 30  1  0
  9 14  1  0
 13 12  1  0
 20 21  2  0
 21 22  1  0
 22 23  2  0
 23 25  1  0
 25 24  2  0
 24 20  1  0
 30 31  2  0
 31 32  1  0
 32 33  2  0
 33 34  1  0
 34 35  2  0
 35 30  1  0
  1  2  2  0
  2  5  1  0
  5  6  2  0
  6  7  1  0
  7  3  2  0
  3  1  1  0
M  END

$$$$
