No_2522-gen_results/8p0m/2024-11-26-14-13-15/
     RDKit          3D

  8  8  0  0  0  0  0  0  0  0999 V2000
  -28.0162   -0.8135   28.8779 C   0  0  0  0  0  0  0  0  0  0  0  0
  -27.0636   -0.1190   28.6079 C   0  0  0  0  0  0  0  0  0  0  0  0
  -27.0010    0.6913   27.4910 C   0  0  0  0  0  0  0  0  0  0  0  0
  -28.1373    0.7363   26.6350 C   0  0  0  0  0  0  0  0  0  0  0  0
  -28.1438    1.4323   25.4881 C   0  0  0  0  0  0  0  0  0  0  0  0
  -29.2800   -0.5524   28.2479 C   0  0  0  0  0  0  0  0  0  0  0  0
  -29.2552    0.0950   27.0446 C   0  0  0  0  0  0  0  0  0  0  0  0
  -28.2044    1.4987   24.4412 C   0  0  0  0  0  0  0  0  0  0  0  0
  4  5  1  0
  5  8  3  0
  1  2  2  0
  2  3  1  0
  3  4  2  0
  4  7  1  0
  7  6  2  0
  6  1  1  0
M  END

$$$$
