No_2623-gen_results/8p0m/2024-11-26-14-13-15/
     RDKit          3D

 35 37  0  0  0  0  0  0  0  0999 V2000
  -28.0162   -0.8135   28.8779 C   0  0  0  0  0  0  0  0  0  0  0  0
  -28.4690   -0.7850   29.8287 C   0  0  0  0  0  0  0  0  0  0  0  0
  -28.1816    0.4277   28.1134 C   0  0  0  0  0  0  0  0  0  0  0  0
  -28.9841    1.4155   28.5154 C   0  0  0  0  0  0  0  0  0  0  0  0
  -29.3802    0.1384   30.4612 C   0  0  0  0  0  0  0  0  0  0  0  0
  -29.5415    1.2736   29.7242 C   0  0  0  0  0  0  0  0  0  0  0  0
  -27.4586    0.4934   26.7701 C   0  0  0  0  0  0  0  0  0  0  0  0
  -26.0264    0.3840   26.7617 C   0  0  0  0  0  0  0  0  0  0  0  0
  -25.2370    0.2056   27.9261 C   0  0  0  0  0  0  0  0  0  0  0  0
  -23.8683    0.2883   27.8607 C   0  0  0  0  0  0  0  0  0  0  0  0
  -23.2742    0.9710   26.8042 C   0  0  0  0  0  0  0  0  0  0  0  0
  -24.0368    1.4183   25.7266 C   0  0  0  0  0  0  0  0  0  0  0  0
  -25.3854    1.1654   25.6866 C   0  0  0  0  0  0  0  0  0  0  0  0
  -28.1918    0.3603   25.6210 C   0  0  0  0  0  0  0  0  0  0  0  0
  -29.5007    0.4556   25.8191 F   0  0  0  0  0  0  0  0  0  0  0  0
  -27.8889   -0.7611   24.9709 F   0  0  0  0  0  0  0  0  0  0  0  0
  -27.9138    1.4157   24.7647 F   0  0  0  0  0  0  0  0  0  0  0  0
  -23.0284   -0.0157   29.0355 C   0  0  0  0  0  0  0  0  0  0  0  0
  -23.4273    0.0071   30.0899 F   0  0  0  0  0  0  0  0  0  0  0  0
  -21.8378    0.7521   28.9050 F   0  0  0  0  0  0  0  0  0  0  0  0
  -22.6073   -1.3215   28.7763 F   0  0  0  0  0  0  0  0  0  0  0  0
  -28.2851   -2.0987   30.8045 C   0  0  0  0  0  0  0  0  0  0  0  0
  -28.8423   -3.1175   30.4041 O   0  0  0  0  0  0  0  0  0  0  0  0
  -29.7771   -3.6819   31.0480 C   0  0  0  0  0  0  0  0  0  0  0  0
  -30.3409   -4.7331   30.2713 C   0  0  0  0  0  0  0  0  0  0  0  0
  -30.3822   -5.8365   30.7845 O   0  0  0  0  0  0  0  0  0  0  0  0
  -29.9866   -6.1151   31.8911 C   0  0  0  0  0  0  0  0  0  0  0  0
  -30.7697   -4.4945   28.9657 C   0  0  0  0  0  0  0  0  0  0  0  0
  -31.9970   -3.8094   28.7890 C   0  0  0  0  0  0  0  0  0  0  0  0
  -32.1233   -3.2554   27.6405 O   0  0  0  0  0  0  0  0  0  0  0  0
  -29.7486   -5.3047   32.9219 C   0  0  0  0  0  0  0  0  0  0  0  0
  -30.0898   -4.0608   32.6048 C   0  0  0  0  0  0  0  0  0  0  0  0
  -32.7801   -3.6115   29.6586 O   0  0  0  0  0  0  0  0  0  0  0  0
  -31.3546   -3.3772   32.9585 C   0  0  0  0  0  0  0  0  0  0  0  0
  -31.2069   -2.1421   33.5181 C   0  0  0  0  0  0  0  0  0  0  0  0
  3  7  1  0
  7 14  1  0
 14 15  1  0
 14 16  1  0
 14 17  1  0
 10 18  1  0
 18 19  1  0
 18 20  1  0
 18 21  1  0
  2 22  1  0
 22 23  1  0
 23 24  1  0
 24 25  1  0
 25 26  1  0
 26 27  1  0
 25 28  1  0
 28 29  1  0
 29 30  2  0
 27 31  2  0
 24 32  1  0
 31 32  1  0
 29 33  1  0
 32 34  1  0
 34 35  1  0
  7  8  1  0
  8  9  2  0
  9 10  1  0
 10 11  2  0
 11 12  1  0
 12 13  2  0
 13  8  1  0
  1  2  2  0
  2  5  1  0
  5  6  2  0
  6  4  1  0
  4  3  2  0
  3  1  1  0
M  END

$$$$
