No_2060-gen_results/8p0m/2024-11-26-14-13-15/
     RDKit          3D

 18 18  0  0  0  0  0  0  0  0999 V2000
  -28.0162   -0.8135   28.8779 C   0  0  0  0  0  0  0  0  0  0  0  0
  -28.4690   -0.7850   29.8287 C   0  0  0  0  0  0  0  0  0  0  0  0
  -27.0871    0.2903   28.6377 C   0  0  0  0  0  0  0  0  0  0  0  0
  -26.8317    1.2487   29.5869 C   0  0  0  0  0  0  0  0  0  0  0  0
  -28.3914    0.0801   31.0065 C   0  0  0  0  0  0  0  0  0  0  0  0
  -27.4940    1.1521   30.7841 C   0  0  0  0  0  0  0  0  0  0  0  0
  -26.3109    0.3918   27.3640 C   0  0  0  0  0  0  0  0  0  0  0  0
  -25.5530   -0.4068   27.2285 F   0  0  0  0  0  0  0  0  0  0  0  0
  -25.6173    1.6102   27.2977 F   0  0  0  0  0  0  0  0  0  0  0  0
  -27.1940    0.4864   26.2871 F   0  0  0  0  0  0  0  0  0  0  0  0
  -29.3442   -1.9117   30.1754 F   0  0  0  0  0  0  0  0  0  0  0  0
  -27.2819    2.1968   31.8535 C   0  0  0  0  0  0  0  0  0  0  0  0
  -26.1798    3.3597   32.1439 Br  0  0  0  0  0  0  0  0  0  0  0  0
  -28.3731    2.2230   32.9477 C   0  0  0  0  0  0  0  0  0  0  0  0
  -28.2021    2.7938   33.8782 C   0  0  0  0  0  0  0  0  0  0  0  0
  -29.0597    2.7025   35.0713 C   0  0  0  0  0  0  0  0  0  0  0  0
  -30.1655    1.9252   34.8991 C   0  0  0  0  0  0  0  0  0  0  0  0
  -30.3514    1.2307   33.7329 C   0  0  0  0  0  0  0  0  0  0  0  0
  3  7  1  0
  7  8  1  0
  7  9  1  0
  7 10  1  0
  2 11  1  0
  6 12  1  0
 12 13  1  0
 12 14  1  0
 14 15  2  3
 15 16  1  0
 16 17  2  3
 17 18  1  0
  1  2  2  0
  2  5  1  0
  5  6  2  0
  6  4  1  0
  4  3  2  0
  3  1  1  0
M  END

$$$$
