No_2743-gen_results/8p0m/2024-11-26-14-13-15/
     RDKit          3D

 23 25  0  0  0  0  0  0  0  0999 V2000
  -28.0162   -0.8135   28.8779 C   0  0  0  0  0  0  0  0  0  0  0  0
  -28.4690   -0.7850   29.8287 C   0  0  0  0  0  0  0  0  0  0  0  0
  -27.0871    0.2903   28.6377 C   0  0  0  0  0  0  0  0  0  0  0  0
  -26.8317    1.2487   29.5869 C   0  0  0  0  0  0  0  0  0  0  0  0
  -28.3914    0.0801   31.0065 C   0  0  0  0  0  0  0  0  0  0  0  0
  -27.4940    1.1521   30.7841 C   0  0  0  0  0  0  0  0  0  0  0  0
  -26.3172    0.3994   27.3653 C   0  0  0  0  0  0  0  0  0  0  0  0
  -24.9405    0.2550   27.5028 C   0  0  0  0  0  0  0  0  0  0  0  0
  -26.9129    0.5860   26.1397 C   0  0  0  0  0  0  0  0  0  0  0  0
  -28.2688    0.7168   25.9850 C   0  0  0  0  0  0  0  0  0  0  0  0
  -28.7657    0.7315   24.6860 C   0  0  0  0  0  0  0  0  0  0  0  0
  -30.1595    0.8701   24.4627 C   0  0  0  0  0  0  0  0  0  0  0  0
  -30.6691    0.9816   23.4368 C   0  0  0  0  0  0  0  0  0  0  0  0
  -24.3238   -0.4786   28.5419 C   0  0  0  0  0  0  0  0  0  0  0  0
  -23.0068   -0.1917   28.9251 C   0  0  0  0  0  0  0  0  0  0  0  0
  -22.2605    0.7183   28.1344 C   0  0  0  0  0  0  0  0  0  0  0  0
  -22.8669    1.4805   27.1487 C   0  0  0  0  0  0  0  0  0  0  0  0
  -24.1955    1.3602   26.9220 C   0  0  0  0  0  0  0  0  0  0  0  0
  -26.1663    0.6216   24.9686 C   0  0  0  0  0  0  0  0  0  0  0  0
  -31.8963    1.5925   23.1301 C   0  0  0  0  0  0  0  0  0  0  0  0
  -32.7217    1.9745   24.2300 C   0  0  0  0  0  0  0  0  0  0  0  0
  -32.2024    1.8199   25.4628 C   0  0  0  0  0  0  0  0  0  0  0  0
  -30.9414    1.3762   25.6765 C   0  0  0  0  0  0  0  0  0  0  0  0
  3  7  1  0
  7  8  1  0
  7  9  1  0
  9 10  1  0
 10 11  2  3
 11 12  1  0
  9 19  1  0
  8 14  2  0
 14 15  1  0
 15 16  2  0
 16 17  1  0
 17 18  2  0
 18  8  1  0
  1  2  2  0
  2  5  1  0
  5  6  2  0
  6  4  1  0
  4  3  2  0
  3  1  1  0
 12 13  2  0
 13 20  1  0
 20 21  2  0
 21 22  1  0
 22 23  2  0
 23 12  1  0
M  END

$$$$
