No_2266-gen_results/8p0m/2024-11-26-14-13-15/
     RDKit          3D

 15 16  0  0  0  0  0  0  0  0999 V2000
  -28.0162   -0.8135   28.8779 C   0  0  0  0  0  0  0  0  0  0  0  0
  -27.0636   -0.1190   28.6079 C   0  0  0  0  0  0  0  0  0  0  0  0
  -25.7923   -0.4302   29.0761 C   0  0  0  0  0  0  0  0  0  0  0  0
  -25.5756   -1.5654   29.9363 C   0  0  0  0  0  0  0  0  0  0  0  0
  -26.7354   -2.3004   30.2173 C   0  0  0  0  0  0  0  0  0  0  0  0
  -27.9184   -1.9537   29.7629 C   0  0  0  0  0  0  0  0  0  0  0  0
  -27.3552    1.2839   27.7056 Cl  0  0  0  0  0  0  0  0  0  0  0  0
  -29.0553   -2.8109   30.1824 C   0  0  0  0  0  0  0  0  0  0  0  0
  -29.0678   -4.3864   30.5834 Cl  0  0  0  0  0  0  0  0  0  0  0  0
  -30.3400   -2.1112   30.3472 C   0  0  0  0  0  0  0  0  0  0  0  0
  -30.5031   -1.2309   31.1161 C   0  0  0  0  0  0  0  0  0  0  0  0
  -31.8305   -0.5521   31.2145 C   0  0  0  0  0  0  0  0  0  0  0  0
  -32.7956   -1.0706   30.3731 C   0  0  0  0  0  0  0  0  0  0  0  0
  -31.3798   -2.6203   29.5349 C   0  0  0  0  0  0  0  0  0  0  0  0
  -32.5403   -2.0558   29.5200 C   0  0  0  0  0  0  0  0  0  0  0  0
  2  7  1  0
  6  8  1  0
  8  9  1  0
  8 10  1  0
  1  2  2  0
  2  3  1  0
  3  4  2  0
  4  5  1  0
  5  6  2  0
  6  1  1  0
 10 11  2  0
 11 12  1  0
 12 13  2  0
 13 15  1  0
 15 14  2  0
 14 10  1  0
M  END

$$$$
