No_2491-gen_results/8p0m/2024-11-26-14-13-15/
     RDKit          3D

 14 14  0  0  0  0  0  0  0  0999 V2000
  -28.0162   -0.8135   28.8779 C   0  0  0  0  0  0  0  0  0  0  0  0
  -28.4690   -0.7850   29.8287 C   0  0  0  0  0  0  0  0  0  0  0  0
  -28.1816    0.4277   28.1134 C   0  0  0  0  0  0  0  0  0  0  0  0
  -27.4498    0.6435   26.8500 C   0  0  0  0  0  0  0  0  0  0  0  0
  -26.1815    0.0357   26.7145 C   0  0  0  0  0  0  0  0  0  0  0  0
  -25.7800   -0.9326   27.6938 C   0  0  0  0  0  0  0  0  0  0  0  0
  -26.5568   -1.2134   28.7413 C   0  0  0  0  0  0  0  0  0  0  0  0
  -29.6747   -0.4261   29.9581 F   0  0  0  0  0  0  0  0  0  0  0  0
  -28.2540   -1.8206   30.7815 F   0  0  0  0  0  0  0  0  0  0  0  0
  -25.1413    0.3510   25.4294 Cl  0  0  0  0  0  0  0  0  0  0  0  0
  -25.8295   -2.5631   29.6208 Cl  0  0  0  0  0  0  0  0  0  0  0  0
  -27.8773    1.8322   25.7014 Cl  0  0  0  0  0  0  0  0  0  0  0  0
  -29.2205    1.0733   28.2488 O   0  0  0  0  0  0  0  0  0  0  0  0
  -29.5547    1.9342   27.3841 C   0  0  0  0  0  0  0  0  0  0  0  0
  1  2  1  0
  2  8  1  0
  2  9  1  0
  5 10  1  0
  7 11  1  0
  4 12  1  0
  3 13  1  0
 13 14  1  0
  1  3  2  0
  3  4  1  0
  4  5  2  0
  5  6  1  0
  6  7  2  0
  7  1  1  0
M  END

$$$$
