No_2992-gen_results/8p0m/2024-11-26-14-13-15/
     RDKit          3D

 26 28  0  0  0  0  0  0  0  0999 V2000
  -28.0162   -0.8135   28.8779 C   0  0  0  0  0  0  0  0  0  0  0  0
  -28.4690   -0.7850   29.8287 C   0  0  0  0  0  0  0  0  0  0  0  0
  -27.0871    0.2903   28.6377 C   0  0  0  0  0  0  0  0  0  0  0  0
  -26.2516    0.4114   27.4223 C   0  0  0  0  0  0  0  0  0  0  0  0
  -28.3913    0.1041   30.9805 C   0  0  0  0  0  0  0  0  0  0  0  0
  -27.5332    1.1666   30.7866 C   0  0  0  0  0  0  0  0  0  0  0  0
  -26.8281    1.2557   29.6454 C   0  0  0  0  0  0  0  0  0  0  0  0
  -25.7329    1.6893   27.1546 C   0  0  0  0  0  0  0  0  0  0  0  0
  -25.3981    2.5582   28.1598 C   0  0  0  0  0  0  0  0  0  0  0  0
  -26.1221    2.4683   29.3701 C   0  0  0  0  0  0  0  0  0  0  0  0
  -25.8643    3.5352   30.3766 C   0  0  0  0  0  0  0  0  0  0  0  0
  -25.1459    3.3087   31.3157 O   0  0  0  0  0  0  0  0  0  0  0  0
  -26.8320    4.5084   30.4423 N   0  0  0  0  0  0  0  0  0  0  0  0
  -26.7227    5.5328   31.5116 C   0  0  0  0  0  0  0  0  0  0  0  0
  -27.7223    4.8105   29.3724 C   0  0  0  0  0  0  0  0  0  0  0  0
  -26.1272    6.6272   31.3101 C   0  0  0  0  0  0  0  0  0  0  0  0
  -26.4226    7.6242   31.4816 C   0  0  0  0  0  0  0  0  0  0  0  0
  -26.3591    8.6224   31.2390 C   0  0  0  0  0  0  0  0  0  0  0  0
  -27.1283    9.8166   31.6766 C   0  0  0  0  0  0  0  0  0  0  0  0
  -28.0788    9.6089   32.5343 C   0  0  0  0  0  0  0  0  0  0  0  0
  -28.3068    8.3723   33.0020 C   0  0  0  0  0  0  0  0  0  0  0  0
  -27.5810    7.3760   32.5554 C   0  0  0  0  0  0  0  0  0  0  0  0
  -27.6372    5.9115   32.5775 C   0  0  0  0  0  0  0  0  0  0  0  0
  -27.6926    7.4402   33.8916 C   0  0  0  0  0  0  0  0  0  0  0  0
  -25.6341    8.4501   31.0994 C   0  0  0  0  0  0  0  0  0  0  0  0
  -26.1624    6.6640   30.9621 Cl  0  0  0  0  0  0  0  0  0  0  0  0
 10 11  1  0
 11 12  2  0
 11 13  1  0
 13 14  1  0
 13 15  1  0
 14 16  1  0
 16 17  2  3
 17 18  1  0
 18 19  1  0
 19 20  2  3
 20 21  1  0
 21 22  2  3
 14 23  1  0
 22 23  1  0
 22 24  1  0
 18 25  1  0
 16 26  1  0
  1  2  2  0
  2  5  1  0
  5  6  2  0
  6  7  1  0
  3  1  1  0
  3  4  2  0
  4  8  1  0
  8  9  2  0
  9 10  1  0
 10  7  2  0
  7  3  1  0
M  END

$$$$
