No_2069-gen_results/8p0m/2024-11-26-14-13-15/
     RDKit          3D

 18 19  0  0  0  0  0  0  0  0999 V2000
  -28.0162   -0.8135   28.8779 C   0  0  0  0  0  0  0  0  0  0  0  0
  -27.0636   -0.1189   28.6079 C   0  0  0  0  0  0  0  0  0  0  0  0
  -27.0010    0.6913   27.4910 C   0  0  0  0  0  0  0  0  0  0  0  0
  -25.8548    1.4825   27.0830 C   0  0  0  0  0  0  0  0  0  0  0  0
  -24.9008    1.3894   27.5922 C   0  0  0  0  0  0  0  0  0  0  0  0
  -24.6783    0.5764   28.8299 C   0  0  0  0  0  0  0  0  0  0  0  0
  -25.7704   -0.2051   29.2800 C   0  0  0  0  0  0  0  0  0  0  0  0
  -29.2813   -0.1474   29.2516 C   0  0  0  0  0  0  0  0  0  0  0  0
  -29.7907    0.6699   28.5881 C   0  0  0  0  0  0  0  0  0  0  0  0
  -31.0872    1.1458   28.8962 C   0  0  0  0  0  0  0  0  0  0  0  0
  -31.7357    0.5855   29.9906 C   0  0  0  0  0  0  0  0  0  0  0  0
  -30.1019   -0.7457   30.3501 C   0  0  0  0  0  0  0  0  0  0  0  0
  -31.2414   -0.3412   30.6826 C   0  0  0  0  0  0  0  0  0  0  0  0
  -23.5684    2.1354   27.2855 C   0  0  0  0  0  0  0  0  0  0  0  0
  -23.2575    3.0128   28.0194 F   0  0  0  0  0  0  0  0  0  0  0  0
  -23.7600    2.8759   26.0519 F   0  0  0  0  0  0  0  0  0  0  0  0
  -22.5235    1.3034   27.0126 F   0  0  0  0  0  0  0  0  0  0  0  0
  -27.8078   -2.0274   29.3343 O   0  0  0  0  0  0  0  0  0  0  0  0
  1  2  1  0
  1  8  1  0
  5 14  1  0
 14 15  1  0
 14 16  1  0
 14 17  1  0
  1 18  2  0
  2  3  2  0
  3  4  1  0
  4  5  2  0
  5  6  1  0
  6  7  2  0
  7  2  1  0
  8  9  2  0
  9 10  1  0
 10 11  2  0
 11 13  1  0
 13 12  2  0
 12  8  1  0
M  END

$$$$
