No_2507-gen_results/8p0m/2024-11-26-14-13-15/
     RDKit          3D

 21 24  0  0  0  0  0  0  0  0999 V2000
  -28.0162   -0.8135   28.8779 C   0  0  0  0  0  0  0  0  0  0  0  0
  -28.4690   -0.7850   29.8287 C   0  0  0  0  0  0  0  0  0  0  0  0
  -28.1816    0.4277   28.1134 C   0  0  0  0  0  0  0  0  0  0  0  0
  -28.9841    1.4155   28.5154 C   0  0  0  0  0  0  0  0  0  0  0  0
  -29.3802    0.1384   30.4612 C   0  0  0  0  0  0  0  0  0  0  0  0
  -29.5415    1.2736   29.7242 C   0  0  0  0  0  0  0  0  0  0  0  0
  -27.4586    0.4934   26.7701 C   0  0  0  0  0  0  0  0  0  0  0  0
  -26.0263    0.3840   26.7617 C   0  0  0  0  0  0  0  0  0  0  0  0
  -25.3148    0.0488   27.8701 C   0  0  0  0  0  0  0  0  0  0  0  0
  -23.9145    0.1729   27.8973 C   0  0  0  0  0  0  0  0  0  0  0  0
  -23.1341   -0.2623   29.0442 C   0  0  0  0  0  0  0  0  0  0  0  0
  -23.7601   -1.0634   29.9981 C   0  0  0  0  0  0  0  0  0  0  0  0
  -25.0969   -1.2802   29.9399 C   0  0  0  0  0  0  0  0  0  0  0  0
  -25.8364   -0.7938   28.9286 C   0  0  0  0  0  0  0  0  0  0  0  0
  -27.0941   -1.0622   29.0619 C   0  0  0  0  0  0  0  0  0  0  0  0
  -26.9706   -2.4744   29.3450 O   0  0  0  0  0  0  0  0  0  0  0  0
  -28.6506   -2.1253   30.6800 C   0  0  0  0  0  0  0  0  0  0  0  0
  -27.7568   -2.9794   30.3125 C   0  0  0  0  0  0  0  0  0  0  0  0
  -28.1561   -4.4323   29.9560 C   0  0  0  0  0  0  0  0  0  0  0  0
  -28.2385    0.6526   25.6150 C   0  0  0  0  0  0  0  0  0  0  0  0
  -27.7510    0.7446   24.5785 O   0  0  0  0  0  0  0  0  0  0  0  0
  3  7  1  0
  7  8  1  0
  8  9  1  0
  1 15  1  0
 14 15  1  0
 15 16  1  0
  2 17  1  0
 16 18  1  0
 17 18  2  0
 18 19  1  0
  7 20  1  0
 20 21  2  0
  9 10  2  0
 10 11  1  0
 11 12  2  0
 12 13  1  0
 13 14  2  0
 14  9  1  0
  1  2  1  0
  2  5  2  0
  5  6  1  0
  6  4  2  0
  4  3  1  0
  3  1  2  0
M  END

$$$$
