No_2381-gen_results/8p0m/2024-11-26-14-13-15/
     RDKit          3D

 25 26  0  0  0  0  0  0  0  0999 V2000
  -28.0162   -0.8135   28.8779 C   0  0  0  0  0  0  0  0  0  0  0  0
  -27.0636   -0.1189   28.6079 C   0  0  0  0  0  0  0  0  0  0  0  0
  -26.9716    0.7139   27.5060 C   0  0  0  0  0  0  0  0  0  0  0  0
  -25.8205    1.4909   27.1160 C   0  0  0  0  0  0  0  0  0  0  0  0
  -24.6562    1.4242   27.9180 C   0  0  0  0  0  0  0  0  0  0  0  0
  -24.6847    0.5901   29.0659 C   0  0  0  0  0  0  0  0  0  0  0  0
  -25.8099   -0.1265   29.3338 C   0  0  0  0  0  0  0  0  0  0  0  0
  -28.7093   -0.4588   30.1754 C   0  0  0  0  0  0  0  0  0  0  0  0
  -28.6702    0.3803   30.7522 O   0  0  0  0  0  0  0  0  0  0  0  0
  -29.1715   -1.6919   30.7342 O   0  0  0  0  0  0  0  0  0  0  0  0
  -23.4688    2.2085   27.6043 C   0  0  0  0  0  0  0  0  0  0  0  0
  -22.3058    2.2689   28.7476 Cl  0  0  0  0  0  0  0  0  0  0  0  0
  -23.2233    2.7183   26.4820 O   0  0  0  0  0  0  0  0  0  0  0  0
  -28.0697    0.8067   26.5532 C   0  0  0  0  0  0  0  0  0  0  0  0
  -28.9245    1.4988   26.6720 O   0  0  0  0  0  0  0  0  0  0  0  0
  -28.0440   -0.0602   25.5487 O   0  0  0  0  0  0  0  0  0  0  0  0
  -30.0108   -1.6310   31.7410 C   0  0  0  0  0  0  0  0  0  0  0  0
  -30.2706   -2.8151   32.2361 C   0  0  0  0  0  0  0  0  0  0  0  0
  -29.8047   -3.9790   31.6774 C   0  0  0  0  0  0  0  0  0  0  0  0
  -30.2200   -5.1648   31.7499 C   0  0  0  0  0  0  0  0  0  0  0  0
  -29.7329   -6.2345   30.8989 C   0  0  0  0  0  0  0  0  0  0  0  0
  -28.8387   -5.7120   29.9641 C   0  0  0  0  0  0  0  0  0  0  0  0
  -28.2896   -4.5276   29.8298 C   0  0  0  0  0  0  0  0  0  0  0  0
  -28.7953   -3.5562   30.7901 C   0  0  0  0  0  0  0  0  0  0  0  0
  -27.6145   -3.0610   31.6077 O   0  0  0  0  0  0  0  0  0  0  0  0
  1  2  2  3
  2  3  1  0
  3  4  1  0
  4  5  1  0
  5  6  1  0
  2  7  1  0
  6  7  1  0
  1  8  1  0
  8  9  2  0
  8 10  1  0
  5 11  1  0
 11 12  1  0
 11 13  2  0
  3 14  1  0
 14 15  2  0
 14 16  1  0
 10 17  1  0
 17 18  2  3
 18 19  1  0
 24 25  1  0
 19 20  2  0
 20 21  1  0
 21 22  2  0
 22 23  1  0
 23 24  2  0
 24 19  1  0
M  END

$$$$
