No_2624-gen_results/8p0m/2024-11-26-14-13-15/
     RDKit          3D

 28 30  0  0  0  0  0  0  0  0999 V2000
  -28.1229   -1.3353   28.4874 O   0  0  0  0  0  0  0  0  0  0  0  0
  -28.5208   -0.4363   29.0779 C   0  0  0  0  0  0  0  0  0  0  0  0
  -28.5894    0.5916   28.9464 C   0  0  0  0  0  0  0  0  0  0  0  0
  -29.1246   -0.9399   30.4266 N   0  0  0  0  0  0  0  0  0  0  0  0
  -29.2955    1.6366   29.4337 C   0  0  0  0  0  0  0  0  0  0  0  0
  -29.7997    0.0136   31.1592 C   0  0  0  0  0  0  0  0  0  0  0  0
  -29.8824    1.2875   30.7463 C   0  0  0  0  0  0  0  0  0  0  0  0
  -27.9295    1.0222   27.5316 C   0  0  0  0  0  0  0  0  0  0  0  0
  -26.4912    0.8903   27.4799 C   0  0  0  0  0  0  0  0  0  0  0  0
  -25.8243    0.4922   28.3786 C   0  0  0  0  0  0  0  0  0  0  0  0
  -24.3216    0.4341   28.2786 C   0  0  0  0  0  0  0  0  0  0  0  0
  -23.7621    0.9621   27.1292 C   0  0  0  0  0  0  0  0  0  0  0  0
  -24.5547    1.4591   26.1141 C   0  0  0  0  0  0  0  0  0  0  0  0
  -25.9429    1.4981   26.2623 C   0  0  0  0  0  0  0  0  0  0  0  0
  -23.4574   -0.0769   29.3366 C   0  0  0  0  0  0  0  0  0  0  0  0
  -22.2714   -0.3871   29.1441 C   0  0  0  0  0  0  0  0  0  0  0  0
  -21.5131   -0.9969   30.2247 C   0  0  0  0  0  0  0  0  0  0  0  0
  -22.2197   -1.1344   31.3856 C   0  0  0  0  0  0  0  0  0  0  0  0
  -23.8650   -0.4410   30.6931 C   0  0  0  0  0  0  0  0  0  0  0  0
  -28.9672   -2.3011   30.9093 C   0  0  0  0  0  0  0  0  0  0  0  0
  -29.6599   -3.1902   30.1225 C   0  0  0  0  0  0  0  0  0  0  0  0
  -31.0141   -3.2208   30.2625 C   0  0  0  0  0  0  0  0  0  0  0  0
  -31.3775   -3.5455   31.2202 O   0  0  0  0  0  0  0  0  0  0  0  0
  -31.6942   -2.8955   29.2322 O   0  0  0  0  0  0  0  0  0  0  0  0
  -24.9286   -0.4003   31.5052 C   0  0  0  0  0  0  0  0  0  0  0  0
  -25.6889   -1.4062   31.5086 O   0  0  0  0  0  0  0  0  0  0  0  0
  -25.2805    0.7651   32.0310 O   0  0  0  0  0  0  0  0  0  0  0  0
  -28.6753    1.4156   26.6069 O   0  0  0  0  0  0  0  0  0  0  0  0
  1  2  2  0
  2  3  1  0
  2  4  1  0
  4  6  1  0
  5  7  1  0
  3  8  1  0
  8  9  1  0
 11 15  1  0
 15 16  2  0
 16 17  1  0
 17 18  2  0
 15 19  1  0
 18 19  1  0
  4 20  1  0
 20 21  1  0
 21 22  1  0
 22 23  2  0
 22 24  1  0
 19 25  1  0
 25 26  2  0
 25 27  1  0
  8 28  2  0
  3  5  1  0
  7  6  1  0
  9 10  2  0
 10 11  1  0
 11 12  2  0
 12 13  1  0
 13 14  2  0
 14  9  1  0
M  END

$$$$
