No_2234-gen_results/8p0m/2024-11-26-14-13-15/
     RDKit          3D

 15 16  0  0  0  0  0  0  0  0999 V2000
  -28.0162   -0.8135   28.8779 C   0  0  0  0  0  0  0  0  0  0  0  0
  -27.0636   -0.1190   28.6079 C   0  0  0  0  0  0  0  0  0  0  0  0
  -27.0010    0.6913   27.4910 C   0  0  0  0  0  0  0  0  0  0  0  0
  -28.1373    0.7363   26.6350 C   0  0  0  0  0  0  0  0  0  0  0  0
  -29.2360    0.0765   27.0690 C   0  0  0  0  0  0  0  0  0  0  0  0
  -29.2177   -0.6429   28.1747 C   0  0  0  0  0  0  0  0  0  0  0  0
  -30.3516    0.1564   26.2430 N   0  0  0  0  0  0  0  0  0  0  0  0
  -31.4313   -0.4312   26.5996 C   0  0  0  0  0  0  0  0  0  0  0  0
  -31.5398   -1.0043   27.8472 C   0  0  0  0  0  0  0  0  0  0  0  0
  -30.4352   -1.2124   28.6022 C   0  0  0  0  0  0  0  0  0  0  0  0
  -27.9491   -1.6373   30.1655 C   0  0  0  0  0  0  0  0  0  0  0  0
  -26.8171   -2.1262   30.4363 F   0  0  0  0  0  0  0  0  0  0  0  0
  -28.4217   -0.8598   31.1779 F   0  0  0  0  0  0  0  0  0  0  0  0
  -28.7913   -2.7344   30.0579 F   0  0  0  0  0  0  0  0  0  0  0  0
  -30.3149    0.9089   24.9947 C   0  0  0  0  0  0  0  0  0  0  0  0
  5  7  1  0
  7  8  1  0
  6 10  1  0
  9 10  1  0
  1 11  1  0
 11 12  1  0
 11 13  1  0
 11 14  1  0
  7 15  1  0
  9  8  1  0
  1  2  2  0
  2  3  1  0
  3  4  2  0
  4  5  1  0
  5  6  2  0
  6  1  1  0
M  END

$$$$
