No_2952-gen_results/8p0m/2024-11-26-14-13-15/
     RDKit          3D

 14 15  0  0  0  0  0  0  0  0999 V2000
  -28.0162   -0.8135   28.8779 C   0  0  0  0  0  0  0  0  0  0  0  0
  -27.0636   -0.1189   28.6079 C   0  0  0  0  0  0  0  0  0  0  0  0
  -26.9716    0.7139   27.5060 C   0  0  0  0  0  0  0  0  0  0  0  0
  -28.1053    0.7744   26.6421 C   0  0  0  0  0  0  0  0  0  0  0  0
  -29.2008    0.1044   27.0527 C   0  0  0  0  0  0  0  0  0  0  0  0
  -29.2096   -0.6029   28.1853 C   0  0  0  0  0  0  0  0  0  0  0  0
  -30.5720    0.2423   26.0548 Cl  0  0  0  0  0  0  0  0  0  0  0  0
  -25.7026   -0.2359   29.4139 C   0  0  0  0  0  0  0  0  0  0  0  0
  -25.5965   -0.4792   30.4557 C   0  0  0  0  0  0  0  0  0  0  0  0
  -24.2932   -0.5731   31.1857 C   0  0  0  0  0  0  0  0  0  0  0  0
  -23.1212   -0.3537   30.4700 C   0  0  0  0  0  0  0  0  0  0  0  0
  -23.2328   -0.1110   29.1248 C   0  0  0  0  0  0  0  0  0  0  0  0
  -24.5058   -0.0499   28.4841 C   0  0  0  0  0  0  0  0  0  0  0  0
  -22.1334    0.0925   28.4656 F   0  0  0  0  0  0  0  0  0  0  0  0
  5  7  1  0
  2  8  1  0
 12 14  1  0
  1  2  2  0
  2  3  1  0
  3  4  2  0
  4  5  1  0
  5  6  2  0
  6  1  1  0
  8  9  2  0
  9 10  1  0
 10 11  2  0
 11 12  1  0
 12 13  2  0
 13  8  1  0
M  END

$$$$
