No_2632-gen_results/8p0m/2024-11-26-14-13-15/
     RDKit          3D

 11 11  0  0  0  0  0  0  0  0999 V2000
  -28.1493   -0.8198   28.9079 Cl  0  0  0  0  0  0  0  0  0  0  0  0
  -26.9116   -0.0797   28.9452 C   0  0  0  0  0  0  0  0  0  0  0  0
  -26.0490   -0.0718   27.8591 C   0  0  0  0  0  0  0  0  0  0  0  0
  -24.6574   -0.0370   27.9638 C   0  0  0  0  0  0  0  0  0  0  0  0
  -24.0330    0.3795   29.2055 C   0  0  0  0  0  0  0  0  0  0  0  0
  -22.6223    0.4812   29.3594 C   0  0  0  0  0  0  0  0  0  0  0  0
  -24.8488    0.6435   30.3921 C   0  0  0  0  0  0  0  0  0  0  0  0
  -26.2277    0.2138   30.2541 C   0  0  0  0  0  0  0  0  0  0  0  0
  -22.1962    0.8976   30.3663 F   0  0  0  0  0  0  0  0  0  0  0  0
  -21.9996   -0.7209   29.0362 F   0  0  0  0  0  0  0  0  0  0  0  0
  -22.1277    1.3207   28.3637 F   0  0  0  0  0  0  0  0  0  0  0  0
  1  2  1  0
  5  6  1  0
  6  9  1  0
  6 10  1  0
  6 11  1  0
  2  3  2  0
  3  4  1  0
  4  5  2  0
  5  7  1  0
  7  8  2  0
  8  2  1  0
M  END

$$$$
