No_2480-gen_results/8p0m/2024-11-26-14-13-15/
     RDKit          3D

 14 15  0  0  0  0  0  0  0  0999 V2000
  -28.0162   -0.8135   28.8779 C   0  0  0  0  0  0  0  0  0  0  0  0
  -27.0636   -0.1190   28.6079 C   0  0  0  0  0  0  0  0  0  0  0  0
  -26.9716    0.7139   27.5060 C   0  0  0  0  0  0  0  0  0  0  0  0
  -25.8205    1.4909   27.1160 C   0  0  0  0  0  0  0  0  0  0  0  0
  -24.6562    1.4242   27.9180 C   0  0  0  0  0  0  0  0  0  0  0  0
  -24.6847    0.5901   29.0659 C   0  0  0  0  0  0  0  0  0  0  0  0
  -25.8099   -0.1266   29.3338 C   0  0  0  0  0  0  0  0  0  0  0  0
  -28.0540   -1.5468   30.1892 C   0  0  0  0  0  0  0  0  0  0  0  0
  -26.8785   -1.7467   30.8493 N   0  0  0  0  0  0  0  0  0  0  0  0
  -25.8061   -0.9985   30.5502 C   0  0  0  0  0  0  0  0  0  0  0  0
  -23.4516    2.2263   27.5883 C   0  0  0  0  0  0  0  0  0  0  0  0
  -22.5845    2.3138   28.4968 O   0  0  0  0  0  0  0  0  0  0  0  0
  -23.3265    2.7440   26.4505 O   0  0  0  0  0  0  0  0  0  0  0  0
  -27.9574    0.7495   26.6470 F   0  0  0  0  0  0  0  0  0  0  0  0
  2  3  1  0
  3  4  1  0
  4  5  1  0
  5  6  1  0
  6  7  1  0
  5 11  1  0
 11 12  2  0
 11 13  1  0
  3 14  1  0
  1  2  2  0
  2  7  1  0
  7 10  2  0
 10  9  1  0
  9  8  2  0
  8  1  1  0
M  END

$$$$
