No_2576-gen_results/8p0m/2024-11-26-14-13-15/
     RDKit          3D

  9  8  0  0  0  0  0  0  0  0999 V2000
  -28.0162   -0.8135   28.8779 C   0  0  0  0  0  0  0  0  0  0  0  0
  -28.4690   -0.7850   29.8287 C   0  0  0  0  0  0  0  0  0  0  0  0
  -27.1356    0.2359   28.5352 C   0  0  0  0  0  0  0  0  0  0  0  0
  -26.3351    0.2900   27.2835 C   0  0  0  0  0  0  0  0  0  0  0  0
  -28.3692    0.1957   30.9236 C   0  0  0  0  0  0  0  0  0  0  0  0
  -29.0527    0.1733   32.1679 C   0  0  0  0  0  0  0  0  0  0  0  0
  -25.6023    0.8383   26.6466 C   0  0  0  0  0  0  0  0  0  0  0  0
  -24.7522    0.3390   25.6462 C   0  0  0  0  0  0  0  0  0  0  0  0
  -26.9744    1.1853   29.4861 C   0  0  0  0  0  0  0  0  0  0  0  0
  1  2  2  3
  1  3  1  0
  3  4  1  0
  2  5  1  0
  5  6  2  0
  4  7  1  0
  7  8  2  0
  3  9  1  0
M  END

$$$$
