No_2978-gen_results/8p0m/2024-11-26-14-13-15/
     RDKit          3D

 28 31  0  0  0  0  0  0  0  0999 V2000
  -28.0162   -0.8135   28.8779 C   0  0  0  0  0  0  0  0  0  0  0  0
  -27.0636   -0.1189   28.6079 C   0  0  0  0  0  0  0  0  0  0  0  0
  -26.9716    0.7139   27.5060 C   0  0  0  0  0  0  0  0  0  0  0  0
  -28.1053    0.7744   26.6421 C   0  0  0  0  0  0  0  0  0  0  0  0
  -29.2041    0.1179   27.0477 C   0  0  0  0  0  0  0  0  0  0  0  0
  -29.2127   -0.6088   28.1281 C   0  0  0  0  0  0  0  0  0  0  0  0
  -25.7106    1.4518   27.1380 C   0  0  0  0  0  0  0  0  0  0  0  0
  -25.2074    2.4128   27.9320 C   0  0  0  0  0  0  0  0  0  0  0  0
  -23.9232    3.0327   27.5992 C   0  0  0  0  0  0  0  0  0  0  0  0
  -23.2163    2.2759   26.6933 C   0  0  0  0  0  0  0  0  0  0  0  0
  -24.6483    0.9555   26.2621 C   0  0  0  0  0  0  0  0  0  0  0  0
  -23.6274    1.3283   25.9553 C   0  0  0  0  0  0  0  0  0  0  0  0
  -26.0355    3.1276   28.9411 C   0  0  0  0  0  0  0  0  0  0  0  0
  -26.4174    4.3923   28.7548 C   0  0  0  0  0  0  0  0  0  0  0  0
  -27.1116    5.0536   29.3602 C   0  0  0  0  0  0  0  0  0  0  0  0
  -27.4625    6.4237   29.0340 C   0  0  0  0  0  0  0  0  0  0  0  0
  -26.2454    5.1537   27.4176 C   0  0  0  0  0  0  0  0  0  0  0  0
  -28.2141    7.3724   29.8946 C   0  0  0  0  0  0  0  0  0  0  0  0
  -26.8766    6.6503   27.7570 C   0  0  0  0  0  0  0  0  0  0  0  0
  -28.0714    1.7065   25.4872 C   0  0  0  0  0  0  0  0  0  0  0  0
  -27.8623   -1.8813   30.2791 Cl  0  0  0  0  0  0  0  0  0  0  0  0
  -27.8373    8.5962   29.8602 C   0  0  0  0  0  0  0  0  0  0  0  0
  -26.5862    9.0272   29.4406 C   0  0  0  0  0  0  0  0  0  0  0  0
  -25.7674    9.7734   29.9259 C   0  0  0  0  0  0  0  0  0  0  0  0
  -24.6118    9.7646   30.1380 C   0  0  0  0  0  0  0  0  0  0  0  0
  -23.7762    8.8690   29.2091 C   0  0  0  0  0  0  0  0  0  0  0  0
  -24.5554    8.0088   28.4545 C   0  0  0  0  0  0  0  0  0  0  0  0
  -25.8857    7.9928   28.6612 C   0  0  0  0  0  0  0  0  0  0  0  0
  3  7  1  0
  8 13  1  0
 13 14  2  3
 14 15  1  0
 15 16  2  0
 14 17  1  0
 16 18  1  0
 16 19  1  0
 17 19  2  0
  4 20  1  0
  1 21  1  0
 18 22  2  3
 22 23  1  0
  7  8  1  0
  8  9  2  0
  9 10  1  0
 10 12  2  0
 12 11  1  0
 11  7  2  0
  1  2  2  0
  2  3  1  0
  3  4  2  0
  4  5  1  0
  5  6  2  0
  6  1  1  0
 23 24  2  0
 24 25  1  0
 25 26  2  0
 26 27  1  0
 27 28  2  0
 28 23  1  0
M  END

$$$$
