No_2158-gen_results/8p0m/2024-11-26-14-13-15/
     RDKit          3D

 11 11  0  0  0  0  0  0  0  0999 V2000
  -28.0162   -0.8135   28.8779 C   0  0  0  0  0  0  0  0  0  0  0  0
  -28.4690   -0.7850   29.8287 C   0  0  0  0  0  0  0  0  0  0  0  0
  -28.1960    0.3478   28.0550 C   0  0  0  0  0  0  0  0  0  0  0  0
  -29.0191    1.3501   28.3782 C   0  0  0  0  0  0  0  0  0  0  0  0
  -29.4107    0.1803   30.3782 C   0  0  0  0  0  0  0  0  0  0  0  0
  -29.6059    1.2495   29.6193 C   0  0  0  0  0  0  0  0  0  0  0  0
  -27.4478    0.3799   26.7122 C   0  0  0  0  0  0  0  0  0  0  0  0
  -26.0871    0.2156   26.7405 N   0  0  0  0  0  0  0  0  0  0  0  0
  -25.2278    1.0917   27.3339 C   0  0  0  0  0  0  0  0  0  0  0  0
  -23.8780    0.6884   27.6098 C   0  0  0  0  0  0  0  0  0  0  0  0
  -22.8180    1.5893   27.6381 C   0  0  0  0  0  0  0  0  0  0  0  0
  3  7  1  0
  7  8  1  0
  8  9  1  0
  9 10  2  3
 10 11  1  0
  1  2  2  0
  2  5  1  0
  5  6  2  0
  6  4  1  0
  4  3  2  0
  3  1  1  0
M  END

$$$$
