No_2235-gen_results/8p0m/2024-11-26-14-13-15/
     RDKit          3D

 35 38  0  0  0  0  0  0  0  0999 V2000
  -28.0162   -0.8135   28.8779 C   0  0  0  0  0  0  0  0  0  0  0  0
  -27.0636   -0.1189   28.6079 C   0  0  0  0  0  0  0  0  0  0  0  0
  -25.7647   -0.3897   29.0360 C   0  0  0  0  0  0  0  0  0  0  0  0
  -24.5516    0.4058   28.7646 C   0  0  0  0  0  0  0  0  0  0  0  0
  -24.6957    1.4480   27.7988 C   0  0  0  0  0  0  0  0  0  0  0  0
  -25.9755    1.7250   27.3077 C   0  0  0  0  0  0  0  0  0  0  0  0
  -27.0718    1.0134   27.6535 C   0  0  0  0  0  0  0  0  0  0  0  0
  -28.6178   -0.4695   30.2207 C   0  0  0  0  0  0  0  0  0  0  0  0
  -29.6245   -1.2712   30.6820 O   0  0  0  0  0  0  0  0  0  0  0  0
  -23.4834    2.1873   27.4808 C   0  0  0  0  0  0  0  0  0  0  0  0
  -22.2974    1.7311   27.8457 N   0  0  0  0  0  0  0  0  0  0  0  0
  -23.5629    3.1185   26.6195 O   0  0  0  0  0  0  0  0  0  0  0  0
  -28.2252    0.3474   30.9113 O   0  0  0  0  0  0  0  0  0  0  0  0
  -21.9958    0.8130   28.7701 C   0  0  0  0  0  0  0  0  0  0  0  0
  -23.1035   -0.0156   29.1666 C   0  0  0  0  0  0  0  0  0  0  0  0
  -28.3886    1.3599   27.0652 C   0  0  0  0  0  0  0  0  0  0  0  0
  -28.4269    1.9890   25.9787 N   0  0  0  0  0  0  0  0  0  0  0  0
  -29.4426    2.1836   25.2326 C   0  0  0  0  0  0  0  0  0  0  0  0
  -29.3579    2.4122   23.9336 C   0  0  0  0  0  0  0  0  0  0  0  0
  -30.4684    2.6590   23.0057 C   0  0  0  0  0  0  0  0  0  0  0  0
  -31.7555    2.5541   23.5415 C   0  0  0  0  0  0  0  0  0  0  0  0
  -32.7815    2.8174   22.6906 C   0  0  0  0  0  0  0  0  0  0  0  0
  -30.8092    2.1338   25.6813 C   0  0  0  0  0  0  0  0  0  0  0  0
  -31.8536    2.3325   24.8499 C   0  0  0  0  0  0  0  0  0  0  0  0
  -29.3969    1.2918   27.8028 O   0  0  0  0  0  0  0  0  0  0  0  0
  -33.7745    3.3921   22.8682 C   0  0  0  0  0  0  0  0  0  0  0  0
  -34.6489    3.9741   22.6394 C   0  0  0  0  0  0  0  0  0  0  0  0
  -35.6369    4.8658   22.6796 C   0  0  0  0  0  0  0  0  0  0  0  0
  -35.4976    6.0294   23.0252 C   0  0  0  0  0  0  0  0  0  0  0  0
  -36.5785    7.0467   22.9500 C   0  0  0  0  0  0  0  0  0  0  0  0
  -37.7765    6.5520   22.4623 C   0  0  0  0  0  0  0  0  0  0  0  0
  -37.9301    5.3148   22.0699 C   0  0  0  0  0  0  0  0  0  0  0  0
  -36.8879    4.4372   22.1170 C   0  0  0  0  0  0  0  0  0  0  0  0
  -38.9034    7.5806   22.4238 C   0  0  0  0  0  0  0  0  0  0  0  0
  -38.8391    8.6479   23.1615 C   0  0  0  0  0  0  0  0  0  0  0  0
  1  8  1  0
  8  9  1  0
  5 10  1  0
 10 11  1  0
 10 12  2  0
  8 13  2  0
 11 14  1  0
  4 15  1  0
  7 16  1  0
 16 17  1  0
 17 18  1  0
 21 22  1  0
 16 25  2  0
 22 26  2  3
 26 27  1  0
 31 34  1  0
 34 35  2  0
 27 28  1  0
  1  2  1  0
 15 14  1  0
 28 29  2  0
 29 30  1  0
 30 31  2  0
 31 32  1  0
 32 33  2  0
 33 28  1  0
  2  3  2  0
  3  4  1  0
  4  5  2  0
  5  6  1  0
  6  7  2  0
  7  2  1  0
 18 19  2  0
 19 20  1  0
 20 21  2  0
 21 24  1  0
 24 23  2  0
 23 18  1  0
M  END

$$$$
