No_2193-gen_results/8p0m/2024-11-26-14-13-15/
     RDKit          3D

 27 29  0  0  0  0  0  0  0  0999 V2000
  -28.0162   -0.8135   28.8779 C   0  0  0  0  0  0  0  0  0  0  0  0
  -27.0636   -0.1189   28.6079 C   0  0  0  0  0  0  0  0  0  0  0  0
  -25.7923   -0.4302   29.0761 C   0  0  0  0  0  0  0  0  0  0  0  0
  -25.5756   -1.5654   29.9363 C   0  0  0  0  0  0  0  0  0  0  0  0
  -26.7354   -2.3004   30.2173 C   0  0  0  0  0  0  0  0  0  0  0  0
  -27.9184   -1.9537   29.7629 C   0  0  0  0  0  0  0  0  0  0  0  0
  -29.0001   -2.7012   30.1151 O   0  0  0  0  0  0  0  0  0  0  0  0
  -24.5290    0.3490   28.7998 C   0  0  0  0  0  0  0  0  0  0  0  0
  -24.4808    1.2113   27.7998 C   0  0  0  0  0  0  0  0  0  0  0  0
  -23.2478    1.8974   27.4951 C   0  0  0  0  0  0  0  0  0  0  0  0
  -22.0497    1.5890   28.1642 C   0  0  0  0  0  0  0  0  0  0  0  0
  -23.3072    0.0149   29.4618 C   0  0  0  0  0  0  0  0  0  0  0  0
  -22.0852    0.6899   29.1374 C   0  0  0  0  0  0  0  0  0  0  0  0
  -29.3635   -2.8123   31.4419 C   0  0  0  0  0  0  0  0  0  0  0  0
  -29.9239   -1.7794   31.9929 C   0  0  0  0  0  0  0  0  0  0  0  0
  -29.8657   -1.7970   33.1457 F   0  0  0  0  0  0  0  0  0  0  0  0
  -31.2513   -1.7450   31.6493 F   0  0  0  0  0  0  0  0  0  0  0  0
  -29.4330   -0.5908   31.5398 F   0  0  0  0  0  0  0  0  0  0  0  0
  -28.1680   -3.1972   32.0432 F   0  0  0  0  0  0  0  0  0  0  0  0
  -30.2022   -4.0003   31.3500 F   0  0  0  0  0  0  0  0  0  0  0  0
  -29.3120   -0.5016   28.6350 O   0  0  0  0  0  0  0  0  0  0  0  0
  -29.7396    0.6218   27.9702 C   0  0  0  0  0  0  0  0  0  0  0  0
  -29.5929    1.7572   28.4554 C   0  0  0  0  0  0  0  0  0  0  0  0
  -29.7181    2.8286   27.6907 C   0  0  0  0  0  0  0  0  0  0  0  0
  -30.2949    2.6806   26.4900 C   0  0  0  0  0  0  0  0  0  0  0  0
  -30.2415    0.4720   26.7024 C   0  0  0  0  0  0  0  0  0  0  0  0
  -30.4682    1.4947   25.9641 N   0  0  0  0  0  0  0  0  0  0  0  0
  6  7  1  0
  3  8  1  0
  7 14  1  0
 14 15  1  0
 15 16  1  0
 15 17  1  0
 15 18  1  0
 14 19  1  0
 14 20  1  0
  1 21  1  0
 21 22  1  0
  1  2  2  0
  2  3  1  0
  3  4  2  0
  4  5  1  0
  5  6  2  0
  6  1  1  0
 22 23  2  0
 23 24  1  0
 24 25  2  0
 25 27  1  0
 27 26  2  0
 26 22  1  0
  8  9  2  0
  9 10  1  0
 10 11  2  0
 11 13  1  0
 13 12  2  0
 12  8  1  0
M  END

$$$$
