No_2362-gen_results/8p0m/2024-11-26-14-13-15/
     RDKit          3D

 25 26  0  0  0  0  0  0  0  0999 V2000
  -28.0162   -0.8135   28.8779 C   0  0  0  0  0  0  0  0  0  0  0  0
  -27.0636   -0.1189   28.6079 C   0  0  0  0  0  0  0  0  0  0  0  0
  -26.9716    0.7139   27.5060 C   0  0  0  0  0  0  0  0  0  0  0  0
  -25.8205    1.4910   27.1160 C   0  0  0  0  0  0  0  0  0  0  0  0
  -24.6562    1.4242   27.9180 C   0  0  0  0  0  0  0  0  0  0  0  0
  -24.6847    0.5901   29.0659 C   0  0  0  0  0  0  0  0  0  0  0  0
  -25.8099   -0.1265   29.3338 C   0  0  0  0  0  0  0  0  0  0  0  0
  -28.6943   -0.4734   30.1587 C   0  0  0  0  0  0  0  0  0  0  0  0
  -29.7865   -1.3251   30.6371 C   0  0  0  0  0  0  0  0  0  0  0  0
  -23.4524    2.1889   27.6083 C   0  0  0  0  0  0  0  0  0  0  0  0
  -22.5786    2.2580   28.4957 O   0  0  0  0  0  0  0  0  0  0  0  0
  -23.3956    2.8281   26.4934 O   0  0  0  0  0  0  0  0  0  0  0  0
  -30.0019   -2.2923   30.0956 C   0  0  0  0  0  0  0  0  0  0  0  0
  -31.2004   -3.0454   30.5787 C   0  0  0  0  0  0  0  0  0  0  0  0
  -31.8959   -2.6071   31.5985 C   0  0  0  0  0  0  0  0  0  0  0  0
  -31.5928   -1.4497   32.2293 C   0  0  0  0  0  0  0  0  0  0  0  0
  -30.5134   -0.7035   31.7629 C   0  0  0  0  0  0  0  0  0  0  0  0
  -28.2588    0.6921   30.9599 C   0  0  0  0  0  0  0  0  0  0  0  0
  -28.1067    0.8426   26.5793 C   0  0  0  0  0  0  0  0  0  0  0  0
  -29.1611    1.2828   26.8776 O   0  0  0  0  0  0  0  0  0  0  0  0
  -27.9380    0.3842   25.3085 N   0  0  0  0  0  0  0  0  0  0  0  0
  -28.9379    0.3228   24.3139 C   0  0  0  0  0  0  0  0  0  0  0  0
  -27.5732    1.6587   30.7802 C   0  0  0  0  0  0  0  0  0  0  0  0
  -27.3828    2.7037   31.7361 C   0  0  0  0  0  0  0  0  0  0  0  0
  -28.0047    2.6086   32.9070 C   0  0  0  0  0  0  0  0  0  0  0  0
  1  8  1  0
  8  9  1  0
  5 10  1  0
 10 11  2  0
 10 12  1  0
  8 18  1  0
  3 19  1  0
 19 20  2  0
 19 21  1  0
 21 22  1  0
 18 23  2  3
 23 24  1  0
 24 25  2  0
  1  2  1  0
  2  3  2  0
  3  4  1  0
  4  5  2  0
  5  6  1  0
  6  7  2  0
  7  2  1  0
  9 13  2  0
 13 14  1  0
 14 15  2  0
 15 16  1  0
 16 17  2  0
 17  9  1  0
M  END

$$$$
