No_2144-gen_results/8p0m/2024-11-26-14-13-15/
     RDKit          3D

 13 13  0  0  0  0  0  0  0  0999 V2000
  -28.0162   -0.8135   28.8779 C   0  0  0  0  0  0  0  0  0  0  0  0
  -27.0636   -0.1189   28.6079 C   0  0  0  0  0  0  0  0  0  0  0  0
  -25.7923   -0.4302   29.0761 C   0  0  0  0  0  0  0  0  0  0  0  0
  -25.5314   -1.5875   29.6105 C   0  0  0  0  0  0  0  0  0  0  0  0
  -26.6366   -2.4336   29.9654 C   0  0  0  0  0  0  0  0  0  0  0  0
  -27.8411   -2.0285   29.6196 C   0  0  0  0  0  0  0  0  0  0  0  0
  -27.1759    1.2293   27.9201 C   0  0  0  0  0  0  0  0  0  0  0  0
  -26.4462    1.4271   27.1791 F   0  0  0  0  0  0  0  0  0  0  0  0
  -28.4380    1.2026   27.2789 F   0  0  0  0  0  0  0  0  0  0  0  0
  -27.3551    2.2601   28.8150 F   0  0  0  0  0  0  0  0  0  0  0  0
  -28.9633   -2.9031   30.0983 C   0  0  0  0  0  0  0  0  0  0  0  0
  -30.0381   -2.5854   30.0387 O   0  0  0  0  0  0  0  0  0  0  0  0
  -28.6214   -3.8982   30.9403 O   0  0  0  0  0  0  0  0  0  0  0  0
  2  7  1  0
  7  8  1  0
  7  9  1  0
  7 10  1  0
  6 11  1  0
 11 12  2  0
 11 13  1  0
  1  2  2  0
  2  3  1  0
  3  4  2  0
  4  5  1  0
  5  6  2  0
  6  1  1  0
M  END

$$$$
