No_2107-gen_results/8p0m/2024-11-26-14-13-15/
     RDKit          3D

 29 31  0  0  0  0  0  0  0  0999 V2000
  -28.1229   -1.3353   28.4874 O   0  0  0  0  0  0  0  0  0  0  0  0
  -27.4806   -0.4044   28.7094 C   0  0  0  0  0  0  0  0  0  0  0  0
  -26.3804   -0.0867   27.9394 C   0  0  0  0  0  0  0  0  0  0  0  0
  -27.4232    0.1749   30.0549 N   0  0  0  0  0  0  0  0  0  0  0  0
  -26.1558    0.1159   26.9677 C   0  0  0  0  0  0  0  0  0  0  0  0
  -24.8999    0.6041   26.2249 C   0  0  0  0  0  0  0  0  0  0  0  0
  -23.8294    0.8007   27.0443 C   0  0  0  0  0  0  0  0  0  0  0  0
  -23.9564    0.7540   28.2627 C   0  0  0  0  0  0  0  0  0  0  0  0
  -25.0996    0.3398   28.9546 C   0  0  0  0  0  0  0  0  0  0  0  0
  -28.5143    0.1774   30.7735 C   0  0  0  0  0  0  0  0  0  0  0  0
  -22.4998    1.2565   29.4641 Br  0  0  0  0  0  0  0  0  0  0  0  0
  -29.2142    1.1728   30.7639 C   0  0  0  0  0  0  0  0  0  0  0  0
  -28.7833    2.3750   30.1482 C   0  0  0  0  0  0  0  0  0  0  0  0
  -28.8403    3.4572   30.6390 C   0  0  0  0  0  0  0  0  0  0  0  0
  -28.1000    4.5723   30.0719 C   0  0  0  0  0  0  0  0  0  0  0  0
  -27.3991    4.3999   28.8426 C   0  0  0  0  0  0  0  0  0  0  0  0
  -27.3814    3.1424   28.3200 C   0  0  0  0  0  0  0  0  0  0  0  0
  -27.9723    2.1350   28.9885 C   0  0  0  0  0  0  0  0  0  0  0  0
  -29.0874    1.6666   27.9249 C   0  0  0  0  0  0  0  0  0  0  0  0
  -29.0013    2.3857   26.6450 C   0  0  0  0  0  0  0  0  0  0  0  0
  -27.9374    3.4264   26.9237 N   0  0  0  0  0  0  0  0  0  0  0  0
  -30.1890    3.1242   26.2380 C   0  0  0  0  0  0  0  0  0  0  0  0
  -28.8098   -1.2431   31.7098 Cl  0  0  0  0  0  0  0  0  0  0  0  0
  -30.7165    2.7436   25.0905 C   0  0  0  0  0  0  0  0  0  0  0  0
  -30.2101    1.6187   24.3721 C   0  0  0  0  0  0  0  0  0  0  0  0
  -29.0986    0.9672   24.8464 C   0  0  0  0  0  0  0  0  0  0  0  0
  -28.5180    1.3516   26.0018 C   0  0  0  0  0  0  0  0  0  0  0  0
  -28.1025    0.4607   26.5987 F   0  0  0  0  0  0  0  0  0  0  0  0
  -27.1166    1.9180   25.2800 C   0  0  0  0  0  0  0  0  0  0  0  0
  1  2  2  0
  2  3  1  0
  2  4  1  0
  4 10  1  0
  8 11  1  0
 10 12  2  3
 12 13  1  0
 18 19  1  0
 19 20  2  0
 17 21  1  0
 20 21  1  0
 20 22  1  0
 10 23  1  0
 22 24  2  3
 24 25  1  0
 25 26  2  3
 26 27  1  0
 27 28  1  0
 27 29  1  0
 13 14  2  0
 14 15  1  0
 15 16  2  0
 16 17  1  0
 17 18  2  0
 18 13  1  0
  3  5  2  0
  5  6  1  0
  6  7  2  0
  7  8  1  0
  8  9  2  0
  9  3  1  0
M  END

$$$$
