No_2838-gen_results/8p0m/2024-11-26-14-13-15/
     RDKit          3D

 30 35  0  0  0  0  0  0  0  0999 V2000
  -28.1229   -1.3353   28.4874 O   0  0  0  0  0  0  0  0  0  0  0  0
  -27.0637   -0.8242   28.8687 C   0  0  0  0  0  0  0  0  0  0  0  0
  -26.4017   -0.0623   28.6224 C   0  0  0  0  0  0  0  0  0  0  0  0
  -26.4746   -1.7566   29.9709 F   0  0  0  0  0  0  0  0  0  0  0  0
  -26.7809    1.0730   27.8517 C   0  0  0  0  0  0  0  0  0  0  0  0
  -28.0705    1.2551   27.6918 C   0  0  0  0  0  0  0  0  0  0  0  0
  -28.7417    1.9886   28.1324 C   0  0  0  0  0  0  0  0  0  0  0  0
  -28.2000    2.8165   29.2188 C   0  0  0  0  0  0  0  0  0  0  0  0
  -27.0067    3.4373   28.9474 C   0  0  0  0  0  0  0  0  0  0  0  0
  -25.7450    2.8959   28.5609 C   0  0  0  0  0  0  0  0  0  0  0  0
  -25.6176    1.7198   28.1115 C   0  0  0  0  0  0  0  0  0  0  0  0
  -24.8276   -0.1861   28.8405 C   0  0  0  0  0  0  0  0  0  0  0  0
  -24.6775    1.8718   26.8660 C   0  0  0  0  0  0  0  0  0  0  0  0
  -23.4581    1.0652   27.2172 C   0  0  0  0  0  0  0  0  0  0  0  0
  -23.6185   -0.1376   27.9971 C   0  0  0  0  0  0  0  0  0  0  0  0
  -24.2001    3.2751   26.6956 C   0  0  0  0  0  0  0  0  0  0  0  0
  -24.9888    4.0081   27.7065 C   0  0  0  0  0  0  0  0  0  0  0  0
  -25.2066    1.3625   25.5210 C   0  0  0  0  0  0  0  0  0  0  0  0
  -24.8412    2.9026   30.0165 C   0  0  0  0  0  0  0  0  0  0  0  0
  -25.3828    1.6462   29.4183 O   0  0  0  0  0  0  0  0  0  0  0  0
  -27.0989    4.9883   29.0538 C   0  0  0  0  0  0  0  0  0  0  0  0
  -27.5253    5.4706   30.1418 C   0  0  0  0  0  0  0  0  0  0  0  0
  -27.4683    6.4588   30.5896 C   0  0  0  0  0  0  0  0  0  0  0  0
  -26.9383    7.5826   29.7656 C   0  0  0  0  0  0  0  0  0  0  0  0
  -26.4149    7.2225   28.5312 C   0  0  0  0  0  0  0  0  0  0  0  0
  -26.4254    5.8329   28.2076 C   0  0  0  0  0  0  0  0  0  0  0  0
  -25.7544    5.2648   27.3914 C   0  0  0  0  0  0  0  0  0  0  0  0
  -30.2086    2.3111   27.9219 C   0  0  0  0  0  0  0  0  0  0  0  0
  -30.9726    2.9603   28.7301 C   0  0  0  0  0  0  0  0  0  0  0  0
  -32.0353    3.2641   28.8262 C   0  0  0  0  0  0  0  0  0  0  0  0
  1  2  2  0
  2  3  1  0
  2  4  1  0
  3  5  2  0
  5  6  1  0
  6  7  1  0
  7  8  1  0
  8  9  2  0
  9 10  1  0
  5 11  1  0
 10 11  1  0
  3 12  1  0
 11 13  1  0
 13 14  1  0
 12 15  2  0
 14 15  1  0
 13 16  1  0
 10 17  1  0
 16 17  1  0
 13 18  1  0
 10 19  1  0
 11 20  1  0
 19 20  1  0
  9 21  1  0
 17 27  1  0
 26 27  1  0
  7 28  1  0
 28 29  2  3
 29 30  1  0
 21 22  2  0
 22 23  1  0
 23 24  2  0
 24 25  1  0
 25 26  2  0
 26 21  1  0
M  END

$$$$
