No_2339-gen_results/8p0m/2024-11-26-14-13-15/
     RDKit          3D

 15 15  0  0  0  0  0  0  0  0999 V2000
  -28.0162   -0.8135   28.8779 C   0  0  0  0  0  0  0  0  0  0  0  0
  -28.4690   -0.7850   29.8287 C   0  0  0  0  0  0  0  0  0  0  0  0
  -27.0871    0.2903   28.6377 C   0  0  0  0  0  0  0  0  0  0  0  0
  -26.0238    0.3644   29.2526 C   0  0  0  0  0  0  0  0  0  0  0  0
  -29.4161   -1.9279   30.1751 C   0  0  0  0  0  0  0  0  0  0  0  0
  -26.2326    0.1422   30.7730 C   0  0  0  0  0  0  0  0  0  0  0  0
  -27.3914   -0.7532   31.0134 C   0  0  0  0  0  0  0  0  0  0  0  0
  -30.6347   -1.6708   29.8410 O   0  0  0  0  0  0  0  0  0  0  0  0
  -29.1779   -3.0058   30.8843 O   0  0  0  0  0  0  0  0  0  0  0  0
  -24.8507    1.3139   29.0439 C   0  0  0  0  0  0  0  0  0  0  0  0
  -23.7246    1.0116   29.4420 C   0  0  0  0  0  0  0  0  0  0  0  0
  -24.9692    2.3675   28.0822 C   0  0  0  0  0  0  0  0  0  0  0  0
  -23.3465    0.2450   30.5301 C   0  0  0  0  0  0  0  0  0  0  0  0
  -25.1796    2.5004   27.0603 N   0  0  0  0  0  0  0  0  0  0  0  0
  -25.2657    3.6321   26.3994 C   0  0  0  0  0  0  0  0  0  0  0  0
  2  5  1  0
  5  8  2  0
  5  9  1  0
  4 10  1  0
 10 11  1  0
 10 12  1  0
 11 13  2  0
 12 14  1  0
 14 15  1  0
  1  2  2  0
  2  7  1  0
  7  6  2  0
  6  4  1  0
  4  3  2  0
  3  1  1  0
M  END

$$$$
