No_296-gen_results/8p0m/2024-11-26-14-13-15/
     RDKit          3D

 35 39  0  0  0  0  0  0  0  0999 V2000
  -28.0162   -0.8135   28.8779 C   0  0  0  0  0  0  0  0  0  0  0  0
  -27.0636   -0.1189   28.6079 C   0  0  0  0  0  0  0  0  0  0  0  0
  -27.0010    0.6913   27.4910 C   0  0  0  0  0  0  0  0  0  0  0  0
  -27.1778    1.9037   27.5632 C   0  0  0  0  0  0  0  0  0  0  0  0
  -28.0594   -1.3960   30.2136 C   0  0  0  0  0  0  0  0  0  0  0  0
  -27.2549   -1.6159   30.7794 C   0  0  0  0  0  0  0  0  0  0  0  0
  -25.8156   -0.2424   29.3891 C   0  0  0  0  0  0  0  0  0  0  0  0
  -25.8899   -1.0470   30.5411 C   0  0  0  0  0  0  0  0  0  0  0  0
  -26.5652    0.1187   26.2101 C   0  0  0  0  0  0  0  0  0  0  0  0
  -27.1532    2.8101   26.4016 C   0  0  0  0  0  0  0  0  0  0  0  0
  -26.5545    0.8370   25.0092 C   0  0  0  0  0  0  0  0  0  0  0  0
  -26.8013    2.2334   25.0833 C   0  0  0  0  0  0  0  0  0  0  0  0
  -24.2654    0.2321   28.9354 Cl  0  0  0  0  0  0  0  0  0  0  0  0
  -29.5031   -2.0752   30.4550 C   0  0  0  0  0  0  0  0  0  0  0  0
  -29.6207   -3.2353   30.6796 O   0  0  0  0  0  0  0  0  0  0  0  0
  -30.5135   -1.3305   30.4439 O   0  0  0  0  0  0  0  0  0  0  0  0
  -31.7555   -1.7299   30.0698 C   0  0  0  0  0  0  0  0  0  0  0  0
  -32.1709   -1.4406   28.8602 C   0  0  0  0  0  0  0  0  0  0  0  0
  -31.7303   -0.4888   28.2648 O   0  0  0  0  0  0  0  0  0  0  0  0
  -32.9620   -2.1833   28.2103 O   0  0  0  0  0  0  0  0  0  0  0  0
  -32.6564   -1.0423   31.1304 C   0  0  0  0  0  0  0  0  0  0  0  0
  -33.1781   -1.7799   32.0158 C   0  0  0  0  0  0  0  0  0  0  0  0
  -32.8686   -3.1150   32.2050 C   0  0  0  0  0  0  0  0  0  0  0  0
  -33.0199   -3.7543   33.4103 C   0  0  0  0  0  0  0  0  0  0  0  0
  -33.8431   -3.0849   34.3995 C   0  0  0  0  0  0  0  0  0  0  0  0
  -34.2340   -1.7955   34.2527 C   0  0  0  0  0  0  0  0  0  0  0  0
  -33.8099   -1.0992   33.1627 C   0  0  0  0  0  0  0  0  0  0  0  0
  -34.1756    0.1438   33.0507 F   0  0  0  0  0  0  0  0  0  0  0  0
  -32.7028   -5.1926   33.5253 C   0  0  0  0  0  0  0  0  0  0  0  0
  -32.0233   -5.7521   32.6856 C   0  0  0  0  0  0  0  0  0  0  0  0
  -31.5162   -5.1082   31.5118 C   0  0  0  0  0  0  0  0  0  0  0  0
  -32.0214   -3.8235   31.3033 C   0  0  0  0  0  0  0  0  0  0  0  0
  -31.3092   -2.8174   30.3944 C   0  0  0  0  0  0  0  0  0  0  0  0
  -31.1623   -3.6434   29.1663 O   0  0  0  0  0  0  0  0  0  0  0  0
  -32.0977   -3.1049   29.8008 C   0  0  0  0  0  0  0  0  0  0  0  0
  2  3  1  0
  7 13  1  0
  5 14  1  0
 14 15  2  0
 14 16  1  0
 16 17  1  0
 17 18  1  0
 18 19  1  0
 18 20  2  0
 17 21  1  0
 27 28  1  0
 17 33  1  0
 32 33  1  0
 33 34  1  0
 33 35  1  0
 21 22  1  0
 24 29  1  0
 29 30  2  0
 30 31  1  0
 31 32  2  0
 32 23  1  0
 22 23  2  0
 23 24  1  0
 24 25  2  0
 25 26  1  0
 26 27  2  0
 27 22  1  0
  3  4  2  0
  4 10  1  0
 10 12  2  0
 12 11  1  0
 11  9  2  0
  9  3  1  0
  1  2  2  0
  2  7  1  0
  7  8  2  0
  8  6  1  0
  6  5  2  0
  5  1  1  0
M  END

$$$$
