No_2710-gen_results/8p0m/2024-11-26-14-13-15/
     RDKit          3D

 18 18  0  0  0  0  0  0  0  0999 V2000
  -28.0162   -0.8135   28.8779 C   0  0  0  0  0  0  0  0  0  0  0  0
  -27.0636   -0.1190   28.6079 C   0  0  0  0  0  0  0  0  0  0  0  0
  -27.0010    0.6913   27.4910 C   0  0  0  0  0  0  0  0  0  0  0  0
  -25.8548    1.4825   27.0830 C   0  0  0  0  0  0  0  0  0  0  0  0
  -24.6901    1.4526   27.8807 C   0  0  0  0  0  0  0  0  0  0  0  0
  -24.7379    0.6010   29.0416 C   0  0  0  0  0  0  0  0  0  0  0  0
  -25.8234   -0.1688   29.3887 C   0  0  0  0  0  0  0  0  0  0  0  0
  -27.9613   -1.6072   30.0877 N   0  0  0  0  0  0  0  0  0  0  0  0
  -23.5206    2.2106   27.5733 C   0  0  0  0  0  0  0  0  0  0  0  0
  -22.9726    2.6850   28.5756 F   0  0  0  0  0  0  0  0  0  0  0  0
  -23.7192    3.2225   26.6905 F   0  0  0  0  0  0  0  0  0  0  0  0
  -22.5441    1.4363   26.9968 F   0  0  0  0  0  0  0  0  0  0  0  0
  -29.1891   -0.5955   28.5044 O   0  0  0  0  0  0  0  0  0  0  0  0
  -29.0646   -2.4660   30.5830 C   0  0  0  0  0  0  0  0  0  0  0  0
  -28.8120   -3.8423   30.3669 C   0  0  0  0  0  0  0  0  0  0  0  0
  -29.9970   -4.6568   30.1039 C   0  0  0  0  0  0  0  0  0  0  0  0
  -29.7096   -5.6977   29.4981 F   0  0  0  0  0  0  0  0  0  0  0  0
  -30.9184   -3.9554   29.4472 F   0  0  0  0  0  0  0  0  0  0  0  0
  1  2  1  0
  1  8  1  0
  5  9  1  0
  9 10  1  0
  9 11  1  0
  9 12  1  0
  1 13  2  0
  8 14  1  0
 14 15  1  0
 15 16  2  3
 16 17  1  0
 16 18  1  0
  2  3  2  0
  3  4  1  0
  4  5  2  0
  5  6  1  0
  6  7  2  0
  7  2  1  0
M  END

$$$$
