No_2955-gen_results/8p0m/2024-11-26-14-13-15/
     RDKit          3D

 15 16  0  0  0  0  0  0  0  0999 V2000
  -28.0162   -0.8135   28.8779 C   0  0  0  0  0  0  0  0  0  0  0  0
  -28.4690   -0.7850   29.8287 C   0  0  0  0  0  0  0  0  0  0  0  0
  -28.1960    0.3478   28.0550 C   0  0  0  0  0  0  0  0  0  0  0  0
  -29.0191    1.3501   28.3782 C   0  0  0  0  0  0  0  0  0  0  0  0
  -29.4107    0.1803   30.3782 C   0  0  0  0  0  0  0  0  0  0  0  0
  -29.6059    1.2495   29.6193 C   0  0  0  0  0  0  0  0  0  0  0  0
  -27.4964    0.3635   26.7983 N   0  0  0  0  0  0  0  0  0  0  0  0
  -26.4285    1.2397   26.5261 C   0  0  0  0  0  0  0  0  0  0  0  0
  -25.1317    0.9908   27.0363 C   0  0  0  0  0  0  0  0  0  0  0  0
  -24.1287    1.9176   26.8444 C   0  0  0  0  0  0  0  0  0  0  0  0
  -22.8262    1.7141   27.4015 C   0  0  0  0  0  0  0  0  0  0  0  0
  -22.5723    0.6145   28.2767 C   0  0  0  0  0  0  0  0  0  0  0  0
  -23.6356   -0.3025   28.4663 C   0  0  0  0  0  0  0  0  0  0  0  0
  -24.8701   -0.1164   27.9147 C   0  0  0  0  0  0  0  0  0  0  0  0
  -26.7477    2.2655   25.9230 O   0  0  0  0  0  0  0  0  0  0  0  0
  3  7  1  0
  7  8  1  0
  8  9  1  0
  8 15  2  0
  9 10  2  0
 10 11  1  0
 11 12  2  0
 12 13  1  0
 13 14  2  0
 14  9  1  0
  1  2  2  0
  2  5  1  0
  5  6  2  0
  6  4  1  0
  4  3  2  0
  3  1  1  0
M  END

$$$$
