No_2883-gen_results/8p0m/2024-11-26-14-13-15/
     RDKit          3D

 27 30  0  0  0  0  0  0  0  0999 V2000
  -28.0162   -0.8135   28.8779 C   0  0  0  0  0  0  0  0  0  0  0  0
  -27.0636   -0.1190   28.6079 C   0  0  0  0  0  0  0  0  0  0  0  0
  -25.7647   -0.3897   29.0360 C   0  0  0  0  0  0  0  0  0  0  0  0
  -24.5516    0.4058   28.7646 C   0  0  0  0  0  0  0  0  0  0  0  0
  -23.2300    0.1178   29.2575 C   0  0  0  0  0  0  0  0  0  0  0  0
  -23.0942   -1.1309   29.8730 C   0  0  0  0  0  0  0  0  0  0  0  0
  -27.7981   -1.9341   29.8560 C   0  0  0  0  0  0  0  0  0  0  0  0
  -26.5420   -2.3269   30.2580 C   0  0  0  0  0  0  0  0  0  0  0  0
  -25.4514   -1.5516   29.9079 C   0  0  0  0  0  0  0  0  0  0  0  0
  -24.1562   -1.9097   30.2809 C   0  0  0  0  0  0  0  0  0  0  0  0
  -24.6450    1.6582   27.9464 C   0  0  0  0  0  0  0  0  0  0  0  0
  -24.8958    2.7559   28.5615 C   0  0  0  0  0  0  0  0  0  0  0  0
  -25.3970    2.9144   29.8358 C   0  0  0  0  0  0  0  0  0  0  0  0
  -25.6667    2.1427   30.6134 C   0  0  0  0  0  0  0  0  0  0  0  0
  -26.1682    2.3914   31.9959 C   0  0  0  0  0  0  0  0  0  0  0  0
  -26.3106    3.7169   32.3231 C   0  0  0  0  0  0  0  0  0  0  0  0
  -25.8766    4.7276   31.4778 C   0  0  0  0  0  0  0  0  0  0  0  0
  -25.4657    4.4278   30.2972 C   0  0  0  0  0  0  0  0  0  0  0  0
  -24.6213    1.3736   26.5759 C   0  0  0  0  0  0  0  0  0  0  0  0
  -24.9398    3.9037   27.7788 O   0  0  0  0  0  0  0  0  0  0  0  0
  -28.9125   -2.6741   30.2148 O   0  0  0  0  0  0  0  0  0  0  0  0
  -29.9588   -2.0686   30.7712 C   0  0  0  0  0  0  0  0  0  0  0  0
  -29.8805   -1.1495   31.5547 C   0  0  0  0  0  0  0  0  0  0  0  0
  -31.0344   -0.4165   32.0075 C   0  0  0  0  0  0  0  0  0  0  0  0
  -32.2287   -0.9125   31.6239 C   0  0  0  0  0  0  0  0  0  0  0  0
  -31.2384   -2.5534   30.3101 C   0  0  0  0  0  0  0  0  0  0  0  0
  -32.3201   -1.9353   30.7470 N   0  0  0  0  0  0  0  0  0  0  0  0
  4 11  1  0
 11 12  1  0
 12 13  1  0
 11 19  1  0
 12 20  2  0
  7 21  1  0
 21 22  1  0
 13 14  2  0
 14 15  1  0
 15 16  2  0
 16 17  1  0
 17 18  2  0
 18 13  1  0
  1  2  2  0
  2  3  1  0
  9  8  1  0
  8  7  2  0
  7  1  1  0
 22 23  2  0
 23 24  1  0
 24 25  2  0
 25 27  1  0
 27 26  2  0
 26 22  1  0
  3  4  2  0
  4  5  1  0
  5  6  2  0
  6 10  1  0
 10  9  2  0
  9  3  1  0
M  END

$$$$
