No_2543-gen_results/8p0m/2024-11-26-14-13-15/
     RDKit          3D

 28 29  0  0  0  0  0  0  0  0999 V2000
  -28.0162   -0.8135   28.8779 C   0  0  0  0  0  0  0  0  0  0  0  0
  -27.0636   -0.1190   28.6079 C   0  0  0  0  0  0  0  0  0  0  0  0
  -26.9716    0.7139   27.5060 C   0  0  0  0  0  0  0  0  0  0  0  0
  -25.8205    1.4909   27.1160 C   0  0  0  0  0  0  0  0  0  0  0  0
  -24.6562    1.4242   27.9180 C   0  0  0  0  0  0  0  0  0  0  0  0
  -24.6847    0.5901   29.0659 C   0  0  0  0  0  0  0  0  0  0  0  0
  -25.8099   -0.1265   29.3338 C   0  0  0  0  0  0  0  0  0  0  0  0
  -28.7093   -0.4588   30.1754 C   0  0  0  0  0  0  0  0  0  0  0  0
  -29.8413   -0.5172   30.3363 C   0  0  0  0  0  0  0  0  0  0  0  0
  -30.5204   -0.1428   31.5516 C   0  0  0  0  0  0  0  0  0  0  0  0
  -29.7176    0.2591   32.6363 C   0  0  0  0  0  0  0  0  0  0  0  0
  -28.3548    0.2570   32.5160 C   0  0  0  0  0  0  0  0  0  0  0  0
  -27.8102   -0.0950   31.3504 C   0  0  0  0  0  0  0  0  0  0  0  0
  -23.4418    2.1441   27.5590 C   0  0  0  0  0  0  0  0  0  0  0  0
  -23.3675    3.0115   26.6845 N   0  0  0  0  0  0  0  0  0  0  0  0
  -22.3640    2.0232   28.3097 O   0  0  0  0  0  0  0  0  0  0  0  0
  -28.1426    0.9015   26.6142 C   0  0  0  0  0  0  0  0  0  0  0  0
  -29.1072    1.4576   26.9425 O   0  0  0  0  0  0  0  0  0  0  0  0
  -28.1573    0.0927   25.5099 O   0  0  0  0  0  0  0  0  0  0  0  0
  -30.7700   -0.8277   29.3705 O   0  0  0  0  0  0  0  0  0  0  0  0
  -31.6419   -0.1123   28.9179 C   0  0  0  0  0  0  0  0  0  0  0  0
  -32.9104   -0.7007   28.8180 C   0  0  0  0  0  0  0  0  0  0  0  0
  -33.1239   -1.8208   28.9544 O   0  0  0  0  0  0  0  0  0  0  0  0
  -33.9779    0.0604   28.5175 O   0  0  0  0  0  0  0  0  0  0  0  0
  -27.5974    0.5825   33.5076 F   0  0  0  0  0  0  0  0  0  0  0  0
  -28.8755    0.5338   24.4623 C   0  0  0  0  0  0  0  0  0  0  0  0
  -28.9761    1.8491   24.2858 C   0  0  0  0  0  0  0  0  0  0  0  0
  -29.8071    2.6114   25.0755 C   0  0  0  0  0  0  0  0  0  0  0  0
  1  2  2  3
  2  3  1  0
  3  4  1  0
  4  5  1  0
  5  6  1  0
  2  7  1  0
  6  7  1  0
  1  8  1  0
  5 14  1  0
 14 15  1  0
 14 16  2  0
  3 17  1  0
 17 18  2  0
 17 19  1  0
  9 20  1  0
 20 21  1  0
 21 22  1  0
 22 23  2  0
 22 24  1  0
 12 25  1  0
 19 26  1  0
 26 27  1  0
 27 28  1  0
  8  9  2  0
  9 10  1  0
 10 11  2  0
 11 12  1  0
 12 13  2  0
 13  8  1  0
M  END

$$$$
