No_2218-gen_results/8p0m/2024-11-26-14-13-15/
     RDKit          3D

 13 14  0  0  0  0  0  0  0  0999 V2000
  -28.0162   -0.8135   28.8779 C   0  0  0  0  0  0  0  0  0  0  0  0
  -28.4690   -0.7850   29.8287 C   0  0  0  0  0  0  0  0  0  0  0  0
  -26.5042   -0.7777   28.8766 C   0  0  0  0  0  0  0  0  0  0  0  0
  -25.6540   -0.6597   27.7191 C   0  0  0  0  0  0  0  0  0  0  0  0
  -29.9920   -0.8134   29.9579 C   0  0  0  0  0  0  0  0  0  0  0  0
  -24.2351   -0.6217   27.9719 C   0  0  0  0  0  0  0  0  0  0  0  0
  -23.7091   -0.7791   29.2532 C   0  0  0  0  0  0  0  0  0  0  0  0
  -24.4887   -0.9098   30.3453 C   0  0  0  0  0  0  0  0  0  0  0  0
  -25.8453   -0.9368   30.1856 C   0  0  0  0  0  0  0  0  0  0  0  0
  -30.5519   -0.7287   28.7598 C   0  0  0  0  0  0  0  0  0  0  0  0
  -29.8995   -0.4607   27.6168 C   0  0  0  0  0  0  0  0  0  0  0  0
  -28.5596   -0.4031   27.6449 C   0  0  0  0  0  0  0  0  0  0  0  0
  -27.9350   -1.0645   31.1117 F   0  0  0  0  0  0  0  0  0  0  0  0
  2 13  1  0
  3  1  1  0
  3  4  2  0
  4  6  1  0
  6  7  2  0
  7  8  1  0
  8  9  2  0
  9  3  1  0
  1  2  2  0
  2  5  1  0
  5 10  2  0
 10 11  1  0
 11 12  2  0
 12  1  1  0
M  END

$$$$
