No_2823-gen_results/8p0m/2024-11-26-14-13-15/
     RDKit          3D

 29 32  0  0  0  0  0  0  0  0999 V2000
  -28.0162   -0.8135   28.8779 C   0  0  0  0  0  0  0  0  0  0  0  0
  -28.4690   -0.7850   29.8287 C   0  0  0  0  0  0  0  0  0  0  0  0
  -26.5455   -0.8762   28.8500 C   0  0  0  0  0  0  0  0  0  0  0  0
  -25.8041   -1.0324   30.0571 C   0  0  0  0  0  0  0  0  0  0  0  0
  -27.9437   -0.9869   31.2075 C   0  0  0  0  0  0  0  0  0  0  0  0
  -26.5825   -1.0386   31.2231 C   0  0  0  0  0  0  0  0  0  0  0  0
  -30.0606   -0.7371   29.9024 C   0  0  0  0  0  0  0  0  0  0  0  0
  -30.5524   -0.2769   29.0111 O   0  0  0  0  0  0  0  0  0  0  0  0
  -30.7429   -1.2890   30.9939 N   0  0  0  0  0  0  0  0  0  0  0  0
  -32.1712   -1.2600   30.9749 C   0  0  0  0  0  0  0  0  0  0  0  0
  -24.3688   -1.0881   30.0880 C   0  0  0  0  0  0  0  0  0  0  0  0
  -23.7192    0.1799   30.0181 C   0  0  0  0  0  0  0  0  0  0  0  0
  -22.4705    0.3023   29.3244 C   0  0  0  0  0  0  0  0  0  0  0  0
  -21.8405   -0.9655   29.0202 C   0  0  0  0  0  0  0  0  0  0  0  0
  -22.5723   -2.1038   28.9811 C   0  0  0  0  0  0  0  0  0  0  0  0
  -23.8167   -2.2222   29.5193 C   0  0  0  0  0  0  0  0  0  0  0  0
  -32.7019   -2.0908   31.6972 C   0  0  0  0  0  0  0  0  0  0  0  0
  -32.0050   -2.8803   32.7171 C   0  0  0  0  0  0  0  0  0  0  0  0
  -30.5953   -2.8845   32.6779 C   0  0  0  0  0  0  0  0  0  0  0  0
  -29.9794   -2.1983   31.7747 C   0  0  0  0  0  0  0  0  0  0  0  0
  -28.5462   -2.0121   31.9157 C   0  0  0  0  0  0  0  0  0  0  0  0
  -25.7411   -0.6523   27.6002 C   0  0  0  0  0  0  0  0  0  0  0  0
  -24.6165   -3.6801   29.4891 Cl  0  0  0  0  0  0  0  0  0  0  0  0
  -34.2189   -2.1075   31.8340 C   0  0  0  0  0  0  0  0  0  0  0  0
  -34.8815   -2.8073   31.1895 O   0  0  0  0  0  0  0  0  0  0  0  0
  -34.7891   -1.2194   32.6648 O   0  0  0  0  0  0  0  0  0  0  0  0
  -24.2994    1.4605   30.5657 C   0  0  0  0  0  0  0  0  0  0  0  0
  -24.6530    2.4172   29.8491 O   0  0  0  0  0  0  0  0  0  0  0  0
  -24.6000    1.4248   31.9389 O   0  0  0  0  0  0  0  0  0  0  0  0
  2  7  1  0
  7  8  2  0
  7  9  1  0
  9 10  1  0
  4 11  1  0
 17 18  1  0
  9 20  1  0
 19 20  1  0
  5 21  1  0
 20 21  1  0
  3 22  1  0
 16 23  1  0
 17 24  1  0
 24 25  2  0
 24 26  1  0
 12 27  1  0
 27 28  2  0
 27 29  1  0
 10 17  1  0
 18 19  1  0
 11 12  2  0
 12 13  1  0
 13 14  2  0
 14 15  1  0
 15 16  2  0
 16 11  1  0
  1  2  2  0
  2  5  1  0
  5  6  2  0
  6  4  1  0
  4  3  2  0
  3  1  1  0
M  END

$$$$
