No_2557-gen_results/8p0m/2024-11-26-14-13-15/
     RDKit          3D

 10  9  0  0  0  0  0  0  0  0999 V2000
  -28.0727   -1.2542   28.5316 F   0  0  0  0  0  0  0  0  0  0  0  0
  -27.3591   -0.3792   28.7224 C   0  0  0  0  0  0  0  0  0  0  0  0
  -26.3323   -0.6441   29.4520 C   0  0  0  0  0  0  0  0  0  0  0  0
  -28.0486    0.8353   29.2802 C   0  0  0  0  0  0  0  0  0  0  0  0
  -26.2754   -1.7121   30.4206 Cl  0  0  0  0  0  0  0  0  0  0  0  0
  -27.3600    1.6888   29.7289 F   0  0  0  0  0  0  0  0  0  0  0  0
  -29.0806    1.2432   28.5572 F   0  0  0  0  0  0  0  0  0  0  0  0
  -26.8962    0.0206   27.4852 F   0  0  0  0  0  0  0  0  0  0  0  0
  -25.6080    0.4794   30.1456 C   0  0  0  0  0  0  0  0  0  0  0  0
  -24.1873    0.3245   30.7181 C   0  0  0  0  0  0  0  0  0  0  0  0
  1  2  1  0
  2  3  1  0
  2  4  1  0
  3  5  1  0
  4  6  1  0
  4  7  1  0
  2  8  1  0
  3  9  1  0
  9 10  1  0
M  END

$$$$
