No_2191-gen_results/8p0m/2024-11-26-14-13-15/
     RDKit          3D

 10 10  0  0  0  0  0  0  0  0999 V2000
  -28.1493   -0.8198   28.9079 Cl  0  0  0  0  0  0  0  0  0  0  0  0
  -27.8339    0.4961   29.0598 C   0  0  0  0  0  0  0  0  0  0  0  0
  -27.8833    1.0376   30.1944 F   0  0  0  0  0  0  0  0  0  0  0  0
  -27.4481    1.3047   27.9430 C   0  0  0  0  0  0  0  0  0  0  0  0
  -26.3903    1.3950   27.3668 C   0  0  0  0  0  0  0  0  0  0  0  0
  -26.0898    2.2248   26.1763 C   0  0  0  0  0  0  0  0  0  0  0  0
  -24.7839    2.3616   25.6592 C   0  0  0  0  0  0  0  0  0  0  0  0
  -23.7154    1.6076   26.2899 C   0  0  0  0  0  0  0  0  0  0  0  0
  -23.9652    0.8128   27.3591 C   0  0  0  0  0  0  0  0  0  0  0  0
  -25.1638    0.7166   27.8644 C   0  0  0  0  0  0  0  0  0  0  0  0
  1  2  1  0
  2  3  1  0
  2  4  1  0
  4  5  1  0
  5  6  2  0
  6  7  1  0
  7  8  2  0
  8  9  1  0
  9 10  2  0
 10  5  1  0
M  END

$$$$
