No_2991-gen_results/8p0m/2024-11-26-14-13-15/
     RDKit          3D

 12 12  0  0  0  0  0  0  0  0999 V2000
  -28.0162   -0.8135   28.8779 C   0  0  0  0  0  0  0  0  0  0  0  0
  -27.0636   -0.1190   28.6079 C   0  0  0  0  0  0  0  0  0  0  0  0
  -25.7923   -0.4302   29.0761 C   0  0  0  0  0  0  0  0  0  0  0  0
  -25.5756   -1.5654   29.9363 C   0  0  0  0  0  0  0  0  0  0  0  0
  -26.7354   -2.3004   30.2173 C   0  0  0  0  0  0  0  0  0  0  0  0
  -27.9184   -1.9537   29.7629 C   0  0  0  0  0  0  0  0  0  0  0  0
  -29.0732   -2.7835   30.1783 C   0  0  0  0  0  0  0  0  0  0  0  0
  -29.0022   -3.9850   30.2347 O   0  0  0  0  0  0  0  0  0  0  0  0
  -30.1809   -2.1900   30.4596 O   0  0  0  0  0  0  0  0  0  0  0  0
  -27.0949    1.1102   27.7546 C   0  0  0  0  0  0  0  0  0  0  0  0
  -26.1987    1.4406   26.9167 C   0  0  0  0  0  0  0  0  0  0  0  0
  -24.8225    0.9093   27.1901 C   0  0  0  0  0  0  0  0  0  0  0  0
  6  7  1  0
  7  8  2  0
  7  9  1  0
  2 10  1  0
 10 11  2  3
 11 12  1  0
  1  2  2  0
  2  3  1  0
  3  4  2  0
  4  5  1  0
  5  6  2  0
  6  1  1  0
M  END

$$$$
