No_2854-gen_results/8p0m/2024-11-26-14-13-15/
     RDKit          3D

 17 18  0  0  0  0  0  0  0  0999 V2000
  -28.0162   -0.8135   28.8779 C   0  0  0  0  0  0  0  0  0  0  0  0
  -28.4690   -0.7850   29.8287 C   0  0  0  0  0  0  0  0  0  0  0  0
  -26.5042   -0.7777   28.8766 C   0  0  0  0  0  0  0  0  0  0  0  0
  -25.8103   -0.8531   30.1028 C   0  0  0  0  0  0  0  0  0  0  0  0
  -27.9906   -0.8916   31.2257 C   0  0  0  0  0  0  0  0  0  0  0  0
  -26.6042   -0.8676   31.2652 C   0  0  0  0  0  0  0  0  0  0  0  0
  -29.9765   -0.8288   29.8497 N   0  0  0  0  0  0  0  0  0  0  0  0
  -30.7392   -1.6442   30.3465 C   0  0  0  0  0  0  0  0  0  0  0  0
  -31.3713   -2.3649   30.0343 C   0  0  0  0  0  0  0  0  0  0  0  0
  -32.1698   -3.4142   30.7667 C   0  0  0  0  0  0  0  0  0  0  0  0
  -31.9906   -3.3570   32.1474 C   0  0  0  0  0  0  0  0  0  0  0  0
  -31.1398   -2.5060   32.7169 C   0  0  0  0  0  0  0  0  0  0  0  0
  -30.3999   -1.6387   31.9457 C   0  0  0  0  0  0  0  0  0  0  0  0
  -30.5688    0.1726   28.9778 C   0  0  0  0  0  0  0  0  0  0  0  0
  -31.2103    1.1158   29.5349 C   0  0  0  0  0  0  0  0  0  0  0  0
  -31.0089    1.8564   30.3463 C   0  0  0  0  0  0  0  0  0  0  0  0
  -31.8141    2.9664   30.8746 C   0  0  0  0  0  0  0  0  0  0  0  0
  2  7  1  0
  7  8  1  0
  7 14  1  0
 14 15  1  0
 15 16  2  3
 16 17  1  0
  8  9  2  0
  9 10  1  0
 10 11  2  0
 11 12  1  0
 12 13  2  0
 13  8  1  0
  1  2  2  0
  2  5  1  0
  5  6  2  0
  6  4  1  0
  4  3  2  0
  3  1  1  0
M  END

$$$$
