No_2582-gen_results/8p0m/2024-11-26-14-13-15/
     RDKit          3D

 15 16  0  0  0  0  0  0  0  0999 V2000
  -28.0162   -0.8135   28.8779 C   0  0  0  0  0  0  0  0  0  0  0  0
  -27.0636   -0.1189   28.6079 C   0  0  0  0  0  0  0  0  0  0  0  0
  -27.0010    0.6913   27.4910 C   0  0  0  0  0  0  0  0  0  0  0  0
  -28.1373    0.7363   26.6350 C   0  0  0  0  0  0  0  0  0  0  0  0
  -29.2360    0.0765   27.0690 C   0  0  0  0  0  0  0  0  0  0  0  0
  -29.2177   -0.6429   28.1747 C   0  0  0  0  0  0  0  0  0  0  0  0
  -30.4319    0.1612   26.4594 F   0  0  0  0  0  0  0  0  0  0  0  0
  -25.6923   -0.0795   29.1546 N   0  0  0  0  0  0  0  0  0  0  0  0
  -25.3369   -0.9123   30.1562 C   0  0  0  0  0  0  0  0  0  0  0  0
  -24.0257   -0.8139   30.6064 C   0  0  0  0  0  0  0  0  0  0  0  0
  -23.3581    0.1688   29.8663 C   0  0  0  0  0  0  0  0  0  0  0  0
  -24.5392    0.6798   28.8383 C   0  0  0  0  0  0  0  0  0  0  0  0
  -24.3056    1.6206   27.8681 C   0  0  0  0  0  0  0  0  0  0  0  0
  -23.6668    1.5738   26.7882 C   0  0  0  0  0  0  0  0  0  0  0  0
  -23.4515    2.7318   25.8991 C   0  0  0  0  0  0  0  0  0  0  0  0
  5  7  1  0
  2  8  1  0
  8  9  1  0
  9 10  2  0
 10 11  1  0
  8 12  1  0
 11 12  2  0
 12 13  1  0
 13 14  2  3
 14 15  1  0
  1  2  2  0
  2  3  1  0
  3  4  2  0
  4  5  1  0
  5  6  2  0
  6  1  1  0
M  END

$$$$
