No_2053-gen_results/8p0m/2024-11-26-14-13-15/
     RDKit          3D

 23 24  0  0  0  0  0  0  0  0999 V2000
  -28.0162   -0.8135   28.8779 C   0  0  0  0  0  0  0  0  0  0  0  0
  -27.0636   -0.1189   28.6079 C   0  0  0  0  0  0  0  0  0  0  0  0
  -27.0010    0.6913   27.4910 C   0  0  0  0  0  0  0  0  0  0  0  0
  -27.1778    1.9037   27.5632 C   0  0  0  0  0  0  0  0  0  0  0  0
  -29.3113   -0.2245   28.4756 C   0  0  0  0  0  0  0  0  0  0  0  0
  -28.7654    2.1211   27.8478 C   0  0  0  0  0  0  0  0  0  0  0  0
  -29.6074    1.1032   28.3182 C   0  0  0  0  0  0  0  0  0  0  0  0
  -25.6837   -0.6984   29.0834 C   0  0  0  0  0  0  0  0  0  0  0  0
  -24.7138   -0.1645   28.7213 O   0  0  0  0  0  0  0  0  0  0  0  0
  -25.6359   -1.7976   29.8576 N   0  0  0  0  0  0  0  0  0  0  0  0
  -24.3464   -2.3418   30.2719 C   0  0  0  0  0  0  0  0  0  0  0  0
  -26.7647   -2.5324   30.2537 C   0  0  0  0  0  0  0  0  0  0  0  0
  -28.0546   -1.9283   29.8769 C   0  0  0  0  0  0  0  0  0  0  0  0
  -30.9784    1.5739   28.5314 C   0  0  0  0  0  0  0  0  0  0  0  0
  -31.4170    2.4283   28.2111 O   0  0  0  0  0  0  0  0  0  0  0  0
  -31.6461    0.6231   29.2918 O   0  0  0  0  0  0  0  0  0  0  0  0
  -29.1832   -2.4229   30.3468 O   0  0  0  0  0  0  0  0  0  0  0  0
  -29.1866   -3.2352   31.4280 C   0  0  0  0  0  0  0  0  0  0  0  0
  -30.0682   -2.7073   32.4777 C   0  0  0  0  0  0  0  0  0  0  0  0
  -30.1436   -1.6124   32.6845 O   0  0  0  0  0  0  0  0  0  0  0  0
  -30.4414   -1.0686   33.9153 C   0  0  0  0  0  0  0  0  0  0  0  0
  -30.1445    0.2599   34.1476 C   0  0  0  0  0  0  0  0  0  0  0  0
  -30.4186    0.8222   35.2718 C   0  0  0  0  0  0  0  0  0  0  0  0
  1  2  1  0
  2  3  1  0
  3  4  2  0
  1  5  1  0
  4  6  1  0
  5  7  2  0
  6  7  1  0
  2  8  1  0
  8  9  2  0
  8 10  1  0
 10 11  1  0
 10 12  1  0
  1 13  1  0
  7 14  1  0
 14 15  2  0
 14 16  1  0
 13 17  1  0
 17 18  1  0
 18 19  1  0
 19 20  1  0
 20 21  1  0
 21 22  2  3
 22 23  1  0
 13 12  1  0
M  END

$$$$
