No_288-gen_results/8p0m/2024-11-26-14-13-15/
     RDKit          3D

 15 17  0  0  0  0  0  0  0  0999 V2000
  -28.0162   -0.8135   28.8779 C   0  0  0  0  0  0  0  0  0  0  0  0
  -27.0636   -0.1189   28.6079 C   0  0  0  0  0  0  0  0  0  0  0  0
  -25.7923   -0.4302   29.0761 C   0  0  0  0  0  0  0  0  0  0  0  0
  -24.5456    0.3494   28.8225 C   0  0  0  0  0  0  0  0  0  0  0  0
  -23.2409    0.0217   29.3323 C   0  0  0  0  0  0  0  0  0  0  0  0
  -22.1362    0.7695   29.0059 C   0  0  0  0  0  0  0  0  0  0  0  0
  -29.3516   -0.3508   28.7011 C   0  0  0  0  0  0  0  0  0  0  0  0
  -29.5331    0.7200   27.8442 C   0  0  0  0  0  0  0  0  0  0  0  0
  -28.4343    1.4357   27.3693 C   0  0  0  0  0  0  0  0  0  0  0  0
  -27.1113    1.0941   27.8118 C   0  0  0  0  0  0  0  0  0  0  0  0
  -22.1684    1.8197   28.0988 C   0  0  0  0  0  0  0  0  0  0  0  0
  -23.4344    2.1623   27.5486 C   0  0  0  0  0  0  0  0  0  0  0  0
  -24.5633    1.4259   27.8559 C   0  0  0  0  0  0  0  0  0  0  0  0
  -25.9399    1.8110   27.4075 C   0  0  0  0  0  0  0  0  0  0  0  0
  -26.0125    2.8315   26.6395 O   0  0  0  0  0  0  0  0  0  0  0  0
  3  4  1  0
 10 14  1  0
 13 14  1  0
 14 15  2  0
  2  3  1  0
  1  2  2  0
  2 10  1  0
 10  9  2  0
  9  8  1  0
  8  7  2  0
  7  1  1  0
  4  5  2  0
  5  6  1  0
  6 11  2  0
 11 12  1  0
 12 13  2  0
 13  4  1  0
M  END

$$$$
