No_2997-gen_results/8p0m/2024-11-26-14-13-15/
     RDKit          3D

 20 21  0  0  0  0  0  0  0  0999 V2000
  -28.0162   -0.8135   28.8779 C   0  0  0  0  0  0  0  0  0  0  0  0
  -28.4690   -0.7850   29.8287 C   0  0  0  0  0  0  0  0  0  0  0  0
  -26.5042   -0.7777   28.8766 C   0  0  0  0  0  0  0  0  0  0  0  0
  -25.8103   -0.8531   30.1028 C   0  0  0  0  0  0  0  0  0  0  0  0
  -27.9906   -0.8916   31.2257 C   0  0  0  0  0  0  0  0  0  0  0  0
  -26.6042   -0.8676   31.2652 C   0  0  0  0  0  0  0  0  0  0  0  0
  -29.9385   -0.8194   29.8358 O   0  0  0  0  0  0  0  0  0  0  0  0
  -30.6393    0.2340   30.2522 C   0  0  0  0  0  0  0  0  0  0  0  0
  -31.7597    0.2238   30.0390 C   0  0  0  0  0  0  0  0  0  0  0  0
  -32.6044    1.4051   30.4106 C   0  0  0  0  0  0  0  0  0  0  0  0
  -31.9249    2.4725   31.0455 C   0  0  0  0  0  0  0  0  0  0  0  0
  -30.5796    2.3814   31.2575 C   0  0  0  0  0  0  0  0  0  0  0  0
  -29.8580    1.3049   30.8845 C   0  0  0  0  0  0  0  0  0  0  0  0
  -24.3768   -0.8832   30.1298 C   0  0  0  0  0  0  0  0  0  0  0  0
  -23.7077   -1.1940   30.8731 C   0  0  0  0  0  0  0  0  0  0  0  0
  -23.7501   -0.5072   28.8042 C   0  0  0  0  0  0  0  0  0  0  0  0
  -24.0184    0.4182   27.9444 C   0  0  0  0  0  0  0  0  0  0  0  0
  -23.5877    1.7952   27.9593 C   0  0  0  0  0  0  0  0  0  0  0  0
  -24.0150    2.6841   26.9448 C   0  0  0  0  0  0  0  0  0  0  0  0
  -24.9884    2.2705   26.0389 C   0  0  0  0  0  0  0  0  0  0  0  0
  2  7  1  0
  7  8  1  0
  4 14  1  0
 14 15  1  0
 14 16  1  0
 16 17  2  3
 17 18  1  0
 18 19  2  3
 19 20  1  0
  8  9  2  0
  9 10  1  0
 10 11  2  0
 11 12  1  0
 12 13  2  0
 13  8  1  0
  1  2  2  0
  2  5  1  0
  5  6  2  0
  6  4  1  0
  4  3  2  0
  3  1  1  0
M  END

$$$$
