No_2919-gen_results/8p0m/2024-11-26-14-13-15/
     RDKit          3D

 35 38  0  0  0  0  0  0  0  0999 V2000
  -28.0544   -1.0498   28.7246 N   0  0  0  0  0  0  0  0  0  0  0  0
  -28.6544   -0.5669   29.5076 C   0  0  0  0  0  0  0  0  0  0  0  0
  -26.6945   -1.3221   29.0236 C   0  0  0  0  0  0  0  0  0  0  0  0
  -26.4530   -1.6393   30.3247 C   0  0  0  0  0  0  0  0  0  0  0  0
  -25.0163   -1.8124   30.7024 C   0  0  0  0  0  0  0  0  0  0  0  0
  -30.0806   -0.3120   29.1932 N   0  0  0  0  0  0  0  0  0  0  0  0
  -28.3447   -0.1235   30.8572 C   0  0  0  0  0  0  0  0  0  0  0  0
  -27.3649   -1.2000   31.3755 C   0  0  0  0  0  0  0  0  0  0  0  0
  -30.3902    0.2212   28.0531 C   0  0  0  0  0  0  0  0  0  0  0  0
  -29.5772    0.6361   27.3117 O   0  0  0  0  0  0  0  0  0  0  0  0
  -31.8546    0.2308   27.7020 C   0  0  0  0  0  0  0  0  0  0  0  0
  -32.6592    0.8380   28.4937 C   0  0  0  0  0  0  0  0  0  0  0  0
  -32.3681    1.9257   28.8719 O   0  0  0  0  0  0  0  0  0  0  0  0
  -33.5291    0.0797   29.2186 N   0  0  0  0  0  0  0  0  0  0  0  0
  -33.9123   -1.2500   28.9922 C   0  0  0  0  0  0  0  0  0  0  0  0
  -34.3687    0.7370   30.3255 C   0  0  0  0  0  0  0  0  0  0  0  0
  -24.1541   -2.1838   29.6923 C   0  0  0  0  0  0  0  0  0  0  0  0
  -25.6508   -1.7351   28.1641 C   0  0  0  0  0  0  0  0  0  0  0  0
  -24.4160   -2.0225   28.4180 C   0  0  0  0  0  0  0  0  0  0  0  0
  -35.2286    0.1923   30.7151 C   0  0  0  0  0  0  0  0  0  0  0  0
  -35.0399   -1.8250   29.5969 C   0  0  0  0  0  0  0  0  0  0  0  0
  -35.6716   -1.1407   30.5753 C   0  0  0  0  0  0  0  0  0  0  0  0
  -35.3481   -3.2252   29.2910 C   0  0  0  0  0  0  0  0  0  0  0  0
  -34.3873   -3.9994   28.7919 C   0  0  0  0  0  0  0  0  0  0  0  0
  -34.6529   -5.3192   28.4651 C   0  0  0  0  0  0  0  0  0  0  0  0
  -35.9352   -5.7849   28.6159 C   0  0  0  0  0  0  0  0  0  0  0  0
  -36.8996   -4.9749   29.1150 C   0  0  0  0  0  0  0  0  0  0  0  0
  -36.6124   -3.6913   29.4722 C   0  0  0  0  0  0  0  0  0  0  0  0
  -32.2388   -0.3299   26.4535 C   0  0  0  0  0  0  0  0  0  0  0  0
  -31.7232   -1.8260   26.0977 P   0  0  0  0  0  0  0  0  0  0  0  0
  -30.7748   -1.6359   25.3885 O   0  0  0  0  0  0  0  0  0  0  0  0
  -32.9614   -2.4339   25.3417 O   0  0  0  0  0  0  0  0  0  0  0  0
  -31.5360   -2.6264   27.4043 O   0  0  0  0  0  0  0  0  0  0  0  0
  -36.2363   -7.1846   28.2497 C   0  0  0  0  0  0  0  0  0  0  0  0
  -36.6109   -7.7407   27.2473 Cl  0  0  0  0  0  0  0  0  0  0  0  0
  1  2  1  0
  1  3  1  0
  2  6  1  0
  2  7  1  0
  4  8  1  0
  7  8  1  0
  6  9  1  0
  9 10  2  0
  9 11  1  0
 11 12  1  0
 12 13  2  0
 12 14  1  0
 14 15  1  0
 14 16  1  0
 20 22  1  0
 21 22  1  0
 21 23  1  0
 11 29  1  0
 29 30  1  0
 30 31  1  0
 30 32  2  0
 30 33  1  0
 26 34  1  0
 34 35  1  0
 15 21  1  0
 20 16  1  0
  3  4  2  0
  4  5  1  0
  5 17  2  0
 17 19  1  0
 19 18  2  0
 18  3  1  0
 23 24  2  0
 24 25  1  0
 25 26  2  0
 26 27  1  0
 27 28  2  0
 28 23  1  0
M  END

$$$$
