No_2084-gen_results/8p0m/2024-11-26-14-13-15/
     RDKit          3D

 15 16  0  0  0  0  0  0  0  0999 V2000
  -28.0162   -0.8135   28.8779 C   0  0  0  0  0  0  0  0  0  0  0  0
  -28.4690   -0.7850   29.8287 C   0  0  0  0  0  0  0  0  0  0  0  0
  -28.1816    0.4277   28.1134 C   0  0  0  0  0  0  0  0  0  0  0  0
  -27.4498    0.6435   26.8500 C   0  0  0  0  0  0  0  0  0  0  0  0
  -26.4529    0.9939   26.6681 C   0  0  0  0  0  0  0  0  0  0  0  0
  -25.1811    0.8624   26.8164 C   0  0  0  0  0  0  0  0  0  0  0  0
  -24.2188    1.6769   26.2404 C   0  0  0  0  0  0  0  0  0  0  0  0
  -28.2845   -2.0061   30.8379 C   0  0  0  0  0  0  0  0  0  0  0  0
  -27.4848   -3.0044   30.3225 C   0  0  0  0  0  0  0  0  0  0  0  0
  -26.6705   -2.8299   29.2831 C   0  0  0  0  0  0  0  0  0  0  0  0
  -26.8656   -1.6136   28.5481 C   0  0  0  0  0  0  0  0  0  0  0  0
  -23.5791    2.6321   26.1021 C   0  0  0  0  0  0  0  0  0  0  0  0
  -28.5368    0.6321   25.8429 C   0  0  0  0  0  0  0  0  0  0  0  0
  -27.8569    1.0755   24.7077 C   0  0  0  0  0  0  0  0  0  0  0  0
  -26.4969    1.3430   25.1170 C   0  0  0  0  0  0  0  0  0  0  0  0
  3  4  1  0
  4  5  2  0
  5  6  1  0
  6  7  2  3
  7 12  1  0
  4 13  1  0
 13 14  2  0
  5 15  1  0
 14 15  1  0
  3  1  1  0
  1  2  2  0
  2  8  1  0
  8  9  2  0
  9 10  1  0
 10 11  2  0
 11  1  1  0
M  END

$$$$
