No_2807-gen_results/8p0m/2024-11-26-14-13-15/
     RDKit          3D

 23 24  0  0  0  0  0  0  0  0999 V2000
  -28.0162   -0.8135   28.8779 C   0  0  0  0  0  0  0  0  0  0  0  0
  -27.0636   -0.1190   28.6079 C   0  0  0  0  0  0  0  0  0  0  0  0
  -26.8756    1.1325   28.9134 C   0  0  0  0  0  0  0  0  0  0  0  0
  -27.9014    1.8066   29.6436 C   0  0  0  0  0  0  0  0  0  0  0  0
  -29.0458   -0.2316   29.7181 C   0  0  0  0  0  0  0  0  0  0  0  0
  -28.9402    1.0517   30.0597 C   0  0  0  0  0  0  0  0  0  0  0  0
  -25.7206   -0.8229   27.6886 Cl  0  0  0  0  0  0  0  0  0  0  0  0
  -30.0291    1.6913   30.8750 C   0  0  0  0  0  0  0  0  0  0  0  0
  -31.0856    1.9481   30.6939 C   0  0  0  0  0  0  0  0  0  0  0  0
  -32.0163    2.5979   31.5961 C   0  0  0  0  0  0  0  0  0  0  0  0
  -29.4576    2.0205   32.2782 C   0  0  0  0  0  0  0  0  0  0  0  0
  -30.2886    2.6575   33.1936 C   0  0  0  0  0  0  0  0  0  0  0  0
  -31.5588    2.9416   32.8432 C   0  0  0  0  0  0  0  0  0  0  0  0
  -32.4602    3.6146   33.8001 C   0  0  0  0  0  0  0  0  0  0  0  0
  -32.0906    4.1190   34.8093 O   0  0  0  0  0  0  0  0  0  0  0  0
  -33.7348    3.6110   33.4264 O   0  0  0  0  0  0  0  0  0  0  0  0
  -31.6253    1.6319   29.4559 O   0  0  0  0  0  0  0  0  0  0  0  0
  -32.5389    0.7091   29.2660 C   0  0  0  0  0  0  0  0  0  0  0  0
  -32.5545    0.2707   27.9910 C   0  0  0  0  0  0  0  0  0  0  0  0
  -31.8017    0.8670   27.0225 C   0  0  0  0  0  0  0  0  0  0  0  0
  -31.5623    2.0902   26.9787 C   0  0  0  0  0  0  0  0  0  0  0  0
  -31.1891    0.0002   25.9553 C   0  0  0  0  0  0  0  0  0  0  0  0
  -31.4635   -1.1359   25.8731 O   0  0  0  0  0  0  0  0  0  0  0  0
  2  7  1  0
  6  8  1  0
 13 14  1  0
 14 15  2  0
 14 16  1  0
  9 17  1  0
 17 18  1  0
 18 19  2  3
 19 20  1  0
 20 21  1  0
 20 22  1  0
 22 23  2  0
  8  9  2  0
  9 10  1  0
 10 13  2  0
 13 12  1  0
 12 11  2  0
 11  8  1  0
  1  2  2  0
  2  3  1  0
  3  4  2  0
  4  6  1  0
  6  5  2  0
  5  1  1  0
M  END

$$$$
