No_2390-gen_results/8p0m/2024-11-26-14-13-15/
     RDKit          3D

 20 21  0  0  0  0  0  0  0  0999 V2000
  -28.0162   -0.8135   28.8779 C   0  0  0  0  0  0  0  0  0  0  0  0
  -27.0636   -0.1189   28.6079 C   0  0  0  0  0  0  0  0  0  0  0  0
  -27.0010    0.6913   27.4910 C   0  0  0  0  0  0  0  0  0  0  0  0
  -25.7770    1.0214   26.9135 C   0  0  0  0  0  0  0  0  0  0  0  0
  -24.5088    0.7364   27.5686 C   0  0  0  0  0  0  0  0  0  0  0  0
  -23.2776    1.1676   27.1017 C   0  0  0  0  0  0  0  0  0  0  0  0
  -29.2651   -0.2098   28.8447 C   0  0  0  0  0  0  0  0  0  0  0  0
  -25.6190   -0.5572   28.9425 C   0  0  0  0  0  0  0  0  0  0  0  0
  -24.4260   -0.1402   28.6560 C   0  0  0  0  0  0  0  0  0  0  0  0
  -23.0790    2.1697   26.0760 C   0  0  0  0  0  0  0  0  0  0  0  0
  -22.0462    1.0539   27.9221 C   0  0  0  0  0  0  0  0  0  0  0  0
  -27.9281   -1.9582   29.8670 C   0  0  0  0  0  0  0  0  0  0  0  0
  -29.4836    0.8242   28.0822 C   0  0  0  0  0  0  0  0  0  0  0  0
  -28.2659    1.3079   27.1695 C   0  0  0  0  0  0  0  0  0  0  0  0
  -26.8493   -2.6706   30.0735 O   0  0  0  0  0  0  0  0  0  0  0  0
  -28.9715   -2.3032   30.5197 O   0  0  0  0  0  0  0  0  0  0  0  0
  -30.7659    1.4147   27.6674 C   0  0  0  0  0  0  0  0  0  0  0  0
  -31.0916    1.8656   26.7802 O   0  0  0  0  0  0  0  0  0  0  0  0
  -31.6110    1.3080   28.7291 O   0  0  0  0  0  0  0  0  0  0  0  0
  -21.9659    0.3408   28.8511 O   0  0  0  0  0  0  0  0  0  0  0  0
  5  6  1  0
  6 10  1  0
  6 11  1  0
  1 12  1  0
 12 15  2  0
 12 16  1  0
 13 17  1  0
 17 18  2  0
 17 19  1  0
 11 20  2  0
  1  2  2  0
  3 14  2  0
 14 13  1  0
 13  7  2  0
  7  1  1  0
  2  3  1  0
  3  4  1  0
  4  5  2  0
  5  9  1  0
  9  8  2  0
  8  2  1  0
M  END

$$$$
