No_2725-gen_results/8p0m/2024-11-26-14-13-15/
     RDKit          3D

 23 26  0  0  0  0  0  0  0  0999 V2000
  -28.0162   -0.8135   28.8779 C   0  0  0  0  0  0  0  0  0  0  0  0
  -28.4690   -0.7850   29.8287 C   0  0  0  0  0  0  0  0  0  0  0  0
  -27.1356    0.2359   28.5352 C   0  0  0  0  0  0  0  0  0  0  0  0
  -26.3351    0.2900   27.2835 C   0  0  0  0  0  0  0  0  0  0  0  0
  -28.3692    0.1957   30.9236 C   0  0  0  0  0  0  0  0  0  0  0  0
  -27.5158    1.2655   30.6540 C   0  0  0  0  0  0  0  0  0  0  0  0
  -26.8411    1.2942   29.4761 C   0  0  0  0  0  0  0  0  0  0  0  0
  -25.6774    1.5198   26.9775 C   0  0  0  0  0  0  0  0  0  0  0  0
  -25.4318    2.5017   27.9539 C   0  0  0  0  0  0  0  0  0  0  0  0
  -26.0988    2.4610   29.1572 C   0  0  0  0  0  0  0  0  0  0  0  0
  -25.8759    3.5967   30.0907 C   0  0  0  0  0  0  0  0  0  0  0  0
  -26.7132    4.1685   30.6774 N   0  0  0  0  0  0  0  0  0  0  0  0
  -27.2100    5.0669   30.6484 C   0  0  0  0  0  0  0  0  0  0  0  0
  -28.4080    5.4092   31.3081 C   0  0  0  0  0  0  0  0  0  0  0  0
  -26.7635    6.2051   29.7302 C   0  0  0  0  0  0  0  0  0  0  0  0
  -25.5414    6.1410   29.1853 C   0  0  0  0  0  0  0  0  0  0  0  0
  -25.0814    4.8705   28.6738 C   0  0  0  0  0  0  0  0  0  0  0  0
  -24.8944    3.8239   29.4202 C   0  0  0  0  0  0  0  0  0  0  0  0
  -24.6653    4.6073   27.4036 N   0  0  0  0  0  0  0  0  0  0  0  0
  -24.8645    3.6231   27.2449 C   0  0  0  0  0  0  0  0  0  0  0  0
  -28.5358    5.1327   32.5742 C   0  0  0  0  0  0  0  0  0  0  0  0
  -29.7746    5.3063   33.3309 C   0  0  0  0  0  0  0  0  0  0  0  0
  -30.8489    5.8110   32.6133 C   0  0  0  0  0  0  0  0  0  0  0  0
 10 11  1  0
 11 12  1  0
 12 13  1  0
 13 14  2  3
 13 15  1  0
 15 16  1  0
 16 17  2  0
 11 18  1  0
 17 18  1  0
 17 19  1  0
  9 20  1  0
 19 20  2  0
 14 21  1  0
 21 22  2  3
 22 23  1  0
  1  2  2  0
  2  5  1  0
  5  6  2  0
  6  7  1  0
  3  1  1  0
  3  4  2  0
  4  8  1  0
  8  9  2  0
  9 10  1  0
 10  7  2  0
  7  3  1  0
M  END

$$$$
