No_2126-gen_results/8p0m/2024-11-26-14-13-15/
     RDKit          3D

 11 11  0  0  0  0  0  0  0  0999 V2000
  -28.0162   -0.8135   28.8779 C   0  0  0  0  0  0  0  0  0  0  0  0
  -27.0636   -0.1189   28.6079 C   0  0  0  0  0  0  0  0  0  0  0  0
  -26.8756    1.1325   28.9134 C   0  0  0  0  0  0  0  0  0  0  0  0
  -27.9014    1.8066   29.6436 C   0  0  0  0  0  0  0  0  0  0  0  0
  -29.0458   -0.2316   29.7181 C   0  0  0  0  0  0  0  0  0  0  0  0
  -28.9402    1.0517   30.0597 C   0  0  0  0  0  0  0  0  0  0  0  0
  -30.1632   -1.1170   30.1252 C   0  0  0  0  0  0  0  0  0  0  0  0
  -29.8566   -2.3725   31.2528 P   0  0  0  0  0  0  0  0  0  0  0  0
  -28.6380   -2.2605   31.6949 O   0  0  0  0  0  0  0  0  0  0  0  0
  -30.8058   -2.1129   32.3921 O   0  0  0  0  0  0  0  0  0  0  0  0
  -30.2031   -3.6619   30.5280 O   0  0  0  0  0  0  0  0  0  0  0  0
  5  7  1  0
  7  8  1  0
  8  9  1  0
  8 10  1  0
  8 11  2  0
  1  2  2  0
  2  3  1  0
  3  4  2  0
  4  6  1  0
  6  5  2  0
  5  1  1  0
M  END

$$$$
