No_2746-gen_results/8p0m/2024-11-26-14-13-15/
     RDKit          3D

 26 28  0  0  0  0  0  0  0  0999 V2000
  -28.0162   -0.8135   28.8779 C   0  0  0  0  0  0  0  0  0  0  0  0
  -27.0636   -0.1190   28.6079 C   0  0  0  0  0  0  0  0  0  0  0  0
  -26.9716    0.7139   27.5060 C   0  0  0  0  0  0  0  0  0  0  0  0
  -28.1053    0.7744   26.6421 C   0  0  0  0  0  0  0  0  0  0  0  0
  -29.2008    0.1044   27.0527 C   0  0  0  0  0  0  0  0  0  0  0  0
  -29.2096   -0.6029   28.1853 C   0  0  0  0  0  0  0  0  0  0  0  0
  -30.3702    0.2264   26.1604 C   0  0  0  0  0  0  0  0  0  0  0  0
  -31.2209   -0.4630   26.3096 O   0  0  0  0  0  0  0  0  0  0  0  0
  -30.1530    0.8026   24.9574 O   0  0  0  0  0  0  0  0  0  0  0  0
  -25.6072   -0.1110   29.2587 C   0  0  0  0  0  0  0  0  0  0  0  0
  -25.2574   -1.0776   30.0504 C   0  0  0  0  0  0  0  0  0  0  0  0
  -23.9718   -1.1126   30.7021 C   0  0  0  0  0  0  0  0  0  0  0  0
  -23.0492   -0.0861   30.4424 C   0  0  0  0  0  0  0  0  0  0  0  0
  -23.4258    0.9304   29.5484 C   0  0  0  0  0  0  0  0  0  0  0  0
  -24.7137    0.9369   28.9461 C   0  0  0  0  0  0  0  0  0  0  0  0
  -28.0677   -1.5887   29.9919 O   0  0  0  0  0  0  0  0  0  0  0  0
  -29.1420   -1.5456   30.8755 C   0  0  0  0  0  0  0  0  0  0  0  0
  -30.3177   -1.7599   30.5318 C   0  0  0  0  0  0  0  0  0  0  0  0
  -30.8621   -2.4718   31.2316 C   0  0  0  0  0  0  0  0  0  0  0  0
  -28.8722   -1.4459   32.2413 C   0  0  0  0  0  0  0  0  0  0  0  0
  -29.6127   -1.9206   33.1896 C   0  0  0  0  0  0  0  0  0  0  0  0
  -30.8438   -2.4671   32.6696 C   0  0  0  0  0  0  0  0  0  0  0  0
  -31.8795   -3.0151   33.5338 C   0  0  0  0  0  0  0  0  0  0  0  0
  -32.3560   -4.0238   33.3695 O   0  0  0  0  0  0  0  0  0  0  0  0
  -32.1406   -2.3185   34.6058 F   0  0  0  0  0  0  0  0  0  0  0  0
  -22.5260    1.8892   29.2699 O   0  0  0  0  0  0  0  0  0  0  0  0
  5  7  1  0
  7  8  1  0
  7  9  2  0
  2 10  1  0
  1 16  1  0
 16 17  1  0
 22 23  1  0
 23 24  2  0
 23 25  1  0
 14 26  1  0
  1  2  1  0
  2  3  2  0
  3  4  1  0
  4  5  2  0
  5  6  1  0
  6  1  2  0
 17 18  2  0
 18 19  1  0
 19 22  2  0
 22 21  1  0
 21 20  2  0
 20 17  1  0
 10 11  2  0
 11 12  1  0
 12 13  2  0
 13 14  1  0
 14 15  2  0
 15 10  1  0
M  END

$$$$
