No_2622-gen_results/8p0m/2024-11-26-14-13-15/
     RDKit          3D

 28 31  0  0  0  0  0  0  0  0999 V2000
  -28.0162   -0.8135   28.8779 C   0  0  0  0  0  0  0  0  0  0  0  0
  -27.0636   -0.1190   28.6079 C   0  0  0  0  0  0  0  0  0  0  0  0
  -25.7923   -0.4302   29.0761 C   0  0  0  0  0  0  0  0  0  0  0  0
  -24.5456    0.3494   28.8225 C   0  0  0  0  0  0  0  0  0  0  0  0
  -23.2409    0.0217   29.3323 C   0  0  0  0  0  0  0  0  0  0  0  0
  -22.1362    0.7695   29.0059 C   0  0  0  0  0  0  0  0  0  0  0  0
  -27.9050   -1.8984   29.8729 C   0  0  0  0  0  0  0  0  0  0  0  0
  -26.6795   -2.3145   30.3184 C   0  0  0  0  0  0  0  0  0  0  0  0
  -25.5203   -1.5564   29.9775 C   0  0  0  0  0  0  0  0  0  0  0  0
  -22.1155    1.7338   28.0257 C   0  0  0  0  0  0  0  0  0  0  0  0
  -24.5222    1.3908   27.7909 C   0  0  0  0  0  0  0  0  0  0  0  0
  -23.3248    2.0519   27.4472 C   0  0  0  0  0  0  0  0  0  0  0  0
  -28.9733   -2.6520   30.2412 O   0  0  0  0  0  0  0  0  0  0  0  0
  -30.1200   -2.0879   30.6039 C   0  0  0  0  0  0  0  0  0  0  0  0
  -31.1683   -2.7680   30.1482 C   0  0  0  0  0  0  0  0  0  0  0  0
  -31.1408   -3.9020   29.9239 O   0  0  0  0  0  0  0  0  0  0  0  0
  -32.1790   -2.0378   29.4088 N   0  0  0  0  0  0  0  0  0  0  0  0
  -33.2299   -2.6414   28.6858 C   0  0  0  0  0  0  0  0  0  0  0  0
  -31.6987   -0.7831   28.8114 C   0  0  0  0  0  0  0  0  0  0  0  0
  -32.2911   -0.4446   27.6803 C   0  0  0  0  0  0  0  0  0  0  0  0
  -33.4211   -1.1711   27.3787 C   0  0  0  0  0  0  0  0  0  0  0  0
  -33.8951   -2.2039   27.7307 C   0  0  0  0  0  0  0  0  0  0  0  0
  -30.2078   -2.0036   32.1749 C   0  0  0  0  0  0  0  0  0  0  0  0
  -31.2218   -1.5184   32.6908 C   0  0  0  0  0  0  0  0  0  0  0  0
  -31.3074   -1.5039   34.0447 C   0  0  0  0  0  0  0  0  0  0  0  0
  -30.2264   -1.7992   34.8625 C   0  0  0  0  0  0  0  0  0  0  0  0
  -29.0314   -2.2489   34.2829 C   0  0  0  0  0  0  0  0  0  0  0  0
  -28.9562   -2.3295   32.8688 C   0  0  0  0  0  0  0  0  0  0  0  0
  3  4  1  0
  7 13  1  0
 13 14  1  0
 14 15  1  0
 15 16  2  0
 15 17  1  0
 17 18  1  0
 17 19  1  0
 20 21  1  0
 18 22  1  0
 14 23  1  0
 22 21  1  0
 20 19  1  0
 23 24  2  0
 24 25  1  0
 25 26  2  0
 26 27  1  0
 27 28  2  0
 28 23  1  0
  1  2  2  0
  2  3  1  0
  3  9  2  0
  9  8  1  0
  8  7  2  0
  7  1  1  0
  4  5  2  0
  5  6  1  0
  6 10  2  0
 10 12  1  0
 12 11  2  0
 11  4  1  0
M  END

$$$$
