No_2927-gen_results/8p0m/2024-11-26-14-13-15/
     RDKit          3D

 27 31  0  0  0  0  0  0  0  0999 V2000
  -28.0162   -0.8135   28.8779 C   0  0  0  0  0  0  0  0  0  0  0  0
  -27.0636   -0.1189   28.6079 C   0  0  0  0  0  0  0  0  0  0  0  0
  -26.9716    0.7139   27.5060 C   0  0  0  0  0  0  0  0  0  0  0  0
  -25.8206    1.4910   27.1160 C   0  0  0  0  0  0  0  0  0  0  0  0
  -24.6562    1.4242   27.9180 C   0  0  0  0  0  0  0  0  0  0  0  0
  -23.4598    2.1165   27.6160 C   0  0  0  0  0  0  0  0  0  0  0  0
  -22.3449    1.9937   28.4413 C   0  0  0  0  0  0  0  0  0  0  0  0
  -22.3657    0.9905   29.4427 C   0  0  0  0  0  0  0  0  0  0  0  0
  -23.4794    0.3053   29.7917 C   0  0  0  0  0  0  0  0  0  0  0  0
  -24.6337    0.4667   29.0059 C   0  0  0  0  0  0  0  0  0  0  0  0
  -25.7698   -0.2579   29.3337 C   0  0  0  0  0  0  0  0  0  0  0  0
  -28.0405   -1.5774   30.1786 C   0  0  0  0  0  0  0  0  0  0  0  0
  -29.1345   -2.2710   30.5807 N   0  0  0  0  0  0  0  0  0  0  0  0
  -26.8261   -1.8190   30.9777 C   0  0  0  0  0  0  0  0  0  0  0  0
  -25.7547   -1.0974   30.4874 C   0  0  0  0  0  0  0  0  0  0  0  0
  -29.2246   -3.5858   30.7474 C   0  0  0  0  0  0  0  0  0  0  0  0
  -30.4653   -4.2520   31.0577 C   0  0  0  0  0  0  0  0  0  0  0  0
  -30.3402   -1.5744   30.8625 C   0  0  0  0  0  0  0  0  0  0  0  0
  -30.1666   -0.3156   30.7407 F   0  0  0  0  0  0  0  0  0  0  0  0
  -31.4455   -2.1877   31.2445 C   0  0  0  0  0  0  0  0  0  0  0  0
  -31.4985   -3.5267   31.4677 C   0  0  0  0  0  0  0  0  0  0  0  0
  -28.1781    0.9326   26.6499 C   0  0  0  0  0  0  0  0  0  0  0  0
  -28.2915    0.7108   25.5673 O   0  0  0  0  0  0  0  0  0  0  0  0
  -29.1786    1.6771   27.2770 N   0  0  0  0  0  0  0  0  0  0  0  0
  -30.4516    1.8745   26.6473 C   0  0  0  0  0  0  0  0  0  0  0  0
  -24.5129   -1.1830   31.3186 C   0  0  0  0  0  0  0  0  0  0  0  0
  -23.4418   -0.5334   30.9372 C   0  0  0  0  0  0  0  0  0  0  0  0
  2  3  1  0
  3  4  1  0
  4  5  1  0
 12 13  1  0
 13 16  1  0
 13 18  1  0
 18 19  1  0
 18 20  1  0
 17 21  1  0
 20 21  1  0
  3 22  1  0
 22 23  2  0
 22 24  1  0
 24 25  1  0
 16 17  1  0
  5  6  2  0
  6  7  1  0
  7  8  2  0
  8  9  1  0
 10  5  1  0
  1  2  2  0
  2 11  1  0
 15 14  1  0
 14 12  2  0
 12  1  1  0
  9 10  1  0
 10 11  2  0
 11 15  1  0
 15 26  2  0
 26 27  1  0
 27  9  2  0
M  END

$$$$
