No_2541-gen_results/8p0m/2024-11-26-14-13-15/
     RDKit          3D

 21 22  0  0  0  0  0  0  0  0999 V2000
  -28.0162   -0.8135   28.8779 C   0  0  0  0  0  0  0  0  0  0  0  0
  -27.0636   -0.1189   28.6079 C   0  0  0  0  0  0  0  0  0  0  0  0
  -25.7647   -0.3897   29.0360 C   0  0  0  0  0  0  0  0  0  0  0  0
  -25.5296   -1.5302   29.9014 C   0  0  0  0  0  0  0  0  0  0  0  0
  -26.6577   -2.2915   30.2035 C   0  0  0  0  0  0  0  0  0  0  0  0
  -27.8548   -1.9555   29.7630 C   0  0  0  0  0  0  0  0  0  0  0  0
  -24.5349    0.4128   28.7431 C   0  0  0  0  0  0  0  0  0  0  0  0
  -23.3062    0.0366   29.0393 C   0  0  0  0  0  0  0  0  0  0  0  0
  -22.2007    0.7002   28.8095 C   0  0  0  0  0  0  0  0  0  0  0  0
  -22.1909    1.7325   27.8255 C   0  0  0  0  0  0  0  0  0  0  0  0
  -24.6273    1.5385   27.8324 C   0  0  0  0  0  0  0  0  0  0  0  0
  -23.4144    2.1802   27.4387 C   0  0  0  0  0  0  0  0  0  0  0  0
  -28.9203   -2.7284   30.1417 O   0  0  0  0  0  0  0  0  0  0  0  0
  -28.7727   -4.0160   30.6306 C   0  0  0  0  0  0  0  0  0  0  0  0
  -29.9408   -4.8063   30.4376 C   0  0  0  0  0  0  0  0  0  0  0  0
  -30.5320   -4.8500   29.4140 O   0  0  0  0  0  0  0  0  0  0  0  0
  -29.9925   -6.0035   31.2746 N   0  0  0  0  0  0  0  0  0  0  0  0
  -29.3107   -6.0543   32.5420 C   0  0  0  0  0  0  0  0  0  0  0  0
  -31.0749   -6.9176   31.0478 C   0  0  0  0  0  0  0  0  0  0  0  0
  -24.2230   -1.8920   30.4069 C   0  0  0  0  0  0  0  0  0  0  0  0
  -23.1676   -1.1531   30.0379 C   0  0  0  0  0  0  0  0  0  0  0  0
  3  7  1  0
  6 13  1  0
 13 14  1  0
 14 15  1  0
 15 16  2  0
 15 17  1  0
 17 18  1  0
 17 19  1  0
  4 20  1  0
 20 21  1  0
  7  8  2  0
  8  9  1  0
  9 10  2  0
 10 12  1  0
 12 11  2  0
 11  7  1  0
  1  2  2  0
  2  3  1  0
  3  4  2  0
  4  5  1  0
  5  6  2  0
  6  1  1  0
M  END

$$$$
