No_2867-gen_results/8p0m/2024-11-26-14-13-15/
     RDKit          3D

 15 15  0  0  0  0  0  0  0  0999 V2000
  -28.0162   -0.8135   28.8779 C   0  0  0  0  0  0  0  0  0  0  0  0
  -28.4690   -0.7850   29.8287 C   0  0  0  0  0  0  0  0  0  0  0  0
  -28.1960    0.3478   28.0550 C   0  0  0  0  0  0  0  0  0  0  0  0
  -29.0191    1.3501   28.3782 C   0  0  0  0  0  0  0  0  0  0  0  0
  -29.4107    0.1803   30.3782 C   0  0  0  0  0  0  0  0  0  0  0  0
  -29.6059    1.2495   29.6193 C   0  0  0  0  0  0  0  0  0  0  0  0
  -27.4478    0.3799   26.7122 C   0  0  0  0  0  0  0  0  0  0  0  0
  -26.9538    1.5101   26.4836 O   0  0  0  0  0  0  0  0  0  0  0  0
  -26.8176   -0.5706   26.2257 O   0  0  0  0  0  0  0  0  0  0  0  0
  -30.5512    2.3239   30.0500 C   0  0  0  0  0  0  0  0  0  0  0  0
  -30.0987    3.0865   31.0127 C   0  0  0  0  0  0  0  0  0  0  0  0
  -30.3195    4.0546   31.5189 C   0  0  0  0  0  0  0  0  0  0  0  0
  -29.6845    4.7884   32.6581 C   0  0  0  0  0  0  0  0  0  0  0  0
  -28.5443    4.1166   33.1746 C   0  0  0  0  0  0  0  0  0  0  0  0
  -28.1075    2.9156   32.6236 C   0  0  0  0  0  0  0  0  0  0  0  0
  3  7  1  0
  7  8  2  0
  7  9  1  0
  6 10  1  0
 10 11  2  3
 11 12  1  0
 12 13  2  3
 13 14  1  0
 14 15  2  0
  1  2  2  0
  2  5  1  0
  5  6  2  0
  6  4  1  0
  4  3  2  0
  3  1  1  0
M  END

$$$$
