No_2260-gen_results/8p0m/2024-11-26-14-13-15/
     RDKit          3D

 19 20  0  0  0  0  0  0  0  0999 V2000
  -28.0727   -1.2542   28.5316 F   0  0  0  0  0  0  0  0  0  0  0  0
  -27.3591   -0.3792   28.7224 C   0  0  0  0  0  0  0  0  0  0  0  0
  -26.3323   -0.6441   29.4520 C   0  0  0  0  0  0  0  0  0  0  0  0
  -25.2562    0.3203   29.7818 C   0  0  0  0  0  0  0  0  0  0  0  0
  -25.4242    1.6275   29.2026 C   0  0  0  0  0  0  0  0  0  0  0  0
  -26.5263    1.8254   28.4032 C   0  0  0  0  0  0  0  0  0  0  0  0
  -27.4513    0.8601   28.1355 C   0  0  0  0  0  0  0  0  0  0  0  0
  -28.4783    1.1476   27.3388 O   0  0  0  0  0  0  0  0  0  0  0  0
  -28.2967    1.1110   26.0067 C   0  0  0  0  0  0  0  0  0  0  0  0
  -29.2807    0.4981   25.2430 C   0  0  0  0  0  0  0  0  0  0  0  0
  -30.2035   -0.1684   25.8969 C   0  0  0  0  0  0  0  0  0  0  0  0
  -31.3612   -0.0384   25.5213 C   0  0  0  0  0  0  0  0  0  0  0  0
  -31.6843    0.2244   24.0960 C   0  0  0  0  0  0  0  0  0  0  0  0
  -30.7039    0.8672   23.3867 C   0  0  0  0  0  0  0  0  0  0  0  0
  -29.7437    1.4824   24.2841 C   0  0  0  0  0  0  0  0  0  0  0  0
  -27.0609    1.6690   25.4794 C   0  0  0  0  0  0  0  0  0  0  0  0
  -28.4075   -0.5834   24.3509 C   0  0  0  0  0  0  0  0  0  0  0  0
  -28.2249    2.1782   25.9263 O   0  0  0  0  0  0  0  0  0  0  0  0
  -28.6855    3.1672   26.8455 C   0  0  0  0  0  0  0  0  0  0  0  0
  1  2  1  0
  7  8  1  0
  8  9  1  0
  9 10  1  0
 10 11  1  0
 12 13  1  0
 10 15  1  0
 14 15  1  0
  9 16  1  0
 10 17  1  0
 16 18  1  0
 18 19  1  0
 11 12  1  0
 13 14  1  0
  2  3  2  0
  3  4  1  0
  4  5  2  0
  5  6  1  0
  6  7  2  0
  7  2  1  0
M  END

$$$$
