No_2085-gen_results/8p0m/2024-11-26-14-13-15/
     RDKit          3D

 13 13  0  0  0  0  0  0  0  0999 V2000
  -28.1493   -0.8198   28.9079 Cl  0  0  0  0  0  0  0  0  0  0  0  0
  -27.8339    0.4961   29.0598 C   0  0  0  0  0  0  0  0  0  0  0  0
  -27.5135    1.2383   28.0485 C   0  0  0  0  0  0  0  0  0  0  0  0
  -27.0548    2.6251   28.1330 C   0  0  0  0  0  0  0  0  0  0  0  0
  -26.7073    3.0143   29.0058 C   0  0  0  0  0  0  0  0  0  0  0  0
  -26.8144    2.3668   30.3191 C   0  0  0  0  0  0  0  0  0  0  0  0
  -27.2778    1.0889   30.2510 C   0  0  0  0  0  0  0  0  0  0  0  0
  -26.1683    4.5025   29.2423 C   0  0  0  0  0  0  0  0  0  0  0  0
  -25.6290    4.8801   30.2772 N   0  0  0  0  0  0  0  0  0  0  0  0
  -26.1194    5.2521   28.1739 O   0  0  0  0  0  0  0  0  0  0  0  0
  -25.0897    6.2945   30.4615 C   0  0  0  0  0  0  0  0  0  0  0  0
  -25.4847    7.1542   29.4569 C   0  0  0  0  0  0  0  0  0  0  0  0
  -25.1360    8.5796   29.5640 C   0  0  0  0  0  0  0  0  0  0  0  0
  1  2  1  0
  5  8  1  0
  8  9  1  0
  8 10  2  0
  9 11  1  0
 11 12  1  0
 12 13  2  0
  2  3  2  0
  3  4  1  0
  4  5  2  0
  5  6  1  0
  6  7  2  0
  7  2  1  0
M  END

$$$$
