No_2846-gen_results/8p0m/2024-11-26-14-13-15/
     RDKit          3D

  8  8  0  0  0  0  0  0  0  0999 V2000
  -28.0162   -0.8135   28.8779 C   0  0  0  0  0  0  0  0  0  0  0  0
  -28.4690   -0.7850   29.8287 C   0  0  0  0  0  0  0  0  0  0  0  0
  -27.1356    0.2359   28.5352 C   0  0  0  0  0  0  0  0  0  0  0  0
  -26.8050    1.0509   29.2763 C   0  0  0  0  0  0  0  0  0  0  0  0
  -29.4120   -1.8886   30.3141 C   0  0  0  0  0  0  0  0  0  0  0  0
  -27.3211    1.1276   30.6065 C   0  0  0  0  0  0  0  0  0  0  0  0
  -28.1972    0.0819   30.9803 C   0  0  0  0  0  0  0  0  0  0  0  0
  -29.6684   -2.8943   30.2043 N   0  0  0  0  0  0  0  0  0  0  0  0
  2  5  1  0
  5  8  3  0
  1  2  2  0
  2  7  1  0
  7  6  2  0
  6  4  1  0
  4  3  2  0
  3  1  1  0
M  END

$$$$
