No_2361-gen_results/8p0m/2024-11-26-14-13-15/
     RDKit          3D

 21 23  0  0  0  0  0  0  0  0999 V2000
  -28.0162   -0.8135   28.8779 C   0  0  0  0  0  0  0  0  0  0  0  0
  -28.4690   -0.7850   29.8287 C   0  0  0  0  0  0  0  0  0  0  0  0
  -27.1356    0.2359   28.5352 C   0  0  0  0  0  0  0  0  0  0  0  0
  -26.8745    1.2825   29.3982 C   0  0  0  0  0  0  0  0  0  0  0  0
  -28.3613    0.1987   30.9244 C   0  0  0  0  0  0  0  0  0  0  0  0
  -27.5277    1.2234   30.6356 C   0  0  0  0  0  0  0  0  0  0  0  0
  -26.3987    0.2949   27.2279 C   0  0  0  0  0  0  0  0  0  0  0  0
  -25.0392    0.2356   27.3538 C   0  0  0  0  0  0  0  0  0  0  0  0
  -24.2376    0.8857   27.2661 C   0  0  0  0  0  0  0  0  0  0  0  0
  -24.3064    2.2478   26.6745 C   0  0  0  0  0  0  0  0  0  0  0  0
  -23.1476    3.0816   26.5184 C   0  0  0  0  0  0  0  0  0  0  0  0
  -21.9927    2.5403   27.0402 C   0  0  0  0  0  0  0  0  0  0  0  0
  -22.8190    0.7806   27.6728 C   0  0  0  0  0  0  0  0  0  0  0  0
  -21.7961    1.6155   27.6175 C   0  0  0  0  0  0  0  0  0  0  0  0
  -27.1032    0.5423   26.0689 C   0  0  0  0  0  0  0  0  0  0  0  0
  -28.4383    0.8824   26.0223 C   0  0  0  0  0  0  0  0  0  0  0  0
  -29.0442    0.9385   24.7698 C   0  0  0  0  0  0  0  0  0  0  0  0
  -26.4517    0.3786   24.8583 C   0  0  0  0  0  0  0  0  0  0  0  0
  -27.0287    0.4894   23.6688 C   0  0  0  0  0  0  0  0  0  0  0  0
  -28.3521    0.7849   23.6446 C   0  0  0  0  0  0  0  0  0  0  0  0
  -24.7468   -1.1427   27.5900 F   0  0  0  0  0  0  0  0  0  0  0  0
  3  7  1  0
  7  8  2  3
  8  9  1  0
  7 15  1  0
  8 21  1  0
 15 16  2  0
 16 17  1  0
 17 20  2  0
 20 19  1  0
 19 18  2  0
 18 15  1  0
  1  2  2  0
  2  5  1  0
  5  6  2  0
  6  4  1  0
  4  3  2  0
  3  1  1  0
  9 10  2  0
 10 11  1  0
 11 12  2  0
 12 14  1  0
 14 13  2  0
 13  9  1  0
M  END

$$$$
