No_2283-gen_results/8p0m/2024-11-26-14-13-15/
     RDKit          3D

 18 20  0  0  0  0  0  0  0  0999 V2000
  -28.1229   -1.3353   28.4874 O   0  0  0  0  0  0  0  0  0  0  0  0
  -27.0637   -0.8242   28.8687 C   0  0  0  0  0  0  0  0  0  0  0  0
  -26.9592    0.0926   29.7582 C   0  0  0  0  0  0  0  0  0  0  0  0
  -25.8011   -1.3566   28.3971 N   0  0  0  0  0  0  0  0  0  0  0  0
  -25.7368    0.7239   30.2099 C   0  0  0  0  0  0  0  0  0  0  0  0
  -24.6285   -0.7791   28.9300 C   0  0  0  0  0  0  0  0  0  0  0  0
  -24.5300    0.2016   29.7469 C   0  0  0  0  0  0  0  0  0  0  0  0
  -23.2507    0.7358   30.1385 C   0  0  0  0  0  0  0  0  0  0  0  0
  -22.1517    0.0966   29.6161 N   0  0  0  0  0  0  0  0  0  0  0  0
  -23.4129   -1.3227   28.4422 N   0  0  0  0  0  0  0  0  0  0  0  0
  -22.2154   -0.8896   28.8425 C   0  0  0  0  0  0  0  0  0  0  0  0
  -28.2536    0.6135   30.3342 C   0  0  0  0  0  0  0  0  0  0  0  0
  -28.8830    0.0437   31.0830 C   0  0  0  0  0  0  0  0  0  0  0  0
  -30.1567    0.5330   31.6927 C   0  0  0  0  0  0  0  0  0  0  0  0
  -30.5105    1.8321   31.3110 C   0  0  0  0  0  0  0  0  0  0  0  0
  -29.7444    2.5242   30.4325 C   0  0  0  0  0  0  0  0  0  0  0  0
  -28.5375    2.0126   29.9462 C   0  0  0  0  0  0  0  0  0  0  0  0
  -30.0589    3.7803   30.1234 F   0  0  0  0  0  0  0  0  0  0  0  0
  1  2  2  0
  2  3  1  0
  2  4  1  0
  4  6  1  0
  5  7  1  0
  3 12  1  0
 16 18  1  0
  3  5  1  0
 12 13  2  0
 13 14  1  0
 14 15  2  0
 15 16  1  0
 16 17  2  0
 17 12  1  0
  6  7  2  0
  7  8  1  0
  8  9  2  0
  9 11  1  0
 11 10  2  0
 10  6  1  0
M  END

$$$$
