No_2957-gen_results/8p0m/2024-11-26-14-13-15/
     RDKit          3D

 15 16  0  0  0  0  0  0  0  0999 V2000
  -28.1146   -0.6256   29.0813 Br  0  0  0  0  0  0  0  0  0  0  0  0
  -26.9268    0.4545   28.6846 C   0  0  0  0  0  0  0  0  0  0  0  0
  -25.8457    0.7043   29.3312 C   0  0  0  0  0  0  0  0  0  0  0  0
  -24.8514    1.6413   28.9474 C   0  0  0  0  0  0  0  0  0  0  0  0
  -25.0097    2.3205   27.7273 C   0  0  0  0  0  0  0  0  0  0  0  0
  -24.0776    3.2874   27.2558 C   0  0  0  0  0  0  0  0  0  0  0  0
  -26.0951    2.0148   26.9561 C   0  0  0  0  0  0  0  0  0  0  0  0
  -27.0086    1.0875   27.4226 C   0  0  0  0  0  0  0  0  0  0  0  0
  -28.0880    0.8226   26.6239 O   0  0  0  0  0  0  0  0  0  0  0  0
  -29.1994    0.6904   26.8510 C   0  0  0  0  0  0  0  0  0  0  0  0
  -30.0393    1.6901   26.4134 C   0  0  0  0  0  0  0  0  0  0  0  0
  -31.4140    1.7143   26.7246 C   0  0  0  0  0  0  0  0  0  0  0  0
  -31.9234    0.5754   27.2936 C   0  0  0  0  0  0  0  0  0  0  0  0
  -31.1451   -0.5001   27.6312 C   0  0  0  0  0  0  0  0  0  0  0  0
  -29.8046   -0.4333   27.4213 C   0  0  0  0  0  0  0  0  0  0  0  0
  1  2  1  0
  5  6  1  0
  8  9  1  0
  9 10  1  0
 10 11  2  0
 11 12  1  0
 12 13  2  0
 13 14  1  0
 14 15  2  0
 15 10  1  0
  2  3  2  0
  3  4  1  0
  4  5  2  0
  5  7  1  0
  7  8  2  0
  8  2  1  0
M  END

$$$$
