No_2530-gen_results/8p0m/2024-11-26-14-13-15/
     RDKit          3D

  9  9  0  0  0  0  0  0  0  0999 V2000
  -28.1229   -1.3353   28.4874 O   0  0  0  0  0  0  0  0  0  0  0  0
  -27.4806   -0.4044   28.7094 C   0  0  0  0  0  0  0  0  0  0  0  0
  -26.4599   -0.1104   28.0051 N   0  0  0  0  0  0  0  0  0  0  0  0
  -25.4297    0.8788   28.3572 C   0  0  0  0  0  0  0  0  0  0  0  0
  -25.6985    1.5873   29.3706 C   0  0  0  0  0  0  0  0  0  0  0  0
  -27.7527    0.2412   29.9527 N   0  0  0  0  0  0  0  0  0  0  0  0
  -24.7652    2.6450   29.9108 C   0  0  0  0  0  0  0  0  0  0  0  0
  -26.8441    1.2896   30.3633 C   0  0  0  0  0  0  0  0  0  0  0  0
  -25.1115    3.2885   30.8007 O   0  0  0  0  0  0  0  0  0  0  0  0
  1  2  2  0
  2  3  1  0
  3  4  1  0
  4  5  1  0
  2  6  1  0
  5  7  2  3
  5  8  1  0
  6  8  1  0
  7  9  1  0
M  END

$$$$
