No_2577-gen_results/8p0m/2024-11-26-14-13-15/
     RDKit          3D

 19 21  0  0  0  0  0  0  0  0999 V2000
  -28.0162   -0.8135   28.8779 C   0  0  0  0  0  0  0  0  0  0  0  0
  -27.0636   -0.1189   28.6079 C   0  0  0  0  0  0  0  0  0  0  0  0
  -25.7647   -0.3897   29.0360 C   0  0  0  0  0  0  0  0  0  0  0  0
  -25.5296   -1.5302   29.9014 C   0  0  0  0  0  0  0  0  0  0  0  0
  -26.6888   -2.2893   30.1810 C   0  0  0  0  0  0  0  0  0  0  0  0
  -27.8727   -1.9508   29.7373 C   0  0  0  0  0  0  0  0  0  0  0  0
  -28.9304   -2.7298   30.1154 O   0  0  0  0  0  0  0  0  0  0  0  0
  -24.5394    0.4211   28.7421 C   0  0  0  0  0  0  0  0  0  0  0  0
  -24.5259    1.2743   27.7265 C   0  0  0  0  0  0  0  0  0  0  0  0
  -23.3174    1.9856   27.4033 C   0  0  0  0  0  0  0  0  0  0  0  0
  -22.1311    1.7374   28.0503 C   0  0  0  0  0  0  0  0  0  0  0  0
  -23.2983    0.1369   29.3770 C   0  0  0  0  0  0  0  0  0  0  0  0
  -22.1005    0.8185   29.0410 C   0  0  0  0  0  0  0  0  0  0  0  0
  -29.3101   -2.7539   31.4531 C   0  0  0  0  0  0  0  0  0  0  0  0
  -29.8418   -1.7002   31.9480 C   0  0  0  0  0  0  0  0  0  0  0  0
  -29.8584   -1.6018   33.2370 C   0  0  0  0  0  0  0  0  0  0  0  0
  -29.8832   -2.7503   34.0883 C   0  0  0  0  0  0  0  0  0  0  0  0
  -29.4036   -3.9441   33.5526 C   0  0  0  0  0  0  0  0  0  0  0  0
  -29.0708   -3.9753   32.1549 C   0  0  0  0  0  0  0  0  0  0  0  0
  6  7  1  0
  3  8  1  0
  7 14  1  0
  1  2  2  0
  2  3  1  0
  3  4  2  0
  4  5  1  0
  5  6  2  0
  6  1  1  0
 14 15  2  0
 15 16  1  0
 16 17  2  0
 17 18  1  0
 18 19  2  0
 19 14  1  0
  8  9  2  0
  9 10  1  0
 10 11  2  0
 11 13  1  0
 13 12  2  0
 12  8  1  0
M  END

$$$$
