No_2656-gen_results/8p0m/2024-11-26-14-13-15/
     RDKit          3D

 19 19  0  0  0  0  0  0  0  0999 V2000
  -28.0162   -0.8135   28.8779 C   0  0  0  0  0  0  0  0  0  0  0  0
  -27.0636   -0.1189   28.6079 C   0  0  0  0  0  0  0  0  0  0  0  0
  -26.9287    1.1713   29.0083 C   0  0  0  0  0  0  0  0  0  0  0  0
  -27.9560    1.7411   29.7840 C   0  0  0  0  0  0  0  0  0  0  0  0
  -29.0569   -0.3271   29.7466 C   0  0  0  0  0  0  0  0  0  0  0  0
  -28.9828    0.9722   30.1516 C   0  0  0  0  0  0  0  0  0  0  0  0
  -25.8815   -0.6260   27.7945 C   0  0  0  0  0  0  0  0  0  0  0  0
  -25.4215    0.1302   26.7096 C   0  0  0  0  0  0  0  0  0  0  0  0
  -25.0332   -1.6821   28.2396 C   0  0  0  0  0  0  0  0  0  0  0  0
  -24.3977   -1.7439   29.4802 C   0  0  0  0  0  0  0  0  0  0  0  0
  -23.7636   -0.9612   30.0900 C   0  0  0  0  0  0  0  0  0  0  0  0
  -23.2701   -1.0475   31.4123 C   0  0  0  0  0  0  0  0  0  0  0  0
  -23.1255    0.2332   29.3632 C   0  0  0  0  0  0  0  0  0  0  0  0
  -30.0245    1.4288   30.9789 O   0  0  0  0  0  0  0  0  0  0  0  0
  -25.7793    1.1924   26.1349 C   0  0  0  0  0  0  0  0  0  0  0  0
  -26.8310    1.9922   26.7228 C   0  0  0  0  0  0  0  0  0  0  0  0
  -26.8783    2.2222   28.0912 C   0  0  0  0  0  0  0  0  0  0  0  0
  -26.5404    3.6601   28.4395 C   0  0  0  0  0  0  0  0  0  0  0  0
  -26.7347    3.1183   27.6142 Cl  0  0  0  0  0  0  0  0  0  0  0  0
  2  7  1  0
  7  8  1  0
  7  9  1  0
  9 10  1  0
 10 11  2  3
 11 12  1  0
 11 13  1  0
  6 14  1  0
  8 15  2  3
 15 16  1  0
 16 17  1  0
 17 18  2  0
 17 19  1  0
  1  2  2  0
  2  3  1  0
  3  4  2  0
  4  6  1  0
  6  5  2  0
  5  1  1  0
M  END

$$$$
