No_2564-gen_results/8p0m/2024-11-26-14-13-15/
     RDKit          3D

 11 11  0  0  0  0  0  0  0  0999 V2000
  -28.0162   -0.8135   28.8779 C   0  0  0  0  0  0  0  0  0  0  0  0
  -28.4690   -0.7850   29.8287 C   0  0  0  0  0  0  0  0  0  0  0  0
  -26.5042   -0.7777   28.8766 C   0  0  0  0  0  0  0  0  0  0  0  0
  -25.8305   -1.6807   29.6849 C   0  0  0  0  0  0  0  0  0  0  0  0
  -28.1490   -1.8854   30.9031 C   0  0  0  0  0  0  0  0  0  0  0  0
  -26.6460   -1.9561   31.0330 C   0  0  0  0  0  0  0  0  0  0  0  0
  -28.6274   -1.7308   32.1858 O   0  0  0  0  0  0  0  0  0  0  0  0
  -30.0168   -0.9269   29.8771 O   0  0  0  0  0  0  0  0  0  0  0  0
  -24.6534   -2.3030   29.3807 C   0  0  0  0  0  0  0  0  0  0  0  0
  -23.9537   -2.3039   30.5223 F   0  0  0  0  0  0  0  0  0  0  0  0
  -23.9517   -1.5530   28.5752 F   0  0  0  0  0  0  0  0  0  0  0  0
  1  2  1  0
  1  3  1  0
  3  4  1  0
  2  5  1  0
  4  6  1  0
  5  6  1  0
  5  7  1  0
  2  8  1  0
  4  9  1  0
  9 10  1  0
  9 11  1  0
M  END

$$$$
