No_2678-gen_results/8p0m/2024-11-26-14-13-15/
     RDKit          3D

 26 27  0  0  0  0  0  0  0  0999 V2000
  -28.0162   -0.8135   28.8779 C   0  0  0  0  0  0  0  0  0  0  0  0
  -28.4690   -0.7850   29.8287 C   0  0  0  0  0  0  0  0  0  0  0  0
  -26.5042   -0.7777   28.8766 C   0  0  0  0  0  0  0  0  0  0  0  0
  -25.8103   -0.8531   30.1028 C   0  0  0  0  0  0  0  0  0  0  0  0
  -27.9906   -0.8916   31.2257 C   0  0  0  0  0  0  0  0  0  0  0  0
  -26.6042   -0.8676   31.2652 C   0  0  0  0  0  0  0  0  0  0  0  0
  -24.3894   -0.8049   30.1638 C   0  0  0  0  0  0  0  0  0  0  0  0
  -23.8172    0.4762   29.9118 C   0  0  0  0  0  0  0  0  0  0  0  0
  -22.5010    0.5449   29.4097 C   0  0  0  0  0  0  0  0  0  0  0  0
  -21.7696   -0.6524   29.2129 C   0  0  0  0  0  0  0  0  0  0  0  0
  -23.6812   -1.3591   31.3252 C   0  0  0  0  0  0  0  0  0  0  0  0
  -23.9055   -1.9011   29.0197 C   0  0  0  0  0  0  0  0  0  0  0  0
  -22.3671   -1.8896   29.1213 C   0  0  0  0  0  0  0  0  0  0  0  0
  -24.5035    1.7207   30.1692 C   0  0  0  0  0  0  0  0  0  0  0  0
  -24.7349    2.1752   31.2868 O   0  0  0  0  0  0  0  0  0  0  0  0
  -25.4001    2.1175   29.1809 O   0  0  0  0  0  0  0  0  0  0  0  0
  -30.0783   -0.8498   29.8228 C   0  0  0  0  0  0  0  0  0  0  0  0
  -30.7412   -1.6319   30.3162 O   0  0  0  0  0  0  0  0  0  0  0  0
  -30.6311    0.1719   29.0836 N   0  0  0  0  0  0  0  0  0  0  0  0
  -32.0561    0.2244   28.8812 C   0  0  0  0  0  0  0  0  0  0  0  0
  -29.8982    1.2869   28.4782 C   0  0  0  0  0  0  0  0  0  0  0  0
  -30.2288    2.5358   29.1735 C   0  0  0  0  0  0  0  0  0  0  0  0
  -29.8816    2.7611   30.3357 C   0  0  0  0  0  0  0  0  0  0  0  0
  -29.8094    3.6735   31.0406 C   0  0  0  0  0  0  0  0  0  0  0  0
  -30.3702    4.9020   30.4220 C   0  0  0  0  0  0  0  0  0  0  0  0
  -30.7806    4.8371   29.1241 C   0  0  0  0  0  0  0  0  0  0  0  0
  4  7  1  0
  7  8  1  0
  9 10  1  0
  7 11  1  0
  7 12  1  0
 10 13  1  0
 12 13  1  0
  8 14  1  0
 14 15  2  0
 14 16  1  0
  2 17  1  0
 17 18  2  0
 17 19  1  0
 19 20  1  0
 19 21  1  0
 21 22  2  3
 22 23  1  0
 23 24  2  3
 24 25  1  0
 25 26  2  0
  8  9  1  0
  1  2  2  0
  2  5  1  0
  5  6  2  0
  6  4  1  0
  4  3  2  0
  3  1  1  0
M  END

$$$$
