No_2767-gen_results/8p0m/2024-11-26-14-13-15/
     RDKit          3D

  9  9  0  0  0  0  0  0  0  0999 V2000
  -28.0544   -1.0498   28.7246 N   0  0  0  0  0  0  0  0  0  0  0  0
  -26.9659   -0.4722   28.7709 C   0  0  0  0  0  0  0  0  0  0  0  0
  -25.9289   -1.0196   29.5059 C   0  0  0  0  0  0  0  0  0  0  0  0
  -26.1023   -2.2905   30.2023 C   0  0  0  0  0  0  0  0  0  0  0  0
  -27.3441   -2.8033   30.0964 C   0  0  0  0  0  0  0  0  0  0  0  0
  -28.3049   -2.1942   29.4440 C   0  0  0  0  0  0  0  0  0  0  0  0
  -26.7027    0.7253   28.1516 N   0  0  0  0  0  0  0  0  0  0  0  0
  -25.4738    1.2572   28.0075 C   0  0  0  0  0  0  0  0  0  0  0  0
  -24.4203    0.7250   28.8433 C   0  0  0  0  0  0  0  0  0  0  0  0
  2  7  1  0
  7  8  2  3
  8  9  1  0
  1  2  2  0
  2  3  1  0
  3  4  2  0
  4  5  1  0
  5  6  2  0
  6  1  1  0
M  END

$$$$
