No_2935-gen_results/8p0m/2024-11-26-14-13-15/
     RDKit          3D

 17 18  0  0  0  0  0  0  0  0999 V2000
  -28.0162   -0.8135   28.8779 C   0  0  0  0  0  0  0  0  0  0  0  0
  -27.0636   -0.1190   28.6079 C   0  0  0  0  0  0  0  0  0  0  0  0
  -26.9716    0.7139   27.5060 C   0  0  0  0  0  0  0  0  0  0  0  0
  -28.1053    0.7744   26.6421 C   0  0  0  0  0  0  0  0  0  0  0  0
  -29.2041    0.1179   27.0477 C   0  0  0  0  0  0  0  0  0  0  0  0
  -29.2127   -0.6088   28.1281 C   0  0  0  0  0  0  0  0  0  0  0  0
  -30.3709    0.2326   26.1381 C   0  0  0  0  0  0  0  0  0  0  0  0
  -30.9633    1.2270   26.0808 O   0  0  0  0  0  0  0  0  0  0  0  0
  -30.9182   -0.8958   25.8344 O   0  0  0  0  0  0  0  0  0  0  0  0
  -25.6688    1.4165   27.1356 C   0  0  0  0  0  0  0  0  0  0  0  0
  -24.5294    1.0726   27.7311 C   0  0  0  0  0  0  0  0  0  0  0  0
  -23.3139    1.8229   27.3639 C   0  0  0  0  0  0  0  0  0  0  0  0
  -22.0794    1.6035   28.0334 C   0  0  0  0  0  0  0  0  0  0  0  0
  -21.9945    0.5785   28.9870 C   0  0  0  0  0  0  0  0  0  0  0  0
  -23.1054   -0.2267   29.3276 C   0  0  0  0  0  0  0  0  0  0  0  0
  -24.3006    0.0360   28.6714 C   0  0  0  0  0  0  0  0  0  0  0  0
  -25.7045    2.2871   25.9909 C   0  0  0  0  0  0  0  0  0  0  0  0
  5  7  1  0
  7  8  1  0
  7  9  2  0
  3 10  1  0
 10 17  1  0
 10 11  1  0
 11 12  2  0
 12 13  1  0
 13 14  2  0
 14 15  1  0
 15 16  2  0
 16 11  1  0
  1  2  2  0
  2  3  1  0
  3  4  2  0
  4  5  1  0
  5  6  2  0
  6  1  1  0
M  END

$$$$
