No_2484-gen_results/8p0m/2024-11-26-14-13-15/
     RDKit          3D

 34 36  0  0  0  0  0  0  0  0999 V2000
  -28.1493   -0.8198   28.9079 Cl  0  0  0  0  0  0  0  0  0  0  0  0
  -26.9116   -0.0797   28.9452 C   0  0  0  0  0  0  0  0  0  0  0  0
  -26.0490   -0.0718   27.8591 C   0  0  0  0  0  0  0  0  0  0  0  0
  -26.5011    0.6020   26.7507 C   0  0  0  0  0  0  0  0  0  0  0  0
  -25.7098    0.5635   25.4964 C   0  0  0  0  0  0  0  0  0  0  0  0
  -24.3930    0.2711   25.6532 C   0  0  0  0  0  0  0  0  0  0  0  0
  -23.8820    0.0281   26.8869 C   0  0  0  0  0  0  0  0  0  0  0  0
  -24.6879   -0.2122   27.9888 C   0  0  0  0  0  0  0  0  0  0  0  0
  -26.3686    0.4854   30.2422 C   0  0  0  0  0  0  0  0  0  0  0  0
  -25.9360   -0.4755   31.1148 C   0  0  0  0  0  0  0  0  0  0  0  0
  -25.0216   -0.1417   31.9756 C   0  0  0  0  0  0  0  0  0  0  0  0
  -24.4257   -1.1092   32.9023 C   0  0  0  0  0  0  0  0  0  0  0  0
  -26.3479   -1.8166   31.0976 C   0  0  0  0  0  0  0  0  0  0  0  0
  -27.3673   -2.1613   30.2062 C   0  0  0  0  0  0  0  0  0  0  0  0
  -28.1566   -3.4105   30.1351 C   0  0  0  0  0  0  0  0  0  0  0  0
  -27.2505   -1.9441   29.1730 Cl  0  0  0  0  0  0  0  0  0  0  0  0
  -27.6314   -4.3856   30.5525 O   0  0  0  0  0  0  0  0  0  0  0  0
  -29.4435   -3.4117   30.1097 O   0  0  0  0  0  0  0  0  0  0  0  0
  -24.5308    1.2644   32.0217 C   0  0  0  0  0  0  0  0  0  0  0  0
  -30.0607   -4.6270   30.3110 C   0  0  0  0  0  0  0  0  0  0  0  0
  -31.0845   -4.9395   29.3578 C   0  0  0  0  0  0  0  0  0  0  0  0
  -31.2062   -4.2840   28.5001 O   0  0  0  0  0  0  0  0  0  0  0  0
  -31.9472   -5.9576   29.5980 N   0  0  0  0  0  0  0  0  0  0  0  0
  -31.9275   -6.8336   30.7823 C   0  0  0  0  0  0  0  0  0  0  0  0
  -32.2280   -7.9677   30.7882 C   0  0  0  0  0  0  0  0  0  0  0  0
  -32.7451   -8.5877   29.5928 C   0  0  0  0  0  0  0  0  0  0  0  0
  -32.7907   -7.8227   28.4045 C   0  0  0  0  0  0  0  0  0  0  0  0
  -32.2896   -6.6080   28.4420 C   0  0  0  0  0  0  0  0  0  0  0  0
  -24.8139    2.3021   31.1859 C   0  0  0  0  0  0  0  0  0  0  0  0
  -25.8563    1.8946   30.2259 C   0  0  0  0  0  0  0  0  0  0  0  0
  -26.3483    2.9287   29.3378 C   0  0  0  0  0  0  0  0  0  0  0  0
  -25.5664    3.1307   28.3879 F   0  0  0  0  0  0  0  0  0  0  0  0
  -27.5600    2.5526   28.8735 F   0  0  0  0  0  0  0  0  0  0  0  0
  -26.5742    3.9913   30.1470 F   0  0  0  0  0  0  0  0  0  0  0  0
  1  2  1  0
  2  3  1  0
  2  9  1  0
 11 12  1  0
 10 13  1  0
 13 14  1  0
 14 15  1  0
 14 16  1  0
 15 17  2  0
 15 18  1  0
 18 20  1  0
 20 21  1  0
 21 22  2  0
 21 23  1  0
 23 24  1  0
 25 26  1  0
 23 28  1  0
 27 28  1  0
 30 31  1  0
 31 32  1  0
 31 33  1  0
 31 34  1  0
 24 25  1  0
 26 27  1  0
  9 10  1  0
 10 11  2  0
 11 19  1  0
 19 29  2  0
 29 30  1  0
 30  9  2  0
  3  4  2  0
  4  5  1  0
  5  6  2  0
  6  7  1  0
  7  8  2  0
  8  3  1  0
M  END

$$$$
