No_2420-gen_results/8p0m/2024-11-26-14-13-15/
     RDKit          3D

  5  4  0  0  0  0  0  0  0  0999 V2000
  -27.9505   -0.5786   29.0402 P   0  0  0  0  0  0  0  0  0  0  0  0
  -27.2401    0.0613   28.4283 O   0  0  0  0  0  0  0  0  0  0  0  0
  -27.9595    0.1171   30.4752 O   0  0  0  0  0  0  0  0  0  0  0  0
  -27.4638   -1.8840   29.5706 O   0  0  0  0  0  0  0  0  0  0  0  0
  -29.4816   -0.6778   28.8308 O   0  0  0  0  0  0  0  0  0  0  0  0
  1  2  2  0
  1  3  1  0
  1  4  1  0
  1  5  1  0
M  END

$$$$
