No_2817-gen_results/8p0m/2024-11-26-14-13-15/
     RDKit          3D

 35 41  0  0  0  0  0  0  0  0999 V2000
  -28.0162   -0.8135   28.8779 C   0  0  0  0  0  0  0  0  0  0  0  0
  -27.0636   -0.1190   28.6079 C   0  0  0  0  0  0  0  0  0  0  0  0
  -26.8756    1.1325   28.9134 C   0  0  0  0  0  0  0  0  0  0  0  0
  -25.6883    1.9515   28.5672 C   0  0  0  0  0  0  0  0  0  0  0  0
  -24.6394    1.2834   27.8753 C   0  0  0  0  0  0  0  0  0  0  0  0
  -24.8181   -0.0802   27.6166 C   0  0  0  0  0  0  0  0  0  0  0  0
  -25.9311   -0.7717   27.9696 C   0  0  0  0  0  0  0  0  0  0  0  0
  -29.1411   -0.2148   28.9977 N   0  0  0  0  0  0  0  0  0  0  0  0
  -30.1381   -0.6998   29.7464 C   0  0  0  0  0  0  0  0  0  0  0  0
  -23.4244    1.9503   27.4992 C   0  0  0  0  0  0  0  0  0  0  0  0
  -22.2832    2.2211   27.9800 N   0  0  0  0  0  0  0  0  0  0  0  0
  -23.5696    2.5228   26.0648 C   0  0  0  0  0  0  0  0  0  0  0  0
  -29.9817   -1.9689   30.2823 C   0  0  0  0  0  0  0  0  0  0  0  0
  -28.7402   -2.5802   30.3646 C   0  0  0  0  0  0  0  0  0  0  0  0
  -27.7085   -1.9224   29.8163 C   0  0  0  0  0  0  0  0  0  0  0  0
  -29.1701    1.0541   28.3948 C   0  0  0  0  0  0  0  0  0  0  0  0
  -28.1094    1.9676   28.8548 C   0  0  0  0  0  0  0  0  0  0  0  0
  -30.5543    1.7564   28.6626 C   0  0  0  0  0  0  0  0  0  0  0  0
  -29.2231    0.8445   26.8536 C   0  0  0  0  0  0  0  0  0  0  0  0
  -29.5802    1.6884   25.9465 C   0  0  0  0  0  0  0  0  0  0  0  0
  -30.9480    2.8250   27.7323 C   0  0  0  0  0  0  0  0  0  0  0  0
  -30.8091    2.4590   26.3291 C   0  0  0  0  0  0  0  0  0  0  0  0
  -31.6229    0.6882   28.8152 C   0  0  0  0  0  0  0  0  0  0  0  0
  -30.9192    0.1641   30.4623 C   0  0  0  0  0  0  0  0  0  0  0  0
  -31.7640   -0.3600   27.9514 C   0  0  0  0  0  0  0  0  0  0  0  0
  -33.1326   -0.3323   27.4121 C   0  0  0  0  0  0  0  0  0  0  0  0
  -33.5694   -1.2056   27.1917 C   0  0  0  0  0  0  0  0  0  0  0  0
  -35.0210   -1.2132   26.7283 C   0  0  0  0  0  0  0  0  0  0  0  0
  -35.4563   -0.2159   26.5941 C   0  0  0  0  0  0  0  0  0  0  0  0
  -34.1125    0.7656   27.2525 C   0  0  0  0  0  0  0  0  0  0  0  0
  -32.8593    1.4972   29.4503 C   0  0  0  0  0  0  0  0  0  0  0  0
  -33.9926    1.6759   28.4666 C   0  0  0  0  0  0  0  0  0  0  0  0
  -34.9634    2.7394   28.5312 C   0  0  0  0  0  0  0  0  0  0  0  0
  -34.7082    3.9338   28.1741 C   0  0  0  0  0  0  0  0  0  0  0  0
  -35.6372    4.9680   28.2147 C   0  0  0  0  0  0  0  0  0  0  0  0
  1  8  1  0
  8  9  1  0
  5 10  1  0
 10 11  1  0
 10 12  1  0
 13 14  1  0
  1 15  1  0
 14 15  1  0
  8 16  1  0
  3 17  1  0
 16 17  1  0
 16 18  1  0
 16 19  1  0
 18 21  1  0
 20 22  1  0
 21 22  3  0
 18 23  1  0
  9 24  1  0
 23 24  1  0
 23 25  1  0
 25 26  1  0
 27 28  1  0
 28 29  2  0
 26 30  1  0
 29 30  1  0
 23 31  1  0
 30 32  1  0
 32 33  1  0
 33 34  1  0
 34 35  2  0
 27 26  1  0
  1  2  1  0
 13  9  1  0
 20 19  1  0
 32 31  1  0
  2  3  1  0
  3  4  2  0
  4  5  1  0
  5  6  2  0
  6  7  1  0
  7  2  2  0
M  END

$$$$
