No_277-gen_results/8p0m/2024-11-26-14-13-15/
     RDKit          3D

  7  6  0  0  0  0  0  0  0  0999 V2000
  -28.0544   -1.0498   28.7246 N   0  0  0  0  0  0  0  0  0  0  0  0
  -27.7460   -0.0733   29.0098 C   0  0  0  0  0  0  0  0  0  0  0  0
  -27.1741    0.7325   28.8254 C   0  0  0  0  0  0  0  0  0  0  0  0
  -26.2627    0.6359   27.6462 C   0  0  0  0  0  0  0  0  0  0  0  0
  -25.3895    1.6452   27.1833 C   0  0  0  0  0  0  0  0  0  0  0  0
  -25.2721    2.8034   27.9233 C   0  0  0  0  0  0  0  0  0  0  0  0
  -26.0243    3.0062   29.0321 C   0  0  0  0  0  0  0  0  0  0  0  0
  1  2  1  0
  2  3  2  3
  3  4  1  0
  4  5  1  0
  5  6  2  3
  6  7  1  0
M  END

$$$$
