No_2333-gen_results/8p0m/2024-11-26-14-13-15/
     RDKit          3D

 18 19  0  0  0  0  0  0  0  0999 V2000
  -28.0162   -0.8135   28.8779 C   0  0  0  0  0  0  0  0  0  0  0  0
  -28.4690   -0.7850   29.8287 C   0  0  0  0  0  0  0  0  0  0  0  0
  -26.5042   -0.7777   28.8766 C   0  0  0  0  0  0  0  0  0  0  0  0
  -25.8103   -0.8531   30.1028 C   0  0  0  0  0  0  0  0  0  0  0  0
  -27.9906   -0.8916   31.2257 C   0  0  0  0  0  0  0  0  0  0  0  0
  -26.6042   -0.8676   31.2652 C   0  0  0  0  0  0  0  0  0  0  0  0
  -30.0739   -0.8360   29.8615 C   0  0  0  0  0  0  0  0  0  0  0  0
  -30.6454   -0.1837   28.9598 N   0  0  0  0  0  0  0  0  0  0  0  0
  -31.5454    0.3635   28.8287 C   0  0  0  0  0  0  0  0  0  0  0  0
  -32.0310    0.9354   27.5531 C   0  0  0  0  0  0  0  0  0  0  0  0
  -32.5149    0.6320   29.9520 C   0  0  0  0  0  0  0  0  0  0  0  0
  -33.7190    1.3272   29.8076 C   0  0  0  0  0  0  0  0  0  0  0  0
  -34.4047    1.6077   30.8983 C   0  0  0  0  0  0  0  0  0  0  0  0
  -33.9410    1.0637   32.1492 C   0  0  0  0  0  0  0  0  0  0  0  0
  -32.7840    0.3550   32.2646 C   0  0  0  0  0  0  0  0  0  0  0  0
  -32.0202    0.1814   31.2333 C   0  0  0  0  0  0  0  0  0  0  0  0
  -30.6621   -1.0128   31.0503 O   0  0  0  0  0  0  0  0  0  0  0  0
  -31.0551    1.0848   31.7173 C   0  0  0  0  0  0  0  0  0  0  0  0
  2  7  1  0
  7  8  1  0
  8  9  1  0
  9 10  2  0
  9 11  1  0
  7 17  2  0
 16 18  1  0
 11 12  2  0
 12 13  1  0
 13 14  2  0
 14 15  1  0
 15 16  2  0
 16 11  1  0
  1  2  2  0
  2  5  1  0
  5  6  2  0
  6  4  1  0
  4  3  2  0
  3  1  1  0
M  END

$$$$
