No_2594-gen_results/8p0m/2024-11-26-14-13-15/
     RDKit          3D

 11 11  0  0  0  0  0  0  0  0999 V2000
  -28.0162   -0.8135   28.8779 C   0  0  0  0  0  0  0  0  0  0  0  0
  -28.4690   -0.7850   29.8287 C   0  0  0  0  0  0  0  0  0  0  0  0
  -26.5455   -0.8762   28.8500 C   0  0  0  0  0  0  0  0  0  0  0  0
  -25.8041   -1.0324   30.0571 C   0  0  0  0  0  0  0  0  0  0  0  0
  -26.5373   -1.0386   31.2171 C   0  0  0  0  0  0  0  0  0  0  0  0
  -27.8843   -0.9532   31.1862 C   0  0  0  0  0  0  0  0  0  0  0  0
  -24.1391   -1.1177   30.0459 Cl  0  0  0  0  0  0  0  0  0  0  0  0
  -30.0700   -0.7183   29.9328 C   0  0  0  0  0  0  0  0  0  0  0  0
  -30.6408    0.0642   30.8485 O   0  0  0  0  0  0  0  0  0  0  0  0
  -30.6719   -0.9812   28.9142 O   0  0  0  0  0  0  0  0  0  0  0  0
  -25.7639   -0.8550   27.7162 F   0  0  0  0  0  0  0  0  0  0  0  0
  4  7  1  0
  2  8  1  0
  8  9  1  0
  8 10  2  0
  3 11  1  0
  1  2  2  0
  2  6  1  0
  6  5  2  0
  5  4  1  0
  4  3  2  0
  3  1  1  0
M  END

$$$$
