No_2865-gen_results/8p0m/2024-11-26-14-13-15/
     RDKit          3D

 14 15  0  0  0  0  0  0  0  0999 V2000
  -28.0162   -0.8135   28.8779 C   0  0  0  0  0  0  0  0  0  0  0  0
  -28.5949   -0.9931   29.8894 Br  0  0  0  0  0  0  0  0  0  0  0  0
  -26.5252   -0.7012   29.0257 C   0  0  0  0  0  0  0  0  0  0  0  0
  -25.6952   -0.0303   28.1256 C   0  0  0  0  0  0  0  0  0  0  0  0
  -24.2599    0.1380   28.3601 C   0  0  0  0  0  0  0  0  0  0  0  0
  -23.3508    0.9331   27.5949 C   0  0  0  0  0  0  0  0  0  0  0  0
  -22.0089    1.1972   28.0016 C   0  0  0  0  0  0  0  0  0  0  0  0
  -21.4597    0.3369   28.9202 C   0  0  0  0  0  0  0  0  0  0  0  0
  -23.5493   -0.5948   29.4145 C   0  0  0  0  0  0  0  0  0  0  0  0
  -22.2359   -0.4931   29.6713 C   0  0  0  0  0  0  0  0  0  0  0  0
  -28.3129   -0.4284   27.7103 F   0  0  0  0  0  0  0  0  0  0  0  0
  -23.9819    1.7972   26.5637 C   0  0  0  0  0  0  0  0  0  0  0  0
  -25.3525    1.5384   26.2299 C   0  0  0  0  0  0  0  0  0  0  0  0
  -26.1495    0.7721   27.0269 C   0  0  0  0  0  0  0  0  0  0  0  0
  1  2  1  0
  1  3  2  3
  3  4  1  0
  1 11  1  0
  4  5  2  0
  6 12  2  0
 12 13  1  0
 13 14  2  0
 14  4  1  0
  5  6  1  0
  6  7  1  0
  7  8  2  0
  8 10  1  0
 10  9  2  0
  9  5  1  0
M  END

$$$$
