No_2811-gen_results/8p0m/2024-11-26-14-13-15/
     RDKit          3D

 23 24  0  0  0  0  0  0  0  0999 V2000
  -28.0162   -0.8135   28.8779 C   0  0  0  0  0  0  0  0  0  0  0  0
  -27.0636   -0.1189   28.6079 C   0  0  0  0  0  0  0  0  0  0  0  0
  -26.9287    1.1713   29.0083 C   0  0  0  0  0  0  0  0  0  0  0  0
  -25.7702    2.0341   28.6884 C   0  0  0  0  0  0  0  0  0  0  0  0
  -24.7141    1.4431   27.9188 C   0  0  0  0  0  0  0  0  0  0  0  0
  -24.8590    0.0783   27.5836 C   0  0  0  0  0  0  0  0  0  0  0  0
  -25.9647   -0.6606   27.9164 C   0  0  0  0  0  0  0  0  0  0  0  0
  -27.9820   -1.6112   30.1028 N   0  0  0  0  0  0  0  0  0  0  0  0
  -23.5351    2.1704   27.5550 C   0  0  0  0  0  0  0  0  0  0  0  0
  -23.4187    3.0100   26.9973 O   0  0  0  0  0  0  0  0  0  0  0  0
  -22.3480    1.4860   27.9792 O   0  0  0  0  0  0  0  0  0  0  0  0
  -29.2108   -0.5893   28.5143 O   0  0  0  0  0  0  0  0  0  0  0  0
  -26.7425   -1.9586   30.7857 C   0  0  0  0  0  0  0  0  0  0  0  0
  -29.1049   -2.4189   30.5375 C   0  0  0  0  0  0  0  0  0  0  0  0
  -29.5618   -2.1176   31.8226 C   0  0  0  0  0  0  0  0  0  0  0  0
  -29.4067   -3.1495   32.5475 O   0  0  0  0  0  0  0  0  0  0  0  0
  -30.5591   -3.7128   33.0643 C   0  0  0  0  0  0  0  0  0  0  0  0
  -30.7154   -4.8891   32.6632 C   0  0  0  0  0  0  0  0  0  0  0  0
  -31.7354   -5.1881   32.1114 C   0  0  0  0  0  0  0  0  0  0  0  0
  -31.9530   -6.4788   31.3346 C   0  0  0  0  0  0  0  0  0  0  0  0
  -31.1183   -6.8303   30.6818 C   0  0  0  0  0  0  0  0  0  0  0  0
  -29.6749   -6.5289   31.0622 C   0  0  0  0  0  0  0  0  0  0  0  0
  -29.5250   -5.1705   31.5781 C   0  0  0  0  0  0  0  0  0  0  0  0
  1  2  1  0
  1  8  1  0
  5  9  1  0
  9 10  2  0
  9 11  1  0
  1 12  2  0
  8 13  1  0
  8 14  1  0
 14 15  1  0
 15 16  1  0
 16 17  1  0
 17 18  1  0
 18 19  2  0
 19 20  1  0
 20 21  2  0
 21 22  1  0
 22 23  2  0
 23 18  1  0
  2  3  2  0
  3  4  1  0
  4  5  2  0
  5  6  1  0
  6  7  2  0
  7  2  1  0
M  END

$$$$
