No_2294-gen_results/8p0m/2024-11-26-14-13-15/
     RDKit          3D

 16 17  0  0  0  0  0  0  0  0999 V2000
  -28.1229   -1.3353   28.4874 O   0  0  0  0  0  0  0  0  0  0  0  0
  -27.4806   -0.4044   28.7094 C   0  0  0  0  0  0  0  0  0  0  0  0
  -26.3804   -0.0867   27.9394 C   0  0  0  0  0  0  0  0  0  0  0  0
  -27.6664    0.4468   29.8988 N   0  0  0  0  0  0  0  0  0  0  0  0
  -26.4086    0.8567   26.8802 C   0  0  0  0  0  0  0  0  0  0  0  0
  -25.2466    1.1198   26.1102 C   0  0  0  0  0  0  0  0  0  0  0  0
  -25.2607    1.9700   25.0634 C   0  0  0  0  0  0  0  0  0  0  0  0
  -25.0599   -0.7159   28.1661 C   0  0  0  0  0  0  0  0  0  0  0  0
  -23.9021   -0.3217   27.4716 C   0  0  0  0  0  0  0  0  0  0  0  0
  -23.9543    0.5275   26.4893 C   0  0  0  0  0  0  0  0  0  0  0  0
  -28.7861    0.1533   30.7869 C   0  0  0  0  0  0  0  0  0  0  0  0
  -29.5708    0.9493   30.8849 C   0  0  0  0  0  0  0  0  0  0  0  0
  -29.4946    2.2656   30.3362 C   0  0  0  0  0  0  0  0  0  0  0  0
  -28.2531    2.6239   29.8298 C   0  0  0  0  0  0  0  0  0  0  0  0
  -26.6770    1.1991   30.3851 C   0  0  0  0  0  0  0  0  0  0  0  0
  -26.9156    2.3703   30.8408 C   0  0  0  0  0  0  0  0  0  0  0  0
  1  2  2  0
  2  3  1  0
  2  4  1  0
  4 11  1  0
 11 12  2  0
 12 13  1  0
 13 14  2  0
  4 15  1  0
 14 16  1  0
 15 16  2  0
  7  6  1  0
  3  5  2  0
  5  6  1  0
  6 10  2  0
 10  9  1  0
  9  8  2  0
  8  3  1  0
M  END

$$$$
