No_2605-gen_results/8p0m/2024-11-26-14-13-15/
     RDKit          3D

 25 28  0  0  0  0  0  0  0  0999 V2000
  -28.0162   -0.8135   28.8779 C   0  0  0  0  0  0  0  0  0  0  0  0
  -27.0636   -0.1190   28.6079 C   0  0  0  0  0  0  0  0  0  0  0  0
  -25.7647   -0.3897   29.0360 C   0  0  0  0  0  0  0  0  0  0  0  0
  -24.5516    0.4058   28.7646 C   0  0  0  0  0  0  0  0  0  0  0  0
  -24.6957    1.4480   27.7988 C   0  0  0  0  0  0  0  0  0  0  0  0
  -23.5821    2.2166   27.4626 C   0  0  0  0  0  0  0  0  0  0  0  0
  -22.3211    1.8240   27.9807 C   0  0  0  0  0  0  0  0  0  0  0  0
  -22.1777    0.8172   28.8883 C   0  0  0  0  0  0  0  0  0  0  0  0
  -23.3181    0.0417   29.2597 C   0  0  0  0  0  0  0  0  0  0  0  0
  -27.8970   -1.8952   29.8587 C   0  0  0  0  0  0  0  0  0  0  0  0
  -26.6530   -2.3395   30.2732 C   0  0  0  0  0  0  0  0  0  0  0  0
  -25.5330   -1.5566   29.9092 C   0  0  0  0  0  0  0  0  0  0  0  0
  -29.0621   -2.7222   30.2424 C   0  0  0  0  0  0  0  0  0  0  0  0
  -28.9426   -4.0233   30.3912 N   0  0  0  0  0  0  0  0  0  0  0  0
  -29.9913   -4.8906   30.1324 C   0  0  0  0  0  0  0  0  0  0  0  0
  -31.1453   -4.5468   30.7082 C   0  0  0  0  0  0  0  0  0  0  0  0
  -31.4527   -3.1182   30.7070 C   0  0  0  0  0  0  0  0  0  0  0  0
  -30.3547   -2.1831   30.4832 C   0  0  0  0  0  0  0  0  0  0  0  0
  -24.2411   -1.8930   30.3830 C   0  0  0  0  0  0  0  0  0  0  0  0
  -23.1441   -1.0809   30.1414 C   0  0  0  0  0  0  0  0  0  0  0  0
  -23.7095    3.2419   26.6370 O   0  0  0  0  0  0  0  0  0  0  0  0
  -32.7403   -2.6076   31.0742 C   0  0  0  0  0  0  0  0  0  0  0  0
  -32.8946   -2.2389   32.2168 N   0  0  0  0  0  0  0  0  0  0  0  0
  -33.8919   -1.7487   32.7125 C   0  0  0  0  0  0  0  0  0  0  0  0
  -34.0015   -1.3298   34.1368 C   0  0  0  0  0  0  0  0  0  0  0  0
 10 13  1  0
  6 21  1  0
 17 22  1  0
 22 23  1  0
 23 24  1  0
 24 25  2  0
 13 14  2  0
 14 15  1  0
 15 16  2  0
 16 17  1  0
 17 18  2  0
 18 13  1  0
  3  4  2  0
  9 20  2  0
 20 19  1  0
 19 12  2  0
  1  2  2  0
  2  3  1  0
  3 12  1  0
 12 11  1  0
 11 10  2  0
 10  1  1  0
  4  5  1  0
  5  6  2  0
  6  7  1  0
  7  8  2  0
  8  9  1  0
  9  4  1  0
M  END

$$$$
