No_2966-gen_results/8p0m/2024-11-26-14-13-15/
     RDKit          3D

 21 22  0  0  0  0  0  0  0  0999 V2000
  -28.0162   -0.8135   28.8779 C   0  0  0  0  0  0  0  0  0  0  0  0
  -27.0636   -0.1190   28.6079 C   0  0  0  0  0  0  0  0  0  0  0  0
  -25.7923   -0.4302   29.0761 C   0  0  0  0  0  0  0  0  0  0  0  0
  -25.5756   -1.5654   29.9363 C   0  0  0  0  0  0  0  0  0  0  0  0
  -26.7354   -2.3004   30.2173 C   0  0  0  0  0  0  0  0  0  0  0  0
  -27.9184   -1.9537   29.7629 C   0  0  0  0  0  0  0  0  0  0  0  0
  -27.1057    1.1023   27.7593 C   0  0  0  0  0  0  0  0  0  0  0  0
  -27.8576    1.5309   27.2156 C   0  0  0  0  0  0  0  0  0  0  0  0
  -27.8433    2.7213   26.2861 C   0  0  0  0  0  0  0  0  0  0  0  0
  -28.9357    3.2862   25.6170 C   0  0  0  0  0  0  0  0  0  0  0  0
  -30.1399    2.6209   25.6952 C   0  0  0  0  0  0  0  0  0  0  0  0
  -30.2383    1.4941   26.4532 C   0  0  0  0  0  0  0  0  0  0  0  0
  -29.2829    0.9986   27.1618 C   0  0  0  0  0  0  0  0  0  0  0  0
  -25.6092    1.6739   27.6038 C   0  0  0  0  0  0  0  0  0  0  0  0
  -25.1363    2.4604   28.5871 C   0  0  0  0  0  0  0  0  0  0  0  0
  -25.7162    2.7973   29.7405 N   0  0  0  0  0  0  0  0  0  0  0  0
  -26.2192    4.0415   29.7925 C   0  0  0  0  0  0  0  0  0  0  0  0
  -27.0303    4.3462   30.9784 C   0  0  0  0  0  0  0  0  0  0  0  0
  -26.1379    4.7971   28.8788 F   0  0  0  0  0  0  0  0  0  0  0  0
  -26.7639    5.3176   31.6390 F   0  0  0  0  0  0  0  0  0  0  0  0
  -27.1248    3.2462   31.7469 F   0  0  0  0  0  0  0  0  0  0  0  0
  2  7  1  0
  7 14  1  0
 14 15  2  3
 15 16  1  0
 16 17  1  0
 17 18  2  3
 17 19  1  0
 18 20  1  0
 18 21  1  0
  7  8  1  0
  1  2  2  0
  2  3  1  0
  3  4  2  0
  4  5  1  0
  5  6  2  0
  6  1  1  0
  8  9  2  0
  9 10  1  0
 10 11  2  0
 11 12  1  0
 12 13  2  0
 13  8  1  0
M  END

$$$$
