No_241-gen_results/8p0m/2024-11-26-14-13-15/
     RDKit          3D

 16 17  0  0  0  0  0  0  0  0999 V2000
  -28.0162   -0.8135   28.8779 C   0  0  0  0  0  0  0  0  0  0  0  0
  -27.0636   -0.1189   28.6079 C   0  0  0  0  0  0  0  0  0  0  0  0
  -26.9716    0.7139   27.5060 C   0  0  0  0  0  0  0  0  0  0  0  0
  -28.1053    0.7744   26.6421 C   0  0  0  0  0  0  0  0  0  0  0  0
  -29.2008    0.1044   27.0527 C   0  0  0  0  0  0  0  0  0  0  0  0
  -29.2096   -0.6029   28.1853 C   0  0  0  0  0  0  0  0  0  0  0  0
  -30.2055    0.3215   26.0588 N   0  0  0  0  0  0  0  0  0  0  0  0
  -30.0515    0.6517   24.8862 C   0  0  0  0  0  0  0  0  0  0  0  0
  -28.8853    1.4329   24.5274 C   0  0  0  0  0  0  0  0  0  0  0  0
  -27.8608    1.4746   25.4255 C   0  0  0  0  0  0  0  0  0  0  0  0
  -28.0680   -1.5600   30.0743 O   0  0  0  0  0  0  0  0  0  0  0  0
  -27.1851   -2.6412   30.1005 C   0  0  0  0  0  0  0  0  0  0  0  0
  -27.7375   -3.9559   30.1708 C   0  0  0  0  0  0  0  0  0  0  0  0
  -26.9944   -4.9655   29.9124 O   0  0  0  0  0  0  0  0  0  0  0  0
  -28.9190   -4.1393   30.5877 O   0  0  0  0  0  0  0  0  0  0  0  0
  -26.7367    2.0629   25.1767 O   0  0  0  0  0  0  0  0  0  0  0  0
  5  7  1  0
  8  9  1  0
  4 10  1  0
  9 10  1  0
  1 11  1  0
 11 12  1  0
 12 13  1  0
 13 14  2  0
 13 15  1  0
 10 16  2  0
  7  8  1  0
  1  2  2  0
  2  3  1  0
  3  4  2  0
  4  5  1  0
  5  6  2  0
  6  1  1  0
M  END

$$$$
