No_2977-gen_results/8p0m/2024-11-26-14-13-15/
     RDKit          3D

 16 17  0  0  0  0  0  0  0  0999 V2000
  -28.0162   -0.8135   28.8779 C   0  0  0  0  0  0  0  0  0  0  0  0
  -27.0636   -0.1190   28.6079 C   0  0  0  0  0  0  0  0  0  0  0  0
  -26.9716    0.7139   27.5060 C   0  0  0  0  0  0  0  0  0  0  0  0
  -25.8205    1.4909   27.1160 C   0  0  0  0  0  0  0  0  0  0  0  0
  -24.8579    1.3421   27.6008 C   0  0  0  0  0  0  0  0  0  0  0  0
  -24.6224    0.5295   28.8144 C   0  0  0  0  0  0  0  0  0  0  0  0
  -25.7344   -0.1811   29.1908 C   0  0  0  0  0  0  0  0  0  0  0  0
  -27.9596   -1.4412   30.2523 C   0  0  0  0  0  0  0  0  0  0  0  0
  -26.7274   -1.7699   30.8429 C   0  0  0  0  0  0  0  0  0  0  0  0
  -25.6289   -1.0329   30.4200 C   0  0  0  0  0  0  0  0  0  0  0  0
  -23.5441    2.1652   27.2447 C   0  0  0  0  0  0  0  0  0  0  0  0
  -22.5915    2.2599   28.0265 O   0  0  0  0  0  0  0  0  0  0  0  0
  -23.5132    2.7955   26.1395 O   0  0  0  0  0  0  0  0  0  0  0  0
  -28.2228    0.8215   26.6358 C   0  0  0  0  0  0  0  0  0  0  0  0
  -28.2013    0.6059   25.4498 O   0  0  0  0  0  0  0  0  0  0  0  0
  -29.3436    1.0513   27.2323 O   0  0  0  0  0  0  0  0  0  0  0  0
  5 11  1  0
 11 12  2  0
 11 13  1  0
  3 14  1  0
 14 15  2  0
 14 16  1  0
  2  3  1  0
  3  4  2  0
  4  5  1  0
  5  6  2  0
  6  7  1  0
  1  2  2  0
  2  7  1  0
  7 10  2  0
 10  9  1  0
  9  8  2  0
  8  1  1  0
M  END

$$$$
