No_2246-gen_results/8p0m/2024-11-26-14-13-15/
     RDKit          3D

 19 20  0  0  0  0  0  0  0  0999 V2000
  -28.0162   -0.8135   28.8779 C   0  0  0  0  0  0  0  0  0  0  0  0
  -27.0636   -0.1190   28.6079 C   0  0  0  0  0  0  0  0  0  0  0  0
  -25.7923   -0.4302   29.0761 C   0  0  0  0  0  0  0  0  0  0  0  0
  -25.2700   -0.0487   30.0123 C   0  0  0  0  0  0  0  0  0  0  0  0
  -28.5191   -0.6302   30.0918 C   0  0  0  0  0  0  0  0  0  0  0  0
  -27.6457   -0.5646   31.3559 C   0  0  0  0  0  0  0  0  0  0  0  0
  -26.2550   -0.2092   31.4004 C   0  0  0  0  0  0  0  0  0  0  0  0
  -29.8542   -1.0864   30.5161 C   0  0  0  0  0  0  0  0  0  0  0  0
  -30.7685   -0.5586   29.8019 N   0  0  0  0  0  0  0  0  0  0  0  0
  -30.7507    0.5849   29.3621 C   0  0  0  0  0  0  0  0  0  0  0  0
  -31.8770    1.0293   28.4239 C   0  0  0  0  0  0  0  0  0  0  0  0
  -32.1701   -1.0193   29.8736 C   0  0  0  0  0  0  0  0  0  0  0  0
  -33.0786   -0.7657   28.9487 C   0  0  0  0  0  0  0  0  0  0  0  0
  -33.0355    0.5063   28.4699 N   0  0  0  0  0  0  0  0  0  0  0  0
  -30.0378   -1.9691   31.3808 O   0  0  0  0  0  0  0  0  0  0  0  0
  -33.9004    0.7715   27.2594 C   0  0  0  0  0  0  0  0  0  0  0  0
  -31.6590    2.3745   27.7021 C   0  0  0  0  0  0  0  0  0  0  0  0
  -30.4907    3.1312   27.9860 C   0  0  0  0  0  0  0  0  0  0  0  0
  -32.5804    2.7530   26.7928 C   0  0  0  0  0  0  0  0  0  0  0  0
  1  2  1  0
  2  3  1  0
  3  4  2  0
  1  5  1  0
  5  6  1  0
  4  7  1  0
  6  7  2  0
  5  8  1  0
  8  9  1  0
  9 10  1  0
  9 12  1  0
 12 13  1  0
 11 14  1  0
 13 14  1  0
  8 15  2  0
 14 16  1  0
 11 17  1  0
 17 18  1  0
 17 19  1  0
 11 10  1  0
M  END

$$$$
