No_2792-gen_results/8p0m/2024-11-26-14-13-15/
     RDKit          3D

 26 28  0  0  0  0  0  0  0  0999 V2000
  -28.0162   -0.8135   28.8779 C   0  0  0  0  0  0  0  0  0  0  0  0
  -28.4690   -0.7850   29.8287 C   0  0  0  0  0  0  0  0  0  0  0  0
  -27.1356    0.2359   28.5352 C   0  0  0  0  0  0  0  0  0  0  0  0
  -26.8745    1.2825   29.3982 C   0  0  0  0  0  0  0  0  0  0  0  0
  -28.3613    0.1987   30.9244 C   0  0  0  0  0  0  0  0  0  0  0  0
  -27.5277    1.2234   30.6356 C   0  0  0  0  0  0  0  0  0  0  0  0
  -26.3879    0.2914   27.2334 C   0  0  0  0  0  0  0  0  0  0  0  0
  -25.1510    0.3034   27.2565 C   0  0  0  0  0  0  0  0  0  0  0  0
  -24.4401    0.7734   26.0139 C   0  0  0  0  0  0  0  0  0  0  0  0
  -25.1645    0.7575   24.8330 C   0  0  0  0  0  0  0  0  0  0  0  0
  -26.8422    0.7352   25.9349 C   0  0  0  0  0  0  0  0  0  0  0  0
  -28.4084    0.6923   25.9845 C   0  0  0  0  0  0  0  0  0  0  0  0
  -26.2900    0.8278   24.8240 C   0  0  0  0  0  0  0  0  0  0  0  0
  -29.1268    0.2630   25.1462 O   0  0  0  0  0  0  0  0  0  0  0  0
  -29.0507    1.2782   27.0359 O   0  0  0  0  0  0  0  0  0  0  0  0
  -30.0804    2.1365   26.7100 C   0  0  0  0  0  0  0  0  0  0  0  0
  -30.7373    2.7009   27.8171 C   0  0  0  0  0  0  0  0  0  0  0  0
  -31.7871    3.4247   27.5204 C   0  0  0  0  0  0  0  0  0  0  0  0
  -32.1773    3.5601   26.1987 C   0  0  0  0  0  0  0  0  0  0  0  0
  -31.5142    2.9484   25.3420 C   0  0  0  0  0  0  0  0  0  0  0  0
  -30.4230    2.2391   25.5046 C   0  0  0  0  0  0  0  0  0  0  0  0
  -27.2686    2.3461   31.6082 C   0  0  0  0  0  0  0  0  0  0  0  0
  -27.0519    2.3231   32.7057 N   0  0  0  0  0  0  0  0  0  0  0  0
  -26.6360    3.3080   33.5493 C   0  0  0  0  0  0  0  0  0  0  0  0
  -27.3603    3.9717   30.8438 Cl  0  0  0  0  0  0  0  0  0  0  0  0
  -25.8884    4.2918   32.9180 C   0  0  0  0  0  0  0  0  0  0  0  0
  3  7  1  0
 11 12  1  0
 12 14  2  0
 12 15  1  0
 15 16  1  0
  6 22  1  0
 22 23  1  0
 23 24  2  3
 22 25  1  0
 24 26  1  0
  7  8  2  0
  8  9  1  0
  9 10  2  0
 10 13  1  0
 13 11  2  0
 11  7  1  0
  1  2  2  0
  2  5  1  0
  5  6  2  0
  6  4  1  0
  4  3  2  0
  3  1  1  0
 16 17  2  0
 17 18  1  0
 18 19  2  0
 19 20  1  0
 20 21  2  0
 21 16  1  0
M  END

$$$$
