No_2946-gen_results/8p0m/2024-11-26-14-13-15/
     RDKit          3D

 15 16  0  0  0  0  0  0  0  0999 V2000
  -28.0162   -0.8135   28.8779 C   0  0  0  0  0  0  0  0  0  0  0  0
  -28.4690   -0.7850   29.8287 C   0  0  0  0  0  0  0  0  0  0  0  0
  -26.5042   -0.7777   28.8766 C   0  0  0  0  0  0  0  0  0  0  0  0
  -25.8103   -0.8531   30.1028 C   0  0  0  0  0  0  0  0  0  0  0  0
  -30.0136   -0.8410   29.8508 C   0  0  0  0  0  0  0  0  0  0  0  0
  -26.5670   -0.8850   31.2517 C   0  0  0  0  0  0  0  0  0  0  0  0
  -27.9411   -0.9069   31.1850 C   0  0  0  0  0  0  0  0  0  0  0  0
  -30.6476   -0.1344   28.9948 N   0  0  0  0  0  0  0  0  0  0  0  0
  -31.7166   -0.4734   28.3269 C   0  0  0  0  0  0  0  0  0  0  0  0
  -32.3848   -1.5662   28.6241 C   0  0  0  0  0  0  0  0  0  0  0  0
  -30.5816   -1.7120   30.5682 O   0  0  0  0  0  0  0  0  0  0  0  0
  -32.0816    0.3821   27.2251 C   0  0  0  0  0  0  0  0  0  0  0  0
  -33.5172   -2.0002   27.7957 C   0  0  0  0  0  0  0  0  0  0  0  0
  -33.2214   -0.0214   26.4569 C   0  0  0  0  0  0  0  0  0  0  0  0
  -33.9087   -1.1851   26.7656 C   0  0  0  0  0  0  0  0  0  0  0  0
  2  5  1  0
  5  8  1  0
  8  9  1  0
  5 11  2  0
  9 10  2  0
 10 13  1  0
 13 15  2  0
 15 14  1  0
 14 12  2  0
 12  9  1  0
  1  2  2  0
  2  7  1  0
  7  6  2  0
  6  4  1  0
  4  3  2  0
  3  1  1  0
M  END

$$$$
