No_2132-gen_results/8p0m/2024-11-26-14-13-15/
     RDKit          3D

 12 13  0  0  0  0  0  0  0  0999 V2000
  -28.0162   -0.8135   28.8779 C   0  0  0  0  0  0  0  0  0  0  0  0
  -28.4690   -0.7850   29.8287 C   0  0  0  0  0  0  0  0  0  0  0  0
  -27.2166   -0.0832   27.9639 C   0  0  0  0  0  0  0  0  0  0  0  0
  -27.0905    1.2695   28.4177 C   0  0  0  0  0  0  0  0  0  0  0  0
  -27.6655    1.5758   29.6941 C   0  0  0  0  0  0  0  0  0  0  0  0
  -28.3335    0.6031   30.4319 C   0  0  0  0  0  0  0  0  0  0  0  0
  -26.3583    2.2788   27.6965 C   0  0  0  0  0  0  0  0  0  0  0  0
  -25.8439    2.1616   26.6256 C   0  0  0  0  0  0  0  0  0  0  0  0
  -24.9679    3.2280   26.0264 C   0  0  0  0  0  0  0  0  0  0  0  0
  -24.8692    4.4406   26.7192 C   0  0  0  0  0  0  0  0  0  0  0  0
  -26.0887    3.5658   28.4098 C   0  0  0  0  0  0  0  0  0  0  0  0
  -25.3612    4.5854   27.8976 C   0  0  0  0  0  0  0  0  0  0  0  0
  4  7  1  0
  7  8  2  0
  8  9  1  0
  9 10  2  0
 10 12  1  0
 12 11  2  0
 11  7  1  0
  1  2  2  0
  2  6  1  0
  6  5  2  0
  5  4  1  0
  4  3  2  0
  3  1  1  0
M  END

$$$$
