No_2435-gen_results/8p0m/2024-11-26-14-13-15/
     RDKit          3D

 12 13  0  0  0  0  0  0  0  0999 V2000
  -28.1229   -1.3353   28.4874 O   0  0  0  0  0  0  0  0  0  0  0  0
  -27.4806   -0.4044   28.7094 C   0  0  0  0  0  0  0  0  0  0  0  0
  -26.3804   -0.0867   27.9394 C   0  0  0  0  0  0  0  0  0  0  0  0
  -27.4232    0.1749   30.0549 N   0  0  0  0  0  0  0  0  0  0  0  0
  -25.4065    0.7421   28.2860 C   0  0  0  0  0  0  0  0  0  0  0  0
  -25.5431    1.4795   29.5328 C   0  0  0  0  0  0  0  0  0  0  0  0
  -26.5322    1.0821   30.4010 C   0  0  0  0  0  0  0  0  0  0  0  0
  -24.3170    1.2191   27.4105 C   0  0  0  0  0  0  0  0  0  0  0  0
  -23.0559    1.4620   27.9702 C   0  0  0  0  0  0  0  0  0  0  0  0
  -22.9988    1.8330   29.3592 C   0  0  0  0  0  0  0  0  0  0  0  0
  -24.1660    1.6858   30.1935 C   0  0  0  0  0  0  0  0  0  0  0  0
  -21.7082    1.9442   27.0695 Cl  0  0  0  0  0  0  0  0  0  0  0  0
  1  2  2  0
  2  3  1  0
  2  4  1  0
  3  5  1  0
  6  7  1  0
  9 12  1  0
  7  4  1  0
  5  8  2  0
  8  9  1  0
  9 10  2  0
 10 11  1  0
 11  6  2  0
  6  5  1  0
M  END

$$$$
