No_2571-gen_results/8p0m/2024-11-26-14-13-15/
     RDKit          3D

 27 30  0  0  0  0  0  0  0  0999 V2000
  -28.0162   -0.8135   28.8779 C   0  0  0  0  0  0  0  0  0  0  0  0
  -28.4690   -0.7850   29.8287 C   0  0  0  0  0  0  0  0  0  0  0  0
  -26.5455   -0.8762   28.8500 C   0  0  0  0  0  0  0  0  0  0  0  0
  -25.8041   -1.0324   30.0571 C   0  0  0  0  0  0  0  0  0  0  0  0
  -26.5373   -1.0386   31.2171 C   0  0  0  0  0  0  0  0  0  0  0  0
  -27.8843   -0.9532   31.1862 C   0  0  0  0  0  0  0  0  0  0  0  0
  -24.3655   -1.1134   30.0483 C   0  0  0  0  0  0  0  0  0  0  0  0
  -23.6925    0.1188   29.9185 C   0  0  0  0  0  0  0  0  0  0  0  0
  -23.9863    1.2743   30.4522 C   0  0  0  0  0  0  0  0  0  0  0  0
  -23.3983    2.4978   30.0514 C   0  0  0  0  0  0  0  0  0  0  0  0
  -22.5872    2.4117   28.9079 C   0  0  0  0  0  0  0  0  0  0  0  0
  -22.7366    0.3142   28.7819 C   0  0  0  0  0  0  0  0  0  0  0  0
  -22.1782    1.3578   28.3860 C   0  0  0  0  0  0  0  0  0  0  0  0
  -25.6311   -0.7516   27.3817 Cl  0  0  0  0  0  0  0  0  0  0  0  0
  -30.0579   -0.7191   29.8891 C   0  0  0  0  0  0  0  0  0  0  0  0
  -30.4778   -0.2060   28.9574 O   0  0  0  0  0  0  0  0  0  0  0  0
  -30.7504   -1.1977   30.9255 N   0  0  0  0  0  0  0  0  0  0  0  0
  -32.1925   -1.1419   30.9159 C   0  0  0  0  0  0  0  0  0  0  0  0
  -32.8517   -1.6266   31.5354 C   0  0  0  0  0  0  0  0  0  0  0  0
  -34.2833   -1.5443   31.5038 C   0  0  0  0  0  0  0  0  0  0  0  0
  -34.8261   -0.7254   30.4824 C   0  0  0  0  0  0  0  0  0  0  0  0
  -33.9534   -0.1112   29.6305 C   0  0  0  0  0  0  0  0  0  0  0  0
  -32.6367   -0.2225   29.7804 C   0  0  0  0  0  0  0  0  0  0  0  0
  -34.5196    0.7712   28.5647 C   0  0  0  0  0  0  0  0  0  0  0  0
  -35.5752    1.2348   28.5058 C   0  0  0  0  0  0  0  0  0  0  0  0
  -36.5174    1.1186   29.6030 C   0  0  0  0  0  0  0  0  0  0  0  0
  -36.1960   -0.0318   30.5007 C   0  0  0  0  0  0  0  0  0  0  0  0
  4  7  1  0
  7  8  1  0
  3 14  1  0
  2 15  1  0
 15 16  2  0
 15 17  1  0
 17 18  1  0
 18 19  2  0
 19 20  1  0
 20 21  2  0
 22 23  2  0
 23 18  1  0
  1  2  2  0
  2  6  1  0
  6  5  2  0
  5  4  1  0
  4  3  2  0
  3  1  1  0
 21 22  1  0
 22 24  1  0
 24 25  2  0
 25 26  1  0
 26 27  2  0
 27 21  1  0
  8  9  2  0
  9 10  1  0
 10 11  2  0
 11 13  1  0
 13 12  2  0
 12  8  1  0
M  END

$$$$
