No_2813-gen_results/8p0m/2024-11-26-14-13-15/
     RDKit          3D

 15 16  0  0  0  0  0  0  0  0999 V2000
  -28.0162   -0.8135   28.8779 C   0  0  0  0  0  0  0  0  0  0  0  0
  -27.0636   -0.1189   28.6079 C   0  0  0  0  0  0  0  0  0  0  0  0
  -25.7647   -0.3897   29.0360 C   0  0  0  0  0  0  0  0  0  0  0  0
  -25.5296   -1.5302   29.9014 C   0  0  0  0  0  0  0  0  0  0  0  0
  -26.6577   -2.2915   30.2035 C   0  0  0  0  0  0  0  0  0  0  0  0
  -27.8548   -1.9555   29.7630 C   0  0  0  0  0  0  0  0  0  0  0  0
  -24.5441    0.4126   28.7379 C   0  0  0  0  0  0  0  0  0  0  0  0
  -24.4731    1.2065   27.7114 C   0  0  0  0  0  0  0  0  0  0  0  0
  -25.1842    1.6469   26.8792 C   0  0  0  0  0  0  0  0  0  0  0  0
  -24.8101    2.4700   25.7819 C   0  0  0  0  0  0  0  0  0  0  0  0
  -23.4595    2.8569   25.7070 C   0  0  0  0  0  0  0  0  0  0  0  0
  -22.9727    1.7144   27.5696 C   0  0  0  0  0  0  0  0  0  0  0  0
  -22.5647    2.5174   26.6288 C   0  0  0  0  0  0  0  0  0  0  0  0
  -23.4742    0.3036   29.8045 C   0  0  0  0  0  0  0  0  0  0  0  0
  -23.4929    1.0269   30.7726 O   0  0  0  0  0  0  0  0  0  0  0  0
  3  7  1  0
  7  8  1  0
  7 14  1  0
 14 15  1  0
  1  2  2  0
  2  3  1  0
  3  4  2  0
  4  5  1  0
  5  6  2  0
  6  1  1  0
  8  9  2  0
  9 10  1  0
 10 11  2  0
 11 13  1  0
 13 12  2  0
 12  8  1  0
M  END

$$$$
