No_2202-gen_results/8p0m/2024-11-26-14-13-15/
     RDKit          3D

 30 32  0  0  0  0  0  0  0  0999 V2000
  -28.0162   -0.8135   28.8779 C   0  0  0  0  0  0  0  0  0  0  0  0
  -27.0636   -0.1190   28.6079 C   0  0  0  0  0  0  0  0  0  0  0  0
  -25.7923   -0.4302   29.0761 C   0  0  0  0  0  0  0  0  0  0  0  0
  -24.5456    0.3494   28.8225 C   0  0  0  0  0  0  0  0  0  0  0  0
  -24.6586    1.4196   27.8878 C   0  0  0  0  0  0  0  0  0  0  0  0
  -25.9471    1.6811   27.3792 C   0  0  0  0  0  0  0  0  0  0  0  0
  -27.0439    0.9739   27.6871 C   0  0  0  0  0  0  0  0  0  0  0  0
  -29.1797   -0.1202   29.1288 N   0  0  0  0  0  0  0  0  0  0  0  0
  -29.5842    0.1318   30.4036 C   0  0  0  0  0  0  0  0  0  0  0  0
  -30.0536    0.0965   28.0536 C   0  0  0  0  0  0  0  0  0  0  0  0
  -23.4618    2.1735   27.6266 C   0  0  0  0  0  0  0  0  0  0  0  0
  -22.4957    2.0053   28.2322 F   0  0  0  0  0  0  0  0  0  0  0  0
  -23.7385    3.4916   27.5617 F   0  0  0  0  0  0  0  0  0  0  0  0
  -23.0840    1.8543   26.2692 F   0  0  0  0  0  0  0  0  0  0  0  0
  -30.0623    0.8964   27.3044 C   0  0  0  0  0  0  0  0  0  0  0  0
  -30.6719    1.2922   26.4983 C   0  0  0  0  0  0  0  0  0  0  0  0
  -31.8307    0.4848   26.1699 C   0  0  0  0  0  0  0  0  0  0  0  0
  -31.2645   -0.7154   28.0697 C   0  0  0  0  0  0  0  0  0  0  0  0
  -32.1033   -0.5338   27.0390 C   0  0  0  0  0  0  0  0  0  0  0  0
  -29.2022   -0.6010   31.4037 C   0  0  0  0  0  0  0  0  0  0  0  0
  -30.3336    1.3325   30.6032 C   0  0  0  0  0  0  0  0  0  0  0  0
  -30.7619    1.6425   31.8876 C   0  0  0  0  0  0  0  0  0  0  0  0
  -29.6121   -0.2976   32.7470 C   0  0  0  0  0  0  0  0  0  0  0  0
  -30.3649    0.8272   32.9846 C   0  0  0  0  0  0  0  0  0  0  0  0
  -25.4804   -1.5770   30.0019 C   0  0  0  0  0  0  0  0  0  0  0  0
  -25.8757   -2.6854   29.6596 O   0  0  0  0  0  0  0  0  0  0  0  0
  -24.6924   -1.4852   30.9473 O   0  0  0  0  0  0  0  0  0  0  0  0
  -29.1384   -1.1645   33.8742 C   0  0  0  0  0  0  0  0  0  0  0  0
  -29.8137   -1.0963   34.8862 O   0  0  0  0  0  0  0  0  0  0  0  0
  -27.9014   -1.5367   33.8474 O   0  0  0  0  0  0  0  0  0  0  0  0
  1  2  1  0
  1  8  1  0
  8  9  1  0
  8 10  1  0
  5 11  1  0
 11 12  1  0
 11 13  1  0
 11 14  1  0
  3 25  1  0
 25 26  2  0
 25 27  1  0
 23 28  1  0
 28 29  2  0
 28 30  1  0
  2  3  2  0
  3  4  1  0
  4  5  2  0
  5  6  1  0
  6  7  2  0
  7  2  1  0
 10 15  2  0
 15 16  1  0
 16 17  2  0
 17 19  1  0
 19 18  2  0
 18 10  1  0
  9 20  2  0
 20 23  1  0
 23 24  2  0
 24 22  1  0
 22 21  2  0
 21  9  1  0
M  END

$$$$
