No_2719-gen_results/8p0m/2024-11-26-14-13-15/
     RDKit          3D

 20 21  0  0  0  0  0  0  0  0999 V2000
  -28.0162   -0.8135   28.8779 C   0  0  0  0  0  0  0  0  0  0  0  0
  -28.4690   -0.7850   29.8287 C   0  0  0  0  0  0  0  0  0  0  0  0
  -26.5042   -0.7777   28.8766 C   0  0  0  0  0  0  0  0  0  0  0  0
  -25.8103   -0.8531   30.1028 C   0  0  0  0  0  0  0  0  0  0  0  0
  -27.9906   -0.8916   31.2257 C   0  0  0  0  0  0  0  0  0  0  0  0
  -26.6042   -0.8676   31.2652 C   0  0  0  0  0  0  0  0  0  0  0  0
  -24.3894   -0.8049   30.1638 C   0  0  0  0  0  0  0  0  0  0  0  0
  -23.8172    0.4762   29.9118 C   0  0  0  0  0  0  0  0  0  0  0  0
  -22.5010    0.5449   29.4097 C   0  0  0  0  0  0  0  0  0  0  0  0
  -21.7696   -0.6524   29.2129 C   0  0  0  0  0  0  0  0  0  0  0  0
  -23.6939   -1.8206   29.2518 C   0  0  0  0  0  0  0  0  0  0  0  0
  -22.3271   -1.7235   29.1652 N   0  0  0  0  0  0  0  0  0  0  0  0
  -23.8529   -1.2742   31.6542 C   0  0  0  0  0  0  0  0  0  0  0  0
  -24.4403    1.7309   30.3371 C   0  0  0  0  0  0  0  0  0  0  0  0
  -24.9138    2.4915   29.4242 O   0  0  0  0  0  0  0  0  0  0  0  0
  -24.2718    2.1898   31.5981 O   0  0  0  0  0  0  0  0  0  0  0  0
  -30.0382   -0.7348   29.6456 C   0  0  0  0  0  0  0  0  0  0  0  0
  -30.4571   -0.3773   28.6890 O   0  0  0  0  0  0  0  0  0  0  0  0
  -30.8151   -1.0804   30.6888 O   0  0  0  0  0  0  0  0  0  0  0  0
  -20.4873   -0.3562   28.6559 N   0  0  0  0  0  0  0  0  0  0  0  0
  4  7  1  0
  7  8  1  0
  9 10  1  0
  7 11  1  0
 10 12  1  0
  7 13  1  0
  8 14  1  0
 14 15  2  0
 14 16  1  0
  2 17  1  0
 17 18  2  0
 17 19  1  0
 10 20  1  0
  8  9  1  0
 12 11  1  0
  1  2  2  0
  2  5  1  0
  5  6  2  0
  6  4  1  0
  4  3  2  0
  3  1  1  0
M  END

$$$$
