No_2677-gen_results/8p0m/2024-11-26-14-13-15/
     RDKit          3D

 20 20  0  0  0  0  0  0  0  0999 V2000
  -28.0162   -0.8135   28.8779 C   0  0  0  0  0  0  0  0  0  0  0  0
  -27.0636   -0.1189   28.6079 C   0  0  0  0  0  0  0  0  0  0  0  0
  -26.8756    1.1325   28.9134 C   0  0  0  0  0  0  0  0  0  0  0  0
  -25.6883    1.9515   28.5672 C   0  0  0  0  0  0  0  0  0  0  0  0
  -24.6394    1.2834   27.8753 C   0  0  0  0  0  0  0  0  0  0  0  0
  -23.4556    1.9996   27.5653 C   0  0  0  0  0  0  0  0  0  0  0  0
  -25.8432   -0.7373   27.9210 C   0  0  0  0  0  0  0  0  0  0  0  0
  -24.6903   -0.0521   27.5832 C   0  0  0  0  0  0  0  0  0  0  0  0
  -22.2280    2.1389   27.8751 N   0  0  0  0  0  0  0  0  0  0  0  0
  -23.6663    2.7858   26.3732 O   0  0  0  0  0  0  0  0  0  0  0  0
  -27.8568   -1.4160   30.2772 C   0  0  0  0  0  0  0  0  0  0  0  0
  -26.7884   -1.4934   30.7811 C   0  0  0  0  0  0  0  0  0  0  0  0
  -29.0976   -2.1381   30.7962 C   0  0  0  0  0  0  0  0  0  0  0  0
  -30.1345   -1.6635   30.8120 C   0  0  0  0  0  0  0  0  0  0  0  0
  -30.3433   -0.3805   30.5889 C   0  0  0  0  0  0  0  0  0  0  0  0
  -29.5652    0.5067   30.9376 C   0  0  0  0  0  0  0  0  0  0  0  0
  -29.8452    1.5075   31.6454 C   0  0  0  0  0  0  0  0  0  0  0  0
  -28.9513    2.6364   31.9738 C   0  0  0  0  0  0  0  0  0  0  0  0
  -27.6216    2.4552   31.5487 C   0  0  0  0  0  0  0  0  0  0  0  0
  -27.2390    1.3140   30.9237 C   0  0  0  0  0  0  0  0  0  0  0  0
  1  2  2  3
  2  3  1  0
  3  4  1  0
  4  5  1  0
  5  6  1  0
  2  7  1  0
  5  8  1  0
  7  8  1  0
  6  9  1  0
  6 10  2  0
  1 11  1  0
 11 12  2  0
 11 13  1  0
 13 14  1  0
 14 15  2  3
 15 16  1  0
 16 17  2  3
 17 18  1  0
 18 19  2  3
 19 20  1  0
M  END

$$$$
