No_228-gen_results/8p0m/2024-11-26-14-13-15/
     RDKit          3D

 16 17  0  0  0  0  0  0  0  0999 V2000
  -28.1229   -1.3353   28.4874 O   0  0  0  0  0  0  0  0  0  0  0  0
  -27.0637   -0.8242   28.8687 C   0  0  0  0  0  0  0  0  0  0  0  0
  -26.9592    0.0926   29.7582 C   0  0  0  0  0  0  0  0  0  0  0  0
  -25.8012   -1.3566   28.3971 N   0  0  0  0  0  0  0  0  0  0  0  0
  -27.8641    0.8180   30.2806 C   0  0  0  0  0  0  0  0  0  0  0  0
  -24.5359   -0.9360   28.7790 C   0  0  0  0  0  0  0  0  0  0  0  0
  -24.4421    0.1083   29.6161 C   0  0  0  0  0  0  0  0  0  0  0  0
  -25.5448    0.6675   30.1415 C   0  0  0  0  0  0  0  0  0  0  0  0
  -28.2429    0.6838   31.4751 C   0  0  0  0  0  0  0  0  0  0  0  0
  -29.3970    1.3972   32.1461 C   0  0  0  0  0  0  0  0  0  0  0  0
  -30.1745    2.1312   31.2481 C   0  0  0  0  0  0  0  0  0  0  0  0
  -29.8406    2.1790   29.9229 C   0  0  0  0  0  0  0  0  0  0  0  0
  -28.6971    1.5413   29.3910 C   0  0  0  0  0  0  0  0  0  0  0  0
  -23.0484    0.5141   30.0209 C   0  0  0  0  0  0  0  0  0  0  0  0
  -23.0345    1.5043   30.7285 O   0  0  0  0  0  0  0  0  0  0  0  0
  -21.9858   -0.0448   29.7022 O   0  0  0  0  0  0  0  0  0  0  0  0
  1  2  2  0
  2  3  1  0
  2  4  1  0
  3  5  1  0
  4  6  1  0
  3  8  1  0
  7  8  1  0
  7 14  1  0
 14 15  2  0
 14 16  1  0
  7  6  1  0
  5  9  2  0
  9 10  1  0
 10 11  2  0
 11 12  1  0
 12 13  2  0
 13  5  1  0
M  END

$$$$
