No_246-gen_results/8p0m/2024-11-26-14-13-15/
     RDKit          3D

 18 18  0  0  0  0  0  0  0  0999 V2000
  -28.0162   -0.8135   28.8779 C   0  0  0  0  0  0  0  0  0  0  0  0
  -27.0636   -0.1190   28.6079 C   0  0  0  0  0  0  0  0  0  0  0  0
  -26.9716    0.7139   27.5060 C   0  0  0  0  0  0  0  0  0  0  0  0
  -25.8205    1.4909   27.1160 C   0  0  0  0  0  0  0  0  0  0  0  0
  -24.6562    1.4242   27.9180 C   0  0  0  0  0  0  0  0  0  0  0  0
  -24.6847    0.5901   29.0659 C   0  0  0  0  0  0  0  0  0  0  0  0
  -25.8099   -0.1265   29.3338 C   0  0  0  0  0  0  0  0  0  0  0  0
  -28.7093   -0.4588   30.1754 C   0  0  0  0  0  0  0  0  0  0  0  0
  -28.5882    0.4074   30.7539 F   0  0  0  0  0  0  0  0  0  0  0  0
  -30.1149   -0.8242   30.0363 F   0  0  0  0  0  0  0  0  0  0  0  0
  -28.3396   -1.6348   31.0209 F   0  0  0  0  0  0  0  0  0  0  0  0
  -23.3036    2.3855   27.5794 Cl  0  0  0  0  0  0  0  0  0  0  0  0
  -23.4486    0.5130   29.9253 C   0  0  0  0  0  0  0  0  0  0  0  0
  -22.4391    0.0872   29.5361 O   0  0  0  0  0  0  0  0  0  0  0  0
  -23.6847    0.9784   31.1730 O   0  0  0  0  0  0  0  0  0  0  0  0
  -28.1189    0.8325   26.6107 C   0  0  0  0  0  0  0  0  0  0  0  0
  -28.4211    0.5927   25.6862 Cl  0  0  0  0  0  0  0  0  0  0  0  0
  -29.2331    1.1243   27.5958 O   0  0  0  0  0  0  0  0  0  0  0  0
  1  2  2  3
  2  3  1  0
  3  4  1  0
  4  5  1  0
  5  6  1  0
  2  7  1  0
  6  7  1  0
  1  8  1  0
  8  9  1  0
  8 10  1  0
  8 11  1  0
  5 12  1  0
  6 13  1  0
 13 14  2  0
 13 15  1  0
  3 16  1  0
 16 17  1  0
 16 18  2  0
M  END

$$$$
