No_2630-gen_results/8p0m/2024-11-26-14-13-15/
     RDKit          3D

 18 18  0  0  0  0  0  0  0  0999 V2000
  -28.0162   -0.8135   28.8779 C   0  0  0  0  0  0  0  0  0  0  0  0
  -27.0636   -0.1189   28.6079 C   0  0  0  0  0  0  0  0  0  0  0  0
  -26.8756    1.1325   28.9134 C   0  0  0  0  0  0  0  0  0  0  0  0
  -25.6883    1.9515   28.5672 C   0  0  0  0  0  0  0  0  0  0  0  0
  -24.6394    1.2834   27.8753 C   0  0  0  0  0  0  0  0  0  0  0  0
  -24.8068   -0.0513   27.6040 C   0  0  0  0  0  0  0  0  0  0  0  0
  -25.9019   -0.7670   27.9511 C   0  0  0  0  0  0  0  0  0  0  0  0
  -28.7095   -0.5833   30.0504 N   0  0  0  0  0  0  0  0  0  0  0  0
  -23.4625    1.9806   27.4675 C   0  0  0  0  0  0  0  0  0  0  0  0
  -22.2577    1.6344   27.6706 N   0  0  0  0  0  0  0  0  0  0  0  0
  -23.6566    3.0332   26.6012 N   0  0  0  0  0  0  0  0  0  0  0  0
  -29.4607   -0.8903   30.6766 C   0  0  0  0  0  0  0  0  0  0  0  0
  -29.9161   -0.3319   31.9171 N   0  0  0  0  0  0  0  0  0  0  0  0
  -29.7562   -2.1681   30.6889 F   0  0  0  0  0  0  0  0  0  0  0  0
  -21.9030    0.7871   28.6993 C   0  0  0  0  0  0  0  0  0  0  0  0
  -21.6395   -0.5294   28.4931 C   0  0  0  0  0  0  0  0  0  0  0  0
  -29.7265    0.9931   32.0761 C   0  0  0  0  0  0  0  0  0  0  0  0
  -29.0113    1.4259   31.4349 C   0  0  0  0  0  0  0  0  0  0  0  0
  1  8  1  0
  5  9  1  0
  9 10  1  0
  9 11  2  0
  8 12  2  3
 12 13  1  0
 12 14  1  0
 10 15  1  0
 15 16  1  0
 13 17  1  0
 17 18  2  0
  1  2  1  0
  2  3  2  0
  3  4  1  0
  4  5  2  0
  5  6  1  0
  6  7  2  0
  7  2  1  0
M  END

$$$$
