No_2733-gen_results/8p0m/2024-11-26-14-13-15/
     RDKit          3D

 19 20  0  0  0  0  0  0  0  0999 V2000
  -28.0162   -0.8135   28.8779 C   0  0  0  0  0  0  0  0  0  0  0  0
  -27.0636   -0.1189   28.6079 C   0  0  0  0  0  0  0  0  0  0  0  0
  -26.9287    1.1713   29.0083 C   0  0  0  0  0  0  0  0  0  0  0  0
  -27.9560    1.7411   29.7840 C   0  0  0  0  0  0  0  0  0  0  0  0
  -29.0569   -0.3271   29.7466 C   0  0  0  0  0  0  0  0  0  0  0  0
  -28.9828    0.9722   30.1516 C   0  0  0  0  0  0  0  0  0  0  0  0
  -25.8815   -0.6260   27.7945 C   0  0  0  0  0  0  0  0  0  0  0  0
  -24.5472   -0.2311   28.2390 C   0  0  0  0  0  0  0  0  0  0  0  0
  -24.3284    1.1339   28.3332 C   0  0  0  0  0  0  0  0  0  0  0  0
  -25.5360    1.7883   29.0936 C   0  0  0  0  0  0  0  0  0  0  0  0
  -23.0989    1.7675   28.2677 C   0  0  0  0  0  0  0  0  0  0  0  0
  -22.5887    1.8227   27.0506 O   0  0  0  0  0  0  0  0  0  0  0  0
  -22.4134    2.1714   29.2638 O   0  0  0  0  0  0  0  0  0  0  0  0
  -30.4623    1.7129   31.1038 Br  0  0  0  0  0  0  0  0  0  0  0  0
  -25.3074    3.1770   29.5651 C   0  0  0  0  0  0  0  0  0  0  0  0
  -25.7770    4.1483   28.7074 C   0  0  0  0  0  0  0  0  0  0  0  0
  -25.6455    4.2615   27.4637 C   0  0  0  0  0  0  0  0  0  0  0  0
  -26.3086    5.3414   29.4344 C   0  0  0  0  0  0  0  0  0  0  0  0
  -26.4195    5.3809   30.6651 O   0  0  0  0  0  0  0  0  0  0  0  0
  9 11  1  0
 11 12  2  0
 11 13  1  0
  6 14  1  0
 10 15  1  0
 15 16  1  0
 16 17  1  0
 16 18  1  0
 18 19  2  0
  1  2  2  0
  3  4  2  0
  4  6  1  0
  6  5  2  0
  5  1  1  0
  2  3  1  0
  3 10  1  0
 10  9  2  0
  9  8  1  0
  8  7  2  0
  7  2  1  0
M  END

$$$$
