No_2679-gen_results/8p0m/2024-11-26-14-13-15/
     RDKit          3D

 10 10  0  0  0  0  0  0  0  0999 V2000
  -28.1229   -1.3353   28.4874 O   0  0  0  0  0  0  0  0  0  0  0  0
  -27.4806   -0.4044   28.7094 C   0  0  0  0  0  0  0  0  0  0  0  0
  -27.1904    0.2460   29.5268 C   0  0  0  0  0  0  0  0  0  0  0  0
  -26.8157    0.1371   27.4262 N   0  0  0  0  0  0  0  0  0  0  0  0
  -26.3550    1.4196   29.7643 C   0  0  0  0  0  0  0  0  0  0  0  0
  -25.9888    1.2374   27.3937 C   0  0  0  0  0  0  0  0  0  0  0  0
  -25.3670    1.6719   26.2222 C   0  0  0  0  0  0  0  0  0  0  0  0
  -25.7157    1.9137   28.6150 C   0  0  0  0  0  0  0  0  0  0  0  0
  -25.1221    1.0328   25.2608 C   0  0  0  0  0  0  0  0  0  0  0  0
  -25.7883   -0.3012   25.2915 C   0  0  0  0  0  0  0  0  0  0  0  0
  1  2  2  0
  2  3  1  0
  2  4  1  0
  3  5  1  0
  6  7  1  0
  6  8  1  0
  7  9  2  3
  9 10  1  0
  5  8  1  0
  6  4  1  0
M  END

$$$$
