No_2501-gen_results/8p0m/2024-11-26-14-13-15/
     RDKit          3D

 18 19  0  0  0  0  0  0  0  0999 V2000
  -28.1229   -1.3353   28.4874 O   0  0  0  0  0  0  0  0  0  0  0  0
  -27.4806   -0.4044   28.7094 C   0  0  0  0  0  0  0  0  0  0  0  0
  -27.1904    0.2460   29.5268 C   0  0  0  0  0  0  0  0  0  0  0  0
  -26.8157    0.1371   27.4262 N   0  0  0  0  0  0  0  0  0  0  0  0
  -26.3550    1.4196   29.7643 C   0  0  0  0  0  0  0  0  0  0  0  0
  -26.0125    1.2307   27.4050 C   0  0  0  0  0  0  0  0  0  0  0  0
  -25.7456    1.9087   28.5801 C   0  0  0  0  0  0  0  0  0  0  0  0
  -27.7372   -0.2154   30.9909 C   0  0  0  0  0  0  0  0  0  0  0  0
  -28.9552    0.5485   31.3368 C   0  0  0  0  0  0  0  0  0  0  0  0
  -29.0388    1.6235   31.3107 C   0  0  0  0  0  0  0  0  0  0  0  0
  -30.2657    2.3863   31.8185 C   0  0  0  0  0  0  0  0  0  0  0  0
  -31.2762    1.5418   32.2720 C   0  0  0  0  0  0  0  0  0  0  0  0
  -29.9473   -0.4515   31.9569 C   0  0  0  0  0  0  0  0  0  0  0  0
  -31.1201    0.1872   32.3728 C   0  0  0  0  0  0  0  0  0  0  0  0
  -25.2137    1.6671   25.9854 Cl  0  0  0  0  0  0  0  0  0  0  0  0
  -24.8808    3.1057   28.6230 C   0  0  0  0  0  0  0  0  0  0  0  0
  -24.9883    3.8180   29.5533 O   0  0  0  0  0  0  0  0  0  0  0  0
  -24.1557    3.4355   27.5745 O   0  0  0  0  0  0  0  0  0  0  0  0
  1  2  2  0
  2  3  1  0
  2  4  1  0
  4  6  1  0
  5  7  1  0
  3  8  1  0
  8  9  1  0
  6 15  1  0
  7 16  1  0
 16 17  2  0
 16 18  1  0
  3  5  1  0
  7  6  1  0
  9 10  2  0
 10 11  1  0
 11 12  2  0
 12 14  1  0
 14 13  2  0
 13  9  1  0
M  END

$$$$
