No_290-gen_results/8p0m/2024-11-26-14-13-15/
     RDKit          3D

 10 10  0  0  0  0  0  0  0  0999 V2000
  -28.0544   -1.0498   28.7246 N   0  0  0  0  0  0  0  0  0  0  0  0
  -26.9659   -0.4722   28.7709 C   0  0  0  0  0  0  0  0  0  0  0  0
  -25.9289   -1.0196   29.5059 C   0  0  0  0  0  0  0  0  0  0  0  0
  -26.0392   -2.3100   29.9652 C   0  0  0  0  0  0  0  0  0  0  0  0
  -27.2341   -2.9104   29.9250 C   0  0  0  0  0  0  0  0  0  0  0  0
  -28.2579   -2.1991   29.3918 C   0  0  0  0  0  0  0  0  0  0  0  0
  -26.9689    0.7885   28.2478 N   0  0  0  0  0  0  0  0  0  0  0  0
  -27.4645    1.7325   28.2651 C   0  0  0  0  0  0  0  0  0  0  0  0
  -28.0860    2.1417   29.2487 C   0  0  0  0  0  0  0  0  0  0  0  0
  -28.8859    3.4260   29.2554 C   0  0  0  0  0  0  0  0  0  0  0  0
  2  7  1  0
  7  8  1  0
  8  9  2  3
  9 10  1  0
  1  2  2  0
  2  3  1  0
  3  4  2  0
  4  5  1  0
  5  6  2  0
  6  1  1  0
M  END

$$$$
