No_2676-gen_results/8p0m/2024-11-26-14-13-15/
     RDKit          3D

 25 27  0  0  0  0  0  0  0  0999 V2000
  -28.1229   -1.3353   28.4874 O   0  0  0  0  0  0  0  0  0  0  0  0
  -28.5208   -0.4363   29.0779 C   0  0  0  0  0  0  0  0  0  0  0  0
  -27.6655    0.1129   30.0346 C   0  0  0  0  0  0  0  0  0  0  0  0
  -29.5662    0.3302   28.6099 N   0  0  0  0  0  0  0  0  0  0  0  0
  -27.6931    1.3673   30.4369 C   0  0  0  0  0  0  0  0  0  0  0  0
  -29.7366    1.4215   29.0565 C   0  0  0  0  0  0  0  0  0  0  0  0
  -28.9256    2.1193   29.9967 C   0  0  0  0  0  0  0  0  0  0  0  0
  -30.8714    2.2634   28.5669 C   0  0  0  0  0  0  0  0  0  0  0  0
  -31.4525    2.2731   27.5560 C   0  0  0  0  0  0  0  0  0  0  0  0
  -32.5745    3.0712   27.1119 C   0  0  0  0  0  0  0  0  0  0  0  0
  -33.0423    4.0166   28.0539 C   0  0  0  0  0  0  0  0  0  0  0  0
  -32.4507    4.1011   29.2522 C   0  0  0  0  0  0  0  0  0  0  0  0
  -31.3538    3.3021   29.6103 C   0  0  0  0  0  0  0  0  0  0  0  0
  -30.4030   -0.3216   27.6473 C   0  0  0  0  0  0  0  0  0  0  0  0
  -26.4829   -0.7171   30.5269 C   0  0  0  0  0  0  0  0  0  0  0  0
  -26.4319   -1.0089   31.5469 O   0  0  0  0  0  0  0  0  0  0  0  0
  -25.6806   -1.1523   29.5644 O   0  0  0  0  0  0  0  0  0  0  0  0
  -24.2998   -1.0074   29.8819 C   0  0  0  0  0  0  0  0  0  0  0  0
  -23.6558    0.1639   29.6018 C   0  0  0  0  0  0  0  0  0  0  0  0
  -22.3704    0.0636   28.9802 C   0  0  0  0  0  0  0  0  0  0  0  0
  -21.7366    1.2504   28.5708 C   0  0  0  0  0  0  0  0  0  0  0  0
  -20.9211    1.2434   27.5335 C   0  0  0  0  0  0  0  0  0  0  0  0
  -20.8077    2.5258   26.9689 C   0  0  0  0  0  0  0  0  0  0  0  0
  -22.1459    3.1418   26.9070 C   0  0  0  0  0  0  0  0  0  0  0  0
  -22.9247    2.2189   27.8259 C   0  0  0  0  0  0  0  0  0  0  0  0
  1  2  2  0
  2  3  1  0
  2  4  1  0
  4  6  1  0
  5  7  1  0
  6  8  1  0
  4 14  1  0
  3 15  1  0
 15 16  2  0
 15 17  1  0
 17 18  1  0
 18 19  1  0
 19 20  2  3
 20 21  1  0
 21 22  1  0
 22 23  2  0
 23 24  1  0
 21 25  1  0
 24 25  2  0
  3  5  1  0
  7  6  1  0
  8  9  2  0
  9 10  1  0
 10 11  2  0
 11 12  1  0
 12 13  2  0
 13  8  1  0
M  END

$$$$
