No_2808-gen_results/8p0m/2024-11-26-14-13-15/
     RDKit          3D

 13 14  0  0  0  0  0  0  0  0999 V2000
  -28.0544   -1.0498   28.7246 N   0  0  0  0  0  0  0  0  0  0  0  0
  -27.7460   -0.0733   29.0098 C   0  0  0  0  0  0  0  0  0  0  0  0
  -27.1741    0.7325   28.8254 C   0  0  0  0  0  0  0  0  0  0  0  0
  -26.3455    0.6640   27.6407 C   0  0  0  0  0  0  0  0  0  0  0  0
  -25.4622    1.6710   27.1772 C   0  0  0  0  0  0  0  0  0  0  0  0
  -25.2745    2.7892   27.9629 C   0  0  0  0  0  0  0  0  0  0  0  0
  -25.9812    2.9656   29.1028 C   0  0  0  0  0  0  0  0  0  0  0  0
  -26.8272    1.9888   29.5612 C   0  0  0  0  0  0  0  0  0  0  0  0
  -28.6976    0.2733   30.1581 N   0  0  0  0  0  0  0  0  0  0  0  0
  -29.5598   -0.7824   30.6214 C   0  0  0  0  0  0  0  0  0  0  0  0
  -28.1836   -2.1629   29.6178 C   0  0  0  0  0  0  0  0  0  0  0  0
  -29.1697   -1.9799   30.4864 N   0  0  0  0  0  0  0  0  0  0  0  0
  -30.3378   -0.4605   31.6480 O   0  0  0  0  0  0  0  0  0  0  0  0
  1  2  1  0
  2  3  1  0
  2  9  1  0
  9 10  1  0
 10 12  1  0
 10 13  2  0
  1 11  1  0
 11 12  1  0
  3  4  2  0
  4  5  1  0
  5  6  2  0
  6  7  1  0
  7  8  2  0
  8  3  1  0
M  END

$$$$
