No_2942-gen_results/8p0m/2024-11-26-14-13-15/
     RDKit          3D

 15 17  0  0  0  0  0  0  0  0999 V2000
  -28.0162   -0.8135   28.8779 C   0  0  0  0  0  0  0  0  0  0  0  0
  -27.0636   -0.1189   28.6079 C   0  0  0  0  0  0  0  0  0  0  0  0
  -25.7923   -0.4302   29.0761 C   0  0  0  0  0  0  0  0  0  0  0  0
  -25.5756   -1.5654   29.9363 C   0  0  0  0  0  0  0  0  0  0  0  0
  -26.7354   -2.3004   30.2173 C   0  0  0  0  0  0  0  0  0  0  0  0
  -27.9184   -1.9537   29.7629 C   0  0  0  0  0  0  0  0  0  0  0  0
  -27.1057    1.1023   27.7593 C   0  0  0  0  0  0  0  0  0  0  0  0
  -27.8576    1.5309   27.2156 C   0  0  0  0  0  0  0  0  0  0  0  0
  -27.8433    2.7213   26.2861 C   0  0  0  0  0  0  0  0  0  0  0  0
  -28.9357    3.2862   25.6170 C   0  0  0  0  0  0  0  0  0  0  0  0
  -28.8399    4.3904   24.8512 C   0  0  0  0  0  0  0  0  0  0  0  0
  -30.1965    2.5903   25.6818 C   0  0  0  0  0  0  0  0  0  0  0  0
  -30.2798    1.4486   26.4748 C   0  0  0  0  0  0  0  0  0  0  0  0
  -29.2813    0.9659   27.1889 C   0  0  0  0  0  0  0  0  0  0  0  0
  -29.2598   -0.4873   28.4109 N   0  0  0  0  0  0  0  0  0  0  0  0
 10 11  1  0
  2  3  2  0
  3  4  1  0
  4  5  2  0
  5  6  1  0
  6  1  2  0
  8  9  1  0
  9 10  2  0
 10 12  1  0
 12 13  2  0
 13 14  1  0
  1  2  1  0
  2  7  1  0
  7  8  2  0
  8 14  1  0
 14 15  2  0
 15  1  1  0
M  END

$$$$
