No_2162-gen_results/8p0m/2024-11-26-14-13-15/
     RDKit          3D

 18 19  0  0  0  0  0  0  0  0999 V2000
  -28.1229   -1.3353   28.4874 O   0  0  0  0  0  0  0  0  0  0  0  0
  -28.5208   -0.4363   29.0779 C   0  0  0  0  0  0  0  0  0  0  0  0
  -29.6977    0.0507   28.9764 C   0  0  0  0  0  0  0  0  0  0  0  0
  -27.5405    0.1756   30.0054 N   0  0  0  0  0  0  0  0  0  0  0  0
  -27.8890    1.2664   30.8176 C   0  0  0  0  0  0  0  0  0  0  0  0
  -30.1166    1.1818   29.8399 C   0  0  0  0  0  0  0  0  0  0  0  0
  -29.1567    1.7558   30.7136 C   0  0  0  0  0  0  0  0  0  0  0  0
  -26.2234   -0.3970   30.1105 C   0  0  0  0  0  0  0  0  0  0  0  0
  -25.8565   -0.8456   31.1082 C   0  0  0  0  0  0  0  0  0  0  0  0
  -24.4769   -1.3808   31.2566 C   0  0  0  0  0  0  0  0  0  0  0  0
  -23.6116   -1.4709   30.1702 C   0  0  0  0  0  0  0  0  0  0  0  0
  -24.1249   -0.9433   28.9563 C   0  0  0  0  0  0  0  0  0  0  0  0
  -25.4399   -0.4197   28.8979 C   0  0  0  0  0  0  0  0  0  0  0  0
  -27.0410    1.7417   31.5783 O   0  0  0  0  0  0  0  0  0  0  0  0
  -30.5657   -0.4632   28.1669 O   0  0  0  0  0  0  0  0  0  0  0  0
  -31.7126    0.1506   27.8084 C   0  0  0  0  0  0  0  0  0  0  0  0
  -31.7773    1.0576   27.1422 C   0  0  0  0  0  0  0  0  0  0  0  0
  -33.0217    1.6845   26.7095 C   0  0  0  0  0  0  0  0  0  0  0  0
  1  2  2  0
  2  3  1  0
  2  4  1  0
  4  5  1  0
  5  7  1  0
  6  7  1  0
  4  8  1  0
  5 14  2  0
  3 15  1  0
 15 16  1  0
 16 17  2  3
 17 18  1  0
  3  6  1  0
  8  9  2  0
  9 10  1  0
 10 11  2  0
 11 12  1  0
 12 13  2  0
 13  8  1  0
M  END

$$$$
