No_2438-gen_results/8p0m/2024-11-26-14-13-15/
     RDKit          3D

 22 24  0  0  0  0  0  0  0  0999 V2000
  -28.0162   -0.8135   28.8779 C   0  0  0  0  0  0  0  0  0  0  0  0
  -27.0636   -0.1189   28.6079 C   0  0  0  0  0  0  0  0  0  0  0  0
  -25.7923   -0.4302   29.0761 C   0  0  0  0  0  0  0  0  0  0  0  0
  -24.5456    0.3494   28.8225 C   0  0  0  0  0  0  0  0  0  0  0  0
  -24.6586    1.4196   27.8878 C   0  0  0  0  0  0  0  0  0  0  0  0
  -23.5403    2.1791   27.5500 C   0  0  0  0  0  0  0  0  0  0  0  0
  -22.2925    1.7429   28.0473 C   0  0  0  0  0  0  0  0  0  0  0  0
  -22.1712    0.7080   28.9284 C   0  0  0  0  0  0  0  0  0  0  0  0
  -23.3345   -0.0624   29.3081 C   0  0  0  0  0  0  0  0  0  0  0  0
  -27.9466   -1.8823   29.8708 C   0  0  0  0  0  0  0  0  0  0  0  0
  -26.7159   -2.3287   30.3060 C   0  0  0  0  0  0  0  0  0  0  0  0
  -25.5921   -1.5643   29.9672 C   0  0  0  0  0  0  0  0  0  0  0  0
  -29.1228   -2.6879   30.2451 C   0  0  0  0  0  0  0  0  0  0  0  0
  -29.4011   -2.7388   31.5076 O   0  0  0  0  0  0  0  0  0  0  0  0
  -30.0162   -3.0054   29.5024 O   0  0  0  0  0  0  0  0  0  0  0  0
  -23.6464    3.1736   26.6958 O   0  0  0  0  0  0  0  0  0  0  0  0
  -25.0008    3.7295   26.5676 C   0  0  0  0  0  0  0  0  0  0  0  0
  -25.8741    3.0575   25.9729 C   0  0  0  0  0  0  0  0  0  0  0  0
  -27.1668    3.7126   25.9297 C   0  0  0  0  0  0  0  0  0  0  0  0
  -27.3949    4.8903   26.4976 C   0  0  0  0  0  0  0  0  0  0  0  0
  -25.1824    5.0161   27.1593 C   0  0  0  0  0  0  0  0  0  0  0  0
  -26.3638    5.6068   27.1264 C   0  0  0  0  0  0  0  0  0  0  0  0
  3  4  1  0
 10 13  1  0
 13 14  2  0
 13 15  1  0
  6 16  1  0
 16 17  1  0
 17 18  2  0
 18 19  1  0
 19 20  2  0
 20 22  1  0
 22 21  2  0
 21 17  1  0
  1  2  2  0
  2  3  1  0
  3 12  2  0
 12 11  1  0
 11 10  2  0
 10  1  1  0
  4  5  2  0
  5  6  1  0
  6  7  2  0
  7  8  1  0
  8  9  2  0
  9  4  1  0
M  END

$$$$
