No_2518-gen_results/8p0m/2024-11-26-14-13-15/
     RDKit          3D

 17 18  0  0  0  0  0  0  0  0999 V2000
  -28.0162   -0.8135   28.8779 C   0  0  0  0  0  0  0  0  0  0  0  0
  -27.0636   -0.1189   28.6079 C   0  0  0  0  0  0  0  0  0  0  0  0
  -25.7923   -0.4302   29.0761 C   0  0  0  0  0  0  0  0  0  0  0  0
  -25.5756   -1.5654   29.9363 C   0  0  0  0  0  0  0  0  0  0  0  0
  -26.7354   -2.3004   30.2173 C   0  0  0  0  0  0  0  0  0  0  0  0
  -27.9184   -1.9537   29.7629 C   0  0  0  0  0  0  0  0  0  0  0  0
  -27.1057    1.1023   27.7593 C   0  0  0  0  0  0  0  0  0  0  0  0
  -26.7157    2.2350   27.9945 C   0  0  0  0  0  0  0  0  0  0  0  0
  -26.3325    3.1723   27.6009 C   0  0  0  0  0  0  0  0  0  0  0  0
  -25.8040    4.4611   28.2005 C   0  0  0  0  0  0  0  0  0  0  0  0
  -25.7023    4.4054   29.5581 C   0  0  0  0  0  0  0  0  0  0  0  0
  -26.0201    3.2628   30.2528 C   0  0  0  0  0  0  0  0  0  0  0  0
  -26.4650    2.1882   29.5699 C   0  0  0  0  0  0  0  0  0  0  0  0
  -27.6189    0.8893   26.3952 C   0  0  0  0  0  0  0  0  0  0  0  0
  -28.6527    1.2757   26.0481 O   0  0  0  0  0  0  0  0  0  0  0  0
  -26.8223    0.1609   25.5559 N   0  0  0  0  0  0  0  0  0  0  0  0
  -25.5070   -0.3027   25.8580 C   0  0  0  0  0  0  0  0  0  0  0  0
  2  7  1  0
  7 14  1  0
 14 15  2  0
 14 16  1  0
 16 17  1  0
  7  8  1  0
  1  2  2  0
  2  3  1  0
  3  4  2  0
  4  5  1  0
  5  6  2  0
  6  1  1  0
  8  9  2  0
  9 10  1  0
 10 11  2  0
 11 12  1  0
 12 13  2  0
 13  8  1  0
M  END

$$$$
