No_2895-gen_results/8p0m/2024-11-26-14-13-15/
     RDKit          3D

 35 37  0  0  0  0  0  0  0  0999 V2000
  -28.0162   -0.8135   28.8779 C   0  0  0  0  0  0  0  0  0  0  0  0
  -27.0636   -0.1189   28.6079 C   0  0  0  0  0  0  0  0  0  0  0  0
  -25.7923   -0.4302   29.0761 C   0  0  0  0  0  0  0  0  0  0  0  0
  -25.5756   -1.5654   29.9363 C   0  0  0  0  0  0  0  0  0  0  0  0
  -26.7354   -2.3004   30.2173 C   0  0  0  0  0  0  0  0  0  0  0  0
  -27.9184   -1.9537   29.7629 C   0  0  0  0  0  0  0  0  0  0  0  0
  -27.1057    1.1023   27.7593 C   0  0  0  0  0  0  0  0  0  0  0  0
  -27.8576    1.5309   27.2156 C   0  0  0  0  0  0  0  0  0  0  0  0
  -28.0991    2.2992   26.4301 C   0  0  0  0  0  0  0  0  0  0  0  0
  -26.9543    3.1837   26.0254 C   0  0  0  0  0  0  0  0  0  0  0  0
  -25.7574    2.8807   26.5755 C   0  0  0  0  0  0  0  0  0  0  0  0
  -25.7339    1.7924   27.4542 C   0  0  0  0  0  0  0  0  0  0  0  0
  -28.9872   -2.8377   30.2927 C   0  0  0  0  0  0  0  0  0  0  0  0
  -30.1355   -2.3728   30.5016 N   0  0  0  0  0  0  0  0  0  0  0  0
  -28.7836   -4.0621   30.4231 O   0  0  0  0  0  0  0  0  0  0  0  0
  -31.3090   -3.1751   30.9332 C   0  0  0  0  0  0  0  0  0  0  0  0
  -24.5153    3.5922   26.3043 C   0  0  0  0  0  0  0  0  0  0  0  0
  -24.4288    4.8725   26.6062 N   0  0  0  0  0  0  0  0  0  0  0  0
  -23.5029    2.9978   25.9512 F   0  0  0  0  0  0  0  0  0  0  0  0
  -32.3649   -2.9434   30.3743 C   0  0  0  0  0  0  0  0  0  0  0  0
  -32.6839   -1.6286   30.1653 C   0  0  0  0  0  0  0  0  0  0  0  0
  -31.6401   -0.6631   29.8728 C   0  0  0  0  0  0  0  0  0  0  0  0
  -30.4637   -1.0760   29.9971 C   0  0  0  0  0  0  0  0  0  0  0  0
  -32.0540    0.6849   29.3705 C   0  0  0  0  0  0  0  0  0  0  0  0
  -32.6893    1.4886   30.1423 N   0  0  0  0  0  0  0  0  0  0  0  0
  -33.0844    2.6341   29.8725 C   0  0  0  0  0  0  0  0  0  0  0  0
  -32.0396    0.9437   28.1477 O   0  0  0  0  0  0  0  0  0  0  0  0
  -25.0457    5.5395   27.5724 C   0  0  0  0  0  0  0  0  0  0  0  0
  -24.9509    6.9882   27.6098 C   0  0  0  0  0  0  0  0  0  0  0  0
  -25.1949    4.9392   28.6369 F   0  0  0  0  0  0  0  0  0  0  0  0
  -25.9328    7.6524   27.8252 C   0  0  0  0  0  0  0  0  0  0  0  0
  -27.1291    7.2630   28.1751 C   0  0  0  0  0  0  0  0  0  0  0  0
  -28.2712    8.1032   28.3511 C   0  0  0  0  0  0  0  0  0  0  0  0
  -29.5348    7.5981   28.7145 C   0  0  0  0  0  0  0  0  0  0  0  0
  -29.6370    6.2019   28.9162 C   0  0  0  0  0  0  0  0  0  0  0  0
  2  7  1  0
  6 13  1  0
 13 14  1  0
 13 15  2  0
 14 16  1  0
 11 17  1  0
 17 18  1  0
 17 19  1  0
 16 20  1  0
 21 22  1  0
 14 23  1  0
 22 24  1  0
 24 25  1  0
 25 26  2  0
 24 27  2  0
 18 28  1  0
 28 29  2  3
 28 30  1  0
 29 31  1  0
 31 32  1  0
 32 33  2  3
 33 34  1  0
 34 35  2  0
 20 21  1  0
 22 23  1  0
  1  2  2  0
  2  3  1  0
  3  4  2  0
  4  5  1  0
  5  6  2  0
  6  1  1  0
  7  8  2  0
  8  9  1  0
  9 10  2  0
 10 11  1  0
 11 12  2  0
 12  7  1  0
M  END

$$$$
