No_2316-gen_results/8p0m/2024-11-26-14-13-15/
     RDKit          3D

 12 12  0  0  0  0  0  0  0  0999 V2000
  -28.0162   -0.8135   28.8779 C   0  0  0  0  0  0  0  0  0  0  0  0
  -27.0636   -0.1189   28.6079 C   0  0  0  0  0  0  0  0  0  0  0  0
  -25.7647   -0.3897   29.0360 C   0  0  0  0  0  0  0  0  0  0  0  0
  -24.5516    0.4058   28.7646 C   0  0  0  0  0  0  0  0  0  0  0  0
  -24.6957    1.4480   27.7988 C   0  0  0  0  0  0  0  0  0  0  0  0
  -25.9755    1.7250   27.3077 C   0  0  0  0  0  0  0  0  0  0  0  0
  -27.0718    1.0134   27.6535 C   0  0  0  0  0  0  0  0  0  0  0  0
  -27.8896   -1.7391   29.9357 N   0  0  0  0  0  0  0  0  0  0  0  0
  -23.4994    2.1783   27.4786 C   0  0  0  0  0  0  0  0  0  0  0  0
  -22.5306    1.5357   27.1254 F   0  0  0  0  0  0  0  0  0  0  0  0
  -23.1572    3.0870   28.4423 F   0  0  0  0  0  0  0  0  0  0  0  0
  -23.7825    3.1250   26.4829 F   0  0  0  0  0  0  0  0  0  0  0  0
  1  8  1  0
  5  9  1  0
  9 10  1  0
  9 11  1  0
  9 12  1  0
  1  2  1  0
  2  3  2  0
  3  4  1  0
  4  5  2  0
  5  6  1  0
  6  7  2  0
  7  2  1  0
M  END

$$$$
