No_2231-gen_results/8p0m/2024-11-26-14-13-15/
     RDKit          3D

 18 19  0  0  0  0  0  0  0  0999 V2000
  -28.0162   -0.8135   28.8779 C   0  0  0  0  0  0  0  0  0  0  0  0
  -28.4690   -0.7850   29.8287 C   0  0  0  0  0  0  0  0  0  0  0  0
  -27.0871    0.2903   28.6377 C   0  0  0  0  0  0  0  0  0  0  0  0
  -26.9102    0.8486   27.4199 C   0  0  0  0  0  0  0  0  0  0  0  0
  -29.6069   -1.6266   30.1338 C   0  0  0  0  0  0  0  0  0  0  0  0
  -25.6353    1.4343   27.0110 C   0  0  0  0  0  0  0  0  0  0  0  0
  -24.6490    1.6986   28.0077 C   0  0  0  0  0  0  0  0  0  0  0  0
  -23.4119    2.3040   27.6635 C   0  0  0  0  0  0  0  0  0  0  0  0
  -22.6765    1.5846   27.1150 C   0  0  0  0  0  0  0  0  0  0  0  0
  -24.9876    1.4334   29.3743 C   0  0  0  0  0  0  0  0  0  0  0  0
  -26.0533    0.5639   29.6442 C   0  0  0  0  0  0  0  0  0  0  0  0
  -30.1330   -1.9188   31.4639 C   0  0  0  0  0  0  0  0  0  0  0  0
  -31.1387   -2.7300   31.7109 C   0  0  0  0  0  0  0  0  0  0  0  0
  -31.7496   -3.3694   30.5666 C   0  0  0  0  0  0  0  0  0  0  0  0
  -31.2922   -3.1408   29.3237 C   0  0  0  0  0  0  0  0  0  0  0  0
  -30.2500   -2.3031   29.1407 C   0  0  0  0  0  0  0  0  0  0  0  0
  -27.9990   -0.0808   31.1292 C   0  0  0  0  0  0  0  0  0  0  0  0
  -28.5702   -0.0232   32.3276 C   0  0  0  0  0  0  0  0  0  0  0  0
  1  2  1  0
  1  3  1  0
  7  8  1  0
  8  9  2  0
  2 17  1  0
 17 18  1  0
  2  5  1  0
  3  4  2  0
  4  6  1  0
  6  7  2  0
  7 10  1  0
 10 11  2  0
 11  3  1  0
  5 12  2  0
 12 13  1  0
 13 14  2  0
 14 15  1  0
 15 16  2  0
 16  5  1  0
M  END

$$$$
