No_2465-gen_results/8p0m/2024-11-26-14-13-15/
     RDKit          3D

 32 34  0  0  0  0  0  0  0  0999 V2000
  -28.0162   -0.8135   28.8779 C   0  0  0  0  0  0  0  0  0  0  0  0
  -27.0636   -0.1189   28.6079 C   0  0  0  0  0  0  0  0  0  0  0  0
  -26.9287    1.1713   29.0083 C   0  0  0  0  0  0  0  0  0  0  0  0
  -27.9560    1.7411   29.7840 C   0  0  0  0  0  0  0  0  0  0  0  0
  -29.0569   -0.3271   29.7466 C   0  0  0  0  0  0  0  0  0  0  0  0
  -28.9828    0.9722   30.1516 C   0  0  0  0  0  0  0  0  0  0  0  0
  -25.8907   -0.6263   27.7857 C   0  0  0  0  0  0  0  0  0  0  0  0
  -24.5687   -0.1994   28.1996 C   0  0  0  0  0  0  0  0  0  0  0  0
  -23.6406   -0.6993   28.6892 C   0  0  0  0  0  0  0  0  0  0  0  0
  -23.6645   -2.0146   29.2912 C   0  0  0  0  0  0  0  0  0  0  0  0
  -24.3547    1.3022   27.7474 C   0  0  0  0  0  0  0  0  0  0  0  0
  -24.7547    1.9030   26.7485 C   0  0  0  0  0  0  0  0  0  0  0  0
  -25.4766    1.2872   25.7249 C   0  0  0  0  0  0  0  0  0  0  0  0
  -22.2773   -0.1042   28.8279 C   0  0  0  0  0  0  0  0  0  0  0  0
  -21.8752    1.0737   28.3129 C   0  0  0  0  0  0  0  0  0  0  0  0
  -22.8581    1.7275   27.9999 C   0  0  0  0  0  0  0  0  0  0  0  0
  -25.0234    3.3304   26.8652 C   0  0  0  0  0  0  0  0  0  0  0  0
  -24.1345    4.0449   26.8742 O   0  0  0  0  0  0  0  0  0  0  0  0
  -26.2851    3.8059   26.9323 O   0  0  0  0  0  0  0  0  0  0  0  0
  -30.2247   -1.1848   30.0699 C   0  0  0  0  0  0  0  0  0  0  0  0
  -30.0539   -2.1757   30.6696 O   0  0  0  0  0  0  0  0  0  0  0  0
  -31.4148   -0.8379   29.8162 O   0  0  0  0  0  0  0  0  0  0  0  0
  -23.8318   -2.0727   30.5848 F   0  0  0  0  0  0  0  0  0  0  0  0
  -22.5967   -2.8188   29.0454 F   0  0  0  0  0  0  0  0  0  0  0  0
  -24.6883   -2.7429   28.7127 F   0  0  0  0  0  0  0  0  0  0  0  0
  -30.5927   -2.9484   31.2555 C   0  0  0  0  0  0  0  0  0  0  0  0
  -30.4700   -4.2643   31.0238 C   0  0  0  0  0  0  0  0  0  0  0  0
  -31.2608   -5.1510   31.4187 C   0  0  0  0  0  0  0  0  0  0  0  0
  -32.2819   -4.8603   32.4093 C   0  0  0  0  0  0  0  0  0  0  0  0
  -32.3936   -3.5455   32.7309 C   0  0  0  0  0  0  0  0  0  0  0  0
  -31.6120   -2.5285   32.1627 C   0  0  0  0  0  0  0  0  0  0  0  0
  -29.4471   -4.6672   30.1455 O   0  0  0  0  0  0  0  0  0  0  0  0
  2  7  1  0
  7  8  1  0
  9 10  1  0
 12 13  1  0
 12 17  1  0
 17 18  2  0
 17 19  1  0
  5 20  1  0
 20 21  1  0
 20 22  2  0
 10 23  1  0
 10 24  1  0
 10 25  1  0
 21 26  1  0
 27 32  1  0
 12 11  1  0
 26 27  2  0
 27 28  1  0
 28 29  2  0
 29 30  1  0
 30 31  2  0
 31 26  1  0
  1  2  2  0
  2  3  1  0
  3  4  2  0
  4  6  1  0
  6  5  2  0
  5  1  1  0
  8  9  2  0
  9 14  1  0
 14 15  2  0
 15 16  1  0
 16 11  2  0
 11  8  1  0
M  END

$$$$
