No_2806-gen_results/8p0m/2024-11-26-14-13-15/
     RDKit          3D

 14 15  0  0  0  0  0  0  0  0999 V2000
  -28.0162   -0.8135   28.8779 C   0  0  0  0  0  0  0  0  0  0  0  0
  -27.0636   -0.1189   28.6079 C   0  0  0  0  0  0  0  0  0  0  0  0
  -25.7647   -0.3897   29.0360 C   0  0  0  0  0  0  0  0  0  0  0  0
  -24.5516    0.4058   28.7646 C   0  0  0  0  0  0  0  0  0  0  0  0
  -24.6957    1.4480   27.7988 C   0  0  0  0  0  0  0  0  0  0  0  0
  -23.5821    2.2166   27.4626 C   0  0  0  0  0  0  0  0  0  0  0  0
  -22.3211    1.8240   27.9807 C   0  0  0  0  0  0  0  0  0  0  0  0
  -22.1777    0.8172   28.8883 C   0  0  0  0  0  0  0  0  0  0  0  0
  -23.3181    0.0418   29.2597 C   0  0  0  0  0  0  0  0  0  0  0  0
  -29.3481   -0.3213   28.7171 C   0  0  0  0  0  0  0  0  0  0  0  0
  -29.5179    0.7705   27.8770 C   0  0  0  0  0  0  0  0  0  0  0  0
  -28.4387    1.4577   27.4045 C   0  0  0  0  0  0  0  0  0  0  0  0
  -27.1503    1.1228   27.7813 C   0  0  0  0  0  0  0  0  0  0  0  0
  -25.9943    1.8276   27.3922 C   0  0  0  0  0  0  0  0  0  0  0  0
  1  2  2  3
  2  3  1  0
  3  4  1  0
  1 10  1  0
 10 11  2  3
 11 12  1  0
 12 13  2  3
  5 14  1  0
 13 14  1  0
  4  5  2  0
  5  6  1  0
  6  7  2  0
  7  8  1  0
  8  9  2  0
  9  4  1  0
M  END

$$$$
