No_2367-gen_results/8p0m/2024-11-26-14-13-15/
     RDKit          3D

 22 23  0  0  0  0  0  0  0  0999 V2000
  -28.1229   -1.3353   28.4874 O   0  0  0  0  0  0  0  0  0  0  0  0
  -27.4806   -0.4044   28.7094 C   0  0  0  0  0  0  0  0  0  0  0  0
  -27.1904    0.2460   29.5268 C   0  0  0  0  0  0  0  0  0  0  0  0
  -26.6871   -0.0001   27.4423 N   0  0  0  0  0  0  0  0  0  0  0  0
  -27.6511    0.1259   30.8798 C   0  0  0  0  0  0  0  0  0  0  0  0
  -25.7508    1.0047   27.4342 C   0  0  0  0  0  0  0  0  0  0  0  0
  -25.5541    1.7023   28.6009 C   0  0  0  0  0  0  0  0  0  0  0  0
  -26.1486    1.3780   29.6666 C   0  0  0  0  0  0  0  0  0  0  0  0
  -28.6090    0.6564   31.3753 C   0  0  0  0  0  0  0  0  0  0  0  0
  -29.2287    1.7720   30.6334 C   0  0  0  0  0  0  0  0  0  0  0  0
  -30.3228    2.4788   31.2552 C   0  0  0  0  0  0  0  0  0  0  0  0
  -30.9113    3.5392   30.5866 C   0  0  0  0  0  0  0  0  0  0  0  0
  -30.4557    3.8736   29.2736 C   0  0  0  0  0  0  0  0  0  0  0  0
  -29.4242    3.1381   28.6879 C   0  0  0  0  0  0  0  0  0  0  0  0
  -28.8549    2.1583   29.3573 C   0  0  0  0  0  0  0  0  0  0  0  0
  -28.9980    0.9713   28.5569 F   0  0  0  0  0  0  0  0  0  0  0  0
  -29.0872    3.5735   27.3214 C   0  0  0  0  0  0  0  0  0  0  0  0
  -27.9896    4.1030   27.1250 N   0  0  0  0  0  0  0  0  0  0  0  0
  -29.9236    3.1848   26.2613 C   0  0  0  0  0  0  0  0  0  0  0  0
  -25.1536    1.2865   26.1519 C   0  0  0  0  0  0  0  0  0  0  0  0
  -24.1577    2.2840   26.1174 C   0  0  0  0  0  0  0  0  0  0  0  0
  -23.8965    3.0517   27.3066 C   0  0  0  0  0  0  0  0  0  0  0  0
  1  2  2  0
  2  3  1  0
  2  4  1  0
  3  5  1  0
  4  6  1  0
  3  8  1  0
  7  8  1  0
  5  9  2  3
  9 10  1  0
 15 16  1  0
 14 17  1  0
 17 18  1  0
 17 19  1  0
  6 20  1  0
 20 21  2  3
 21 22  1  0
  7  6  1  0
 10 11  2  0
 11 12  1  0
 12 13  2  0
 13 14  1  0
 14 15  2  0
 15 10  1  0
M  END

$$$$
