No_3414-gen_results/8p0m/2024-11-26-14-13-15/
     RDKit          3D

 26 28  0  0  0  0  0  0  0  0999 V2000
  -28.0162   -0.8135   28.8779 C   0  0  0  0  0  0  0  0  0  0  0  0
  -27.0636   -0.1189   28.6079 C   0  0  0  0  0  0  0  0  0  0  0  0
  -26.9287    1.1713   29.0083 C   0  0  0  0  0  0  0  0  0  0  0  0
  -25.7702    2.0341   28.6884 C   0  0  0  0  0  0  0  0  0  0  0  0
  -24.7141    1.4431   27.9188 C   0  0  0  0  0  0  0  0  0  0  0  0
  -24.8590    0.0783   27.5836 C   0  0  0  0  0  0  0  0  0  0  0  0
  -25.9647   -0.6606   27.9164 C   0  0  0  0  0  0  0  0  0  0  0  0
  -29.0591   -0.5087   28.2818 F   0  0  0  0  0  0  0  0  0  0  0  0
  -27.9950   -1.8369   29.6552 F   0  0  0  0  0  0  0  0  0  0  0  0
  -23.5400    2.1438   27.5689 C   0  0  0  0  0  0  0  0  0  0  0  0
  -22.3778    2.1966   27.9276 N   0  0  0  0  0  0  0  0  0  0  0  0
  -23.7701    2.9385   26.2626 C   0  0  0  0  0  0  0  0  0  0  0  0
  -21.4525    1.1493   28.0563 C   0  0  0  0  0  0  0  0  0  0  0  0
  -21.5702    0.1777   28.8018 C   0  0  0  0  0  0  0  0  0  0  0  0
  -22.5312    0.0976   29.8299 C   0  0  0  0  0  0  0  0  0  0  0  0
  -22.7153   -1.0678   30.6735 C   0  0  0  0  0  0  0  0  0  0  0  0
  -23.6378   -0.9504   31.6775 C   0  0  0  0  0  0  0  0  0  0  0  0
  -24.4534    0.1936   31.8872 C   0  0  0  0  0  0  0  0  0  0  0  0
  -25.4771    0.2051   32.8936 C   0  0  0  0  0  0  0  0  0  0  0  0
  -26.4029    1.2515   32.9146 C   0  0  0  0  0  0  0  0  0  0  0  0
  -27.5469    1.1765   33.6719 C   0  0  0  0  0  0  0  0  0  0  0  0
  -27.8147   -0.0245   34.3603 C   0  0  0  0  0  0  0  0  0  0  0  0
  -26.9745   -1.0690   34.2725 C   0  0  0  0  0  0  0  0  0  0  0  0
  -25.8347   -0.9815   33.5143 C   0  0  0  0  0  0  0  0  0  0  0  0
  -24.2280    1.3143   31.0087 C   0  0  0  0  0  0  0  0  0  0  0  0
  -23.1540    1.3119   30.1039 C   0  0  0  0  0  0  0  0  0  0  0  0
  1  2  1  0
  1  8  1  0
  1  9  1  0
  5 10  1  0
 10 11  2  3
 10 12  1  0
 11 13  1  0
 13 14  1  0
 18 19  1  0
 14 15  1  0
  2  3  2  0
  3  4  1  0
  4  5  2  0
  5  6  1  0
  6  7  2  0
  7  2  1  0
 15 16  2  0
 16 17  1  0
 17 18  2  0
 18 25  1  0
 25 26  2  0
 26 15  1  0
 19 20  2  0
 20 21  1  0
 21 22  2  0
 22 23  1  0
 23 24  2  0
 24 19  1  0
M  END

$$$$
