No_3023-gen_results/8p0m/2024-11-26-14-13-15/
     RDKit          3D

 31 34  0  0  0  0  0  0  0  0999 V2000
  -28.0162   -0.8135   28.8779 C   0  0  0  0  0  0  0  0  0  0  0  0
  -27.0636   -0.1189   28.6079 C   0  0  0  0  0  0  0  0  0  0  0  0
  -25.7923   -0.4302   29.0761 C   0  0  0  0  0  0  0  0  0  0  0  0
  -24.5456    0.3494   28.8225 C   0  0  0  0  0  0  0  0  0  0  0  0
  -23.2409    0.0217   29.3323 C   0  0  0  0  0  0  0  0  0  0  0  0
  -27.8820   -1.8995   29.8633 C   0  0  0  0  0  0  0  0  0  0  0  0
  -26.6526   -2.3142   30.3138 C   0  0  0  0  0  0  0  0  0  0  0  0
  -25.5153   -1.5607   29.9787 C   0  0  0  0  0  0  0  0  0  0  0  0
  -22.1645    0.7936   28.9524 C   0  0  0  0  0  0  0  0  0  0  0  0
  -22.1241    1.7484   27.9889 C   0  0  0  0  0  0  0  0  0  0  0  0
  -24.5235    1.3782   27.7946 C   0  0  0  0  0  0  0  0  0  0  0  0
  -23.3387    2.0417   27.4305 C   0  0  0  0  0  0  0  0  0  0  0  0
  -28.9608   -2.6591   30.2424 O   0  0  0  0  0  0  0  0  0  0  0  0
  -28.8307   -3.9394   30.6738 C   0  0  0  0  0  0  0  0  0  0  0  0
  -29.8447   -4.7463   30.1627 C   0  0  0  0  0  0  0  0  0  0  0  0
  -31.0882   -4.3626   30.6122 C   0  0  0  0  0  0  0  0  0  0  0  0
  -31.4715   -3.6092   31.2923 C   0  0  0  0  0  0  0  0  0  0  0  0
  -32.8653   -3.1778   31.6469 C   0  0  0  0  0  0  0  0  0  0  0  0
  -33.8231   -3.9173   30.9622 C   0  0  0  0  0  0  0  0  0  0  0  0
  -33.5012   -4.8727   30.0642 C   0  0  0  0  0  0  0  0  0  0  0  0
  -32.1910   -5.1536   29.8079 C   0  0  0  0  0  0  0  0  0  0  0  0
  -31.8616   -6.1683   28.8183 C   0  0  0  0  0  0  0  0  0  0  0  0
  -31.2147   -5.6841   27.5986 C   0  0  0  0  0  0  0  0  0  0  0  0
  -32.1219   -7.4939   28.9742 C   0  0  0  0  0  0  0  0  0  0  0  0
  -30.7728   -6.4949   26.7566 O   0  0  0  0  0  0  0  0  0  0  0  0
  -31.1601   -4.4213   27.3367 O   0  0  0  0  0  0  0  0  0  0  0  0
  -32.5929   -8.2405   28.0531 C   0  0  0  0  0  0  0  0  0  0  0  0
  -32.5622   -9.6029   28.2352 C   0  0  0  0  0  0  0  0  0  0  0  0
  -31.9150   -8.0484   30.2913 C   0  0  0  0  0  0  0  0  0  0  0  0
  -31.9261   -9.3968   30.5292 C   0  0  0  0  0  0  0  0  0  0  0  0
  -32.2919  -10.1837   29.4419 C   0  0  0  0  0  0  0  0  0  0  0  0
  3  4  1  0
  6 13  1  0
 13 14  1  0
 14 15  1  0
 15 16  1  0
 21 22  1  0
 22 23  1  0
 22 24  1  0
 23 25  2  0
 23 26  1  0
 24 27  2  0
 27 28  1  0
 28 31  2  0
 31 30  1  0
 30 29  2  0
 29 24  1  0
  1  2  2  0
  2  3  1  0
  3  8  2  0
  8  7  1  0
  7  6  2  0
  6  1  1  0
  4  5  2  0
  5  9  1  0
  9 10  2  0
 10 12  1  0
 12 11  2  0
 11  4  1  0
 16 17  2  0
 17 18  1  0
 18 19  2  0
 19 20  1  0
 20 21  2  0
 21 16  1  0
M  END

$$$$
