No_3846-gen_results/8p0m/2024-11-26-14-13-15/
     RDKit          3D

 11 11  0  0  0  0  0  0  0  0999 V2000
  -28.0162   -0.8135   28.8779 C   0  0  0  0  0  0  0  0  0  0  0  0
  -27.0636   -0.1190   28.6079 C   0  0  0  0  0  0  0  0  0  0  0  0
  -25.8176   -0.3427   29.0488 N   0  0  0  0  0  0  0  0  0  0  0  0
  -24.6506    0.4444   28.7649 C   0  0  0  0  0  0  0  0  0  0  0  0
  -24.7153    1.3122   27.7191 C   0  0  0  0  0  0  0  0  0  0  0  0
  -23.6123    2.0895   27.3593 C   0  0  0  0  0  0  0  0  0  0  0  0
  -22.3656    1.7793   27.9567 C   0  0  0  0  0  0  0  0  0  0  0  0
  -22.2742    0.8511   28.9741 C   0  0  0  0  0  0  0  0  0  0  0  0
  -23.4448    0.1138   29.3645 C   0  0  0  0  0  0  0  0  0  0  0  0
  -27.8128   -1.8074   29.9704 C   0  0  0  0  0  0  0  0  0  0  0  0
  -26.5854   -2.1829   30.3933 C   0  0  0  0  0  0  0  0  0  0  0  0
  1  2  1  0
  2  3  2  3
  3  4  1  0
  1 10  2  3
 10 11  1  0
  4  5  2  0
  5  6  1  0
  6  7  2  0
  7  8  1  0
  8  9  2  0
  9  4  1  0
M  END

$$$$
