No_3669-gen_results/8p0m/2024-11-26-14-13-15/
     RDKit          3D

 17 18  0  0  0  0  0  0  0  0999 V2000
  -28.0162   -0.8135   28.8779 C   0  0  0  0  0  0  0  0  0  0  0  0
  -27.0636   -0.1190   28.6079 C   0  0  0  0  0  0  0  0  0  0  0  0
  -26.9287    1.1713   29.0083 C   0  0  0  0  0  0  0  0  0  0  0  0
  -27.9560    1.7411   29.7840 C   0  0  0  0  0  0  0  0  0  0  0  0
  -29.0569   -0.3271   29.7466 C   0  0  0  0  0  0  0  0  0  0  0  0
  -28.9828    0.9722   30.1516 C   0  0  0  0  0  0  0  0  0  0  0  0
  -25.7249   -0.7275   27.6731 Cl  0  0  0  0  0  0  0  0  0  0  0  0
  -30.0821    1.5088   31.0097 C   0  0  0  0  0  0  0  0  0  0  0  0
  -30.8731    2.1086   30.7318 N   0  0  0  0  0  0  0  0  0  0  0  0
  -30.9449    2.7715   29.5850 C   0  0  0  0  0  0  0  0  0  0  0  0
  -32.1229    3.6349   29.2996 C   0  0  0  0  0  0  0  0  0  0  0  0
  -32.2623    2.1075   31.2073 C   0  0  0  0  0  0  0  0  0  0  0  0
  -32.9386    3.0856   30.4032 C   0  0  0  0  0  0  0  0  0  0  0  0
  -29.1142    2.2002   32.1166 C   0  0  0  0  0  0  0  0  0  0  0  0
  -33.6186    4.1516   31.1576 N   0  0  0  0  0  0  0  0  0  0  0  0
  -34.7647    4.3925   31.3146 C   0  0  0  0  0  0  0  0  0  0  0  0
  -35.2176    5.5198   32.1447 C   0  0  0  0  0  0  0  0  0  0  0  0
  2  7  1  0
  6  8  1  0
  8  9  1  0
  9 10  1  0
 10 11  2  0
  9 12  1  0
 11 13  1  0
 12 13  1  0
  8 14  1  0
 13 15  1  0
 15 16  1  0
 16 17  2  0
  1  2  2  0
  2  3  1  0
  3  4  2  0
  4  6  1  0
  6  5  2  0
  5  1  1  0
M  END

$$$$
