No_3107-gen_results/8p0m/2024-11-26-14-13-15/
     RDKit          3D

 30 33  0  0  0  0  0  0  0  0999 V2000
  -28.0162   -0.8135   28.8779 C   0  0  0  0  0  0  0  0  0  0  0  0
  -28.4690   -0.7850   29.8287 C   0  0  0  0  0  0  0  0  0  0  0  0
  -26.5042   -0.7777   28.8766 C   0  0  0  0  0  0  0  0  0  0  0  0
  -25.8103   -0.8531   30.1028 C   0  0  0  0  0  0  0  0  0  0  0  0
  -27.9906   -0.8916   31.2257 C   0  0  0  0  0  0  0  0  0  0  0  0
  -26.6042   -0.8676   31.2652 C   0  0  0  0  0  0  0  0  0  0  0  0
  -29.9538   -0.7893   29.6417 N   0  0  0  0  0  0  0  0  0  0  0  0
  -30.4681   -0.1368   28.8174 N   0  0  0  0  0  0  0  0  0  0  0  0
  -31.1506    0.8565   28.8483 C   0  0  0  0  0  0  0  0  0  0  0  0
  -31.5669    1.3662   30.0921 C   0  0  0  0  0  0  0  0  0  0  0  0
  -31.5280    1.5608   27.6111 C   0  0  0  0  0  0  0  0  0  0  0  0
  -32.4028    2.5543   30.1504 C   0  0  0  0  0  0  0  0  0  0  0  0
  -32.3560    2.7436   27.7697 C   0  0  0  0  0  0  0  0  0  0  0  0
  -32.7380    3.2066   28.9946 C   0  0  0  0  0  0  0  0  0  0  0  0
  -33.4850    4.3194   29.0345 O   0  0  0  0  0  0  0  0  0  0  0  0
  -24.3871   -0.8326   30.1430 C   0  0  0  0  0  0  0  0  0  0  0  0
  -23.6886   -1.3151   30.7916 C   0  0  0  0  0  0  0  0  0  0  0  0
  -23.7722    0.0175   29.0408 C   0  0  0  0  0  0  0  0  0  0  0  0
  -22.3774    0.1620   29.0078 C   0  0  0  0  0  0  0  0  0  0  0  0
  -22.2335   -1.2271   30.9610 C   0  0  0  0  0  0  0  0  0  0  0  0
  -21.6266   -0.4740   29.9122 C   0  0  0  0  0  0  0  0  0  0  0  0
  -21.7628    1.0034   27.9510 C   0  0  0  0  0  0  0  0  0  0  0  0
  -20.6727    1.6574   28.1834 N   0  0  0  0  0  0  0  0  0  0  0  0
  -22.5190    1.3514   26.9289 N   0  0  0  0  0  0  0  0  0  0  0  0
  -23.8107    1.1664   26.8020 C   0  0  0  0  0  0  0  0  0  0  0  0
  -24.4883    0.5232   27.9392 N   0  0  0  0  0  0  0  0  0  0  0  0
  -24.5281    1.6357   25.8578 N   0  0  0  0  0  0  0  0  0  0  0  0
  -34.2731    4.7185   28.2930 C   0  0  0  0  0  0  0  0  0  0  0  0
  -34.3742    4.4298   27.1494 C   0  0  0  0  0  0  0  0  0  0  0  0
  -35.3960    5.0700   26.2699 C   0  0  0  0  0  0  0  0  0  0  0  0
  2  7  1  0
  7  8  1  0
 14 15  1  0
  4 16  1  0
 22 23  1  0
 25 27  1  0
 15 28  1  0
 28 29  2  3
 29 30  1  0
  8  9  1  0
 19 22  2  0
 22 24  1  0
 24 25  2  0
 25 26  1  0
 26 18  2  0
 16 17  2  0
 17 20  1  0
 20 21  2  0
 21 19  1  0
 19 18  1  0
 18 16  1  0
  9 10  2  0
 10 12  1  0
 12 14  2  0
 14 13  1  0
 13 11  2  0
 11  9  1  0
  1  2  2  0
  2  5  1  0
  5  6  2  0
  6  4  1  0
  4  3  2  0
  3  1  1  0
M  END

$$$$
