No_3954-gen_results/8p0m/2024-11-26-14-13-15/
     RDKit          3D

 19 21  0  0  0  0  0  0  0  0999 V2000
  -28.0162   -0.8135   28.8779 C   0  0  0  0  0  0  0  0  0  0  0  0
  -27.0636   -0.1189   28.6079 C   0  0  0  0  0  0  0  0  0  0  0  0
  -25.7647   -0.3897   29.0360 C   0  0  0  0  0  0  0  0  0  0  0  0
  -25.5296   -1.5302   29.9014 C   0  0  0  0  0  0  0  0  0  0  0  0
  -26.6577   -2.2915   30.2035 C   0  0  0  0  0  0  0  0  0  0  0  0
  -27.8548   -1.9555   29.7630 C   0  0  0  0  0  0  0  0  0  0  0  0
  -24.6951    0.3523   28.7823 F   0  0  0  0  0  0  0  0  0  0  0  0
  -28.9267   -2.7553   30.1201 O   0  0  0  0  0  0  0  0  0  0  0  0
  -30.0112   -2.2007   30.6669 C   0  0  0  0  0  0  0  0  0  0  0  0
  -31.0834   -2.7711   30.2684 C   0  0  0  0  0  0  0  0  0  0  0  0
  -31.0850   -4.0386   29.7867 C   0  0  0  0  0  0  0  0  0  0  0  0
  -32.0221   -4.4656   28.8457 C   0  0  0  0  0  0  0  0  0  0  0  0
  -32.3757   -2.1502   30.1621 C   0  0  0  0  0  0  0  0  0  0  0  0
  -33.4318   -2.6396   29.4370 C   0  0  0  0  0  0  0  0  0  0  0  0
  -33.2526   -3.8837   28.7798 C   0  0  0  0  0  0  0  0  0  0  0  0
  -34.3342   -4.5011   28.0199 C   0  0  0  0  0  0  0  0  0  0  0  0
  -34.2500   -5.3362   27.2809 C   0  0  0  0  0  0  0  0  0  0  0  0
  -32.8530   -5.9453   27.0714 C   0  0  0  0  0  0  0  0  0  0  0  0
  -31.8292   -5.6687   28.0001 C   0  0  0  0  0  0  0  0  0  0  0  0
  3  7  1  0
  6  8  1  0
  8  9  1  0
  9 10  1  0
  1  2  2  0
  2  3  1  0
  3  4  2  0
  4  5  1  0
  5  6  2  0
  6  1  1  0
 10 11  2  0
 11 12  1  0
 15 14  1  0
 14 13  2  0
 13 10  1  0
 12 15  2  0
 15 16  1  0
 16 17  2  0
 17 18  1  0
 18 19  2  0
 19 12  1  0
M  END

$$$$
