No_3650-gen_results/8p0m/2024-11-26-14-13-15/
     RDKit          3D

 13 14  0  0  0  0  0  0  0  0999 V2000
  -28.0162   -0.8135   28.8779 C   0  0  0  0  0  0  0  0  0  0  0  0
  -28.4690   -0.7850   29.8287 C   0  0  0  0  0  0  0  0  0  0  0  0
  -26.5455   -0.8762   28.8500 C   0  0  0  0  0  0  0  0  0  0  0  0
  -25.8041   -1.0324   30.0571 C   0  0  0  0  0  0  0  0  0  0  0  0
  -27.9437   -0.9869   31.2075 C   0  0  0  0  0  0  0  0  0  0  0  0
  -26.5825   -1.0386   31.2231 C   0  0  0  0  0  0  0  0  0  0  0  0
  -30.0606   -0.7371   29.9024 C   0  0  0  0  0  0  0  0  0  0  0  0
  -30.6056   -0.0348   29.0093 N   0  0  0  0  0  0  0  0  0  0  0  0
  -31.5026    0.4445   28.7787 C   0  0  0  0  0  0  0  0  0  0  0  0
  -32.5059    0.5478   29.7679 C   0  0  0  0  0  0  0  0  0  0  0  0
  -32.1313   -0.2219   30.9222 C   0  0  0  0  0  0  0  0  0  0  0  0
  -30.8076   -0.7472   31.1701 C   0  0  0  0  0  0  0  0  0  0  0  0
  -32.0052    1.1821   27.2869 Cl  0  0  0  0  0  0  0  0  0  0  0  0
  2  7  1  0
  9 13  1  0
  1  2  2  0
  2  5  1  0
  5  6  2  0
  6  4  1  0
  4  3  2  0
  3  1  1  0
  7  8  2  0
  8  9  1  0
  9 10  2  0
 10 11  1  0
 11 12  2  0
 12  7  1  0
M  END

$$$$
