No_3588-gen_results/8p0m/2024-11-26-14-13-15/
     RDKit          3D

 22 24  0  0  0  0  0  0  0  0999 V2000
  -28.0162   -0.8135   28.8779 C   0  0  0  0  0  0  0  0  0  0  0  0
  -27.0636   -0.1189   28.6079 C   0  0  0  0  0  0  0  0  0  0  0  0
  -26.8756    1.1325   28.9134 C   0  0  0  0  0  0  0  0  0  0  0  0
  -27.9014    1.8066   29.6436 C   0  0  0  0  0  0  0  0  0  0  0  0
  -27.7904    3.1512   30.0021 C   0  0  0  0  0  0  0  0  0  0  0  0
  -29.0699   -0.3114   29.6885 C   0  0  0  0  0  0  0  0  0  0  0  0
  -28.9665    1.0257   30.0680 C   0  0  0  0  0  0  0  0  0  0  0  0
  -27.2599    4.1227   29.6758 C   0  0  0  0  0  0  0  0  0  0  0  0
  -26.9042    5.2177   29.8633 C   0  0  0  0  0  0  0  0  0  0  0  0
  -27.4470    5.7995   31.1108 C   0  0  0  0  0  0  0  0  0  0  0  0
  -28.2015    4.8547   31.8328 C   0  0  0  0  0  0  0  0  0  0  0  0
  -28.3469    3.5046   31.4343 C   0  0  0  0  0  0  0  0  0  0  0  0
  -30.0517   -1.1035   30.0915 O   0  0  0  0  0  0  0  0  0  0  0  0
  -25.6841    1.9441   28.4513 C   0  0  0  0  0  0  0  0  0  0  0  0
  -24.4400    1.4949   28.6837 C   0  0  0  0  0  0  0  0  0  0  0  0
  -23.4212    1.9672   27.8402 C   0  0  0  0  0  0  0  0  0  0  0  0
  -24.0704    0.7862   29.8455 C   0  0  0  0  0  0  0  0  0  0  0  0
  -22.0902    1.5260   28.0495 C   0  0  0  0  0  0  0  0  0  0  0  0
  -22.7439    0.3341   30.0342 C   0  0  0  0  0  0  0  0  0  0  0  0
  -21.7099    0.7525   29.1090 C   0  0  0  0  0  0  0  0  0  0  0  0
  -28.7366    5.2010   33.0673 O   0  0  0  0  0  0  0  0  0  0  0  0
  -25.9080    2.2575   26.9709 C   0  0  0  0  0  0  0  0  0  0  0  0
  4  5  1  0
  6 13  1  0
  3 14  1  0
 14 15  1  0
 11 21  1  0
 14 22  1  0
  5  8  2  0
  8  9  1  0
  9 10  2  0
 10 11  1  0
 11 12  2  0
 12  5  1  0
 15 16  2  0
 16 18  1  0
 18 20  2  0
 20 19  1  0
 19 17  2  0
 17 15  1  0
  1  2  2  0
  2  3  1  0
  3  4  2  0
  4  7  1  0
  7  6  2  0
  6  1  1  0
M  END

$$$$
