No_3247-gen_results/8p0m/2024-11-26-14-13-15/
     RDKit          3D

 20 21  0  0  0  0  0  0  0  0999 V2000
  -28.0162   -0.8135   28.8779 C   0  0  0  0  0  0  0  0  0  0  0  0
  -28.4690   -0.7850   29.8287 C   0  0  0  0  0  0  0  0  0  0  0  0
  -27.0871    0.2903   28.6377 C   0  0  0  0  0  0  0  0  0  0  0  0
  -26.2516    0.4114   27.4223 C   0  0  0  0  0  0  0  0  0  0  0  0
  -28.3141   -0.1267   30.7102 C   0  0  0  0  0  0  0  0  0  0  0  0
  -27.4825    1.0076   30.8097 C   0  0  0  0  0  0  0  0  0  0  0  0
  -26.7770    1.1718   29.6871 C   0  0  0  0  0  0  0  0  0  0  0  0
  -24.9302    0.3522   27.6131 C   0  0  0  0  0  0  0  0  0  0  0  0
  -24.0605    0.2065   26.5386 C   0  0  0  0  0  0  0  0  0  0  0  0
  -26.8304    0.5255   26.1978 C   0  0  0  0  0  0  0  0  0  0  0  0
  -26.0384    0.4611   25.0390 C   0  0  0  0  0  0  0  0  0  0  0  0
  -24.6474    0.3637   25.2191 C   0  0  0  0  0  0  0  0  0  0  0  0
  -28.2720    0.5332   26.0220 C   0  0  0  0  0  0  0  0  0  0  0  0
  -29.0176    1.1187   26.7201 O   0  0  0  0  0  0  0  0  0  0  0  0
  -28.7427   -0.3585   25.0640 O   0  0  0  0  0  0  0  0  0  0  0  0
  -29.8937   -0.0211   24.3863 C   0  0  0  0  0  0  0  0  0  0  0  0
  -30.9990   -0.1101   25.1989 C   0  0  0  0  0  0  0  0  0  0  0  0
  -31.3614   -0.9552   25.6316 O   0  0  0  0  0  0  0  0  0  0  0  0
  -31.8437    0.9737   25.0286 O   0  0  0  0  0  0  0  0  0  0  0  0
  -31.6565    2.0558   24.5981 C   0  0  0  0  0  0  0  0  0  0  0  0
  3  4  1  0
 10 13  1  0
 13 14  2  0
 13 15  1  0
 15 16  1  0
 16 17  1  0
 17 18  2  0
 17 19  1  0
 19 20  1  0
  4  8  2  0
  8  9  1  0
  9 12  2  0
 12 11  1  0
 11 10  2  0
 10  4  1  0
  1  2  2  0
  2  5  1  0
  5  6  2  0
  6  7  1  0
  7  3  2  0
  3  1  1  0
M  END

$$$$
