No_3727-gen_results/8p0m/2024-11-26-14-13-15/
     RDKit          3D

 35 38  0  0  0  0  0  0  0  0999 V2000
  -28.1229   -1.3353   28.4874 O   0  0  0  0  0  0  0  0  0  0  0  0
  -27.4806   -0.4044   28.7094 C   0  0  0  0  0  0  0  0  0  0  0  0
  -26.3804   -0.0867   27.9394 C   0  0  0  0  0  0  0  0  0  0  0  0
  -27.4232    0.1749   30.0549 N   0  0  0  0  0  0  0  0  0  0  0  0
  -26.3120   -0.2603   26.9315 O   0  0  0  0  0  0  0  0  0  0  0  0
  -25.2740    0.9299   28.5006 C   0  0  0  0  0  0  0  0  0  0  0  0
  -25.4678    1.4811   29.7391 C   0  0  0  0  0  0  0  0  0  0  0  0
  -24.4558    2.3767   30.3176 C   0  0  0  0  0  0  0  0  0  0  0  0
  -26.5555    1.0467   30.5942 C   0  0  0  0  0  0  0  0  0  0  0  0
  -23.3044    2.4833   29.8796 O   0  0  0  0  0  0  0  0  0  0  0  0
  -24.8456    3.1436   31.3382 O   0  0  0  0  0  0  0  0  0  0  0  0
  -26.1701    0.6874   25.8628 C   0  0  0  0  0  0  0  0  0  0  0  0
  -24.5867    4.4627   31.4009 C   0  0  0  0  0  0  0  0  0  0  0  0
  -25.6574    5.2347   32.1204 C   0  0  0  0  0  0  0  0  0  0  0  0
  -26.6584    4.6209   32.6115 C   0  0  0  0  0  0  0  0  0  0  0  0
  -26.9058    3.6476   32.8769 C   0  0  0  0  0  0  0  0  0  0  0  0
  -28.0631    3.2148   33.6498 C   0  0  0  0  0  0  0  0  0  0  0  0
  -29.0043    4.1642   33.8618 C   0  0  0  0  0  0  0  0  0  0  0  0
  -27.8175    5.5568   33.1927 C   0  0  0  0  0  0  0  0  0  0  0  0
  -28.4833    6.3426   32.2432 C   0  0  0  0  0  0  0  0  0  0  0  0
  -29.8490    6.6312   32.5254 C   0  0  0  0  0  0  0  0  0  0  0  0
  -30.3631    7.6168   31.7376 C   0  0  0  0  0  0  0  0  0  0  0  0
  -29.6705    8.1443   30.6390 C   0  0  0  0  0  0  0  0  0  0  0  0
  -27.8087    7.0733   31.2525 C   0  0  0  0  0  0  0  0  0  0  0  0
  -28.3851    7.9156   30.4408 C   0  0  0  0  0  0  0  0  0  0  0  0
  -27.3745    6.3178   34.4912 C   0  0  0  0  0  0  0  0  0  0  0  0
  -26.4349    6.0384   35.0882 C   0  0  0  0  0  0  0  0  0  0  0  0
  -25.9890    6.8030   36.2300 C   0  0  0  0  0  0  0  0  0  0  0  0
  -28.1644    7.3728   34.9724 C   0  0  0  0  0  0  0  0  0  0  0  0
  -27.8633    8.1738   36.0263 C   0  0  0  0  0  0  0  0  0  0  0  0
  -26.7073    7.8420   36.7195 C   0  0  0  0  0  0  0  0  0  0  0  0
  -28.5184    1.8038   33.9543 C   0  0  0  0  0  0  0  0  0  0  0  0
  -28.6090    1.4374   35.1772 C   0  0  0  0  0  0  0  0  0  0  0  0
  -28.3870    2.2820   36.1806 C   0  0  0  0  0  0  0  0  0  0  0  0
  -28.3374    2.2832   37.2768 C   0  0  0  0  0  0  0  0  0  0  0  0
  1  2  2  0
  2  3  1  0
  2  4  1  0
  3  5  1  0
  3  6  1  0
  7  8  1  0
  7  9  1  0
  8 10  2  0
  8 11  1  0
  5 12  1  0
 11 13  1  0
 13 14  1  0
 14 15  1  0
 15 16  2  0
 16 17  1  0
 17 18  2  0
 15 19  1  0
 18 19  1  0
 19 20  1  0
 19 26  1  0
 17 32  1  0
 32 33  1  0
 33 34  2  3
 34 35  1  0
  6  7  1  0
  9  4  1  0
 26 27  2  0
 27 28  1  0
 28 31  2  0
 31 30  1  0
 30 29  2  0
 29 26  1  0
 20 21  2  0
 21 22  1  0
 22 23  2  0
 23 25  1  0
 25 24  2  0
 24 20  1  0
M  END

$$$$
