No_3619-gen_results/8p0m/2024-11-26-14-13-15/
     RDKit          3D

 16 17  0  0  0  0  0  0  0  0999 V2000
  -28.0162   -0.8135   28.8779 C   0  0  0  0  0  0  0  0  0  0  0  0
  -27.0636   -0.1189   28.6079 C   0  0  0  0  0  0  0  0  0  0  0  0
  -25.8176   -0.3427   29.0487 N   0  0  0  0  0  0  0  0  0  0  0  0
  -25.6067   -1.4414   29.8929 C   0  0  0  0  0  0  0  0  0  0  0  0
  -26.6760   -2.2193   30.2363 C   0  0  0  0  0  0  0  0  0  0  0  0
  -27.8635   -1.9317   29.7671 C   0  0  0  0  0  0  0  0  0  0  0  0
  -26.9183    1.0622   27.7699 N   0  0  0  0  0  0  0  0  0  0  0  0
  -25.8950    1.4403   27.1831 C   0  0  0  0  0  0  0  0  0  0  0  0
  -25.4547    1.5622   26.2094 C   0  0  0  0  0  0  0  0  0  0  0  0
  -24.0673    2.0168   25.7718 C   0  0  0  0  0  0  0  0  0  0  0  0
  -23.1914    2.2509   26.8291 C   0  0  0  0  0  0  0  0  0  0  0  0
  -23.6012    2.0123   28.1365 C   0  0  0  0  0  0  0  0  0  0  0  0
  -24.8260    1.6287   28.3732 C   0  0  0  0  0  0  0  0  0  0  0  0
  -27.9903    1.9960   28.0525 C   0  0  0  0  0  0  0  0  0  0  0  0
  -29.0580    1.9397   27.1019 C   0  0  0  0  0  0  0  0  0  0  0  0
  -30.1166    2.7747   27.3374 C   0  0  0  0  0  0  0  0  0  0  0  0
  2  7  1  0
  7  8  1  0
  7 14  1  0
 14 15  2  3
 15 16  1  0
  1  2  2  0
  2  3  1  0
  3  4  2  0
  4  5  1  0
  5  6  2  0
  6  1  1  0
  8  9  2  0
  9 10  1  0
 10 11  2  0
 11 12  1  0
 12 13  2  0
 13  8  1  0
M  END

$$$$
