No_3002-gen_results/8p0m/2024-11-26-14-13-15/
     RDKit          3D

 35 38  0  0  0  0  0  0  0  0999 V2000
  -28.0162   -0.8135   28.8779 C   0  0  0  0  0  0  0  0  0  0  0  0
  -27.0636   -0.1190   28.6079 C   0  0  0  0  0  0  0  0  0  0  0  0
  -26.9716    0.7139   27.5060 C   0  0  0  0  0  0  0  0  0  0  0  0
  -28.1053    0.7744   26.6421 C   0  0  0  0  0  0  0  0  0  0  0  0
  -29.2008    0.1044   27.0527 C   0  0  0  0  0  0  0  0  0  0  0  0
  -29.2096   -0.6029   28.1853 C   0  0  0  0  0  0  0  0  0  0  0  0
  -30.4815    0.1441   26.3452 C   0  0  0  0  0  0  0  0  0  0  0  0
  -31.2620    1.1482   26.5381 N   0  0  0  0  0  0  0  0  0  0  0  0
  -30.7585   -0.8610   25.6013 O   0  0  0  0  0  0  0  0  0  0  0  0
  -31.0520    2.2662   27.4258 C   0  0  0  0  0  0  0  0  0  0  0  0
  -31.7172    2.8446   28.0088 C   0  0  0  0  0  0  0  0  0  0  0  0
  -31.3881    4.0361   28.8608 C   0  0  0  0  0  0  0  0  0  0  0  0
  -30.0417    4.4284   28.8833 C   0  0  0  0  0  0  0  0  0  0  0  0
  -29.6025    2.7509   27.4815 C   0  0  0  0  0  0  0  0  0  0  0  0
  -29.2312    3.8857   28.1067 C   0  0  0  0  0  0  0  0  0  0  0  0
  -28.0436   -1.7089   30.1224 C   0  0  0  0  0  0  0  0  0  0  0  0
  -27.1441   -2.4613   30.3033 O   0  0  0  0  0  0  0  0  0  0  0  0
  -29.0897   -1.7079   30.8618 O   0  0  0  0  0  0  0  0  0  0  0  0
  -32.5667    1.1073   25.8995 C   0  0  0  0  0  0  0  0  0  0  0  0
  -25.6947    1.3861   27.1025 C   0  0  0  0  0  0  0  0  0  0  0  0
  -24.9410    1.9263   28.2172 C   0  0  0  0  0  0  0  0  0  0  0  0
  -25.0848    2.5771   29.0607 C   0  0  0  0  0  0  0  0  0  0  0  0
  -26.4242    3.2511   29.1756 C   0  0  0  0  0  0  0  0  0  0  0  0
  -26.7219    4.1262   30.3196 C   0  0  0  0  0  0  0  0  0  0  0  0
  -25.6896    4.3165   31.1146 C   0  0  0  0  0  0  0  0  0  0  0  0
  -24.5108    3.5906   31.1852 C   0  0  0  0  0  0  0  0  0  0  0  0
  -24.2034    2.7954   30.1655 C   0  0  0  0  0  0  0  0  0  0  0  0
  -23.5039    1.2745   28.0203 C   0  0  0  0  0  0  0  0  0  0  0  0
  -23.0841    0.2918   28.8379 C   0  0  0  0  0  0  0  0  0  0  0  0
  -21.6800   -0.0465   28.8741 C   0  0  0  0  0  0  0  0  0  0  0  0
  -20.7716    0.5666   28.0598 C   0  0  0  0  0  0  0  0  0  0  0  0
  -21.1627    1.6846   27.3492 C   0  0  0  0  0  0  0  0  0  0  0  0
  -22.5147    2.0792   27.3485 C   0  0  0  0  0  0  0  0  0  0  0  0
  -25.2666    1.1146   25.7174 C   0  0  0  0  0  0  0  0  0  0  0  0
  -26.0426    5.2129   32.3828 C   0  0  0  0  0  0  0  0  0  0  0  0
  5  7  1  0
  7  8  1  0
  7  9  2  0
  8 10  1  0
  1 16  1  0
 16 17  2  0
 16 18  1  0
  8 19  1  0
  3 20  1  0
 20 21  1  0
 21 28  1  0
 20 34  1  0
 25 35  1  0
 21 22  1  0
 28 29  2  0
 29 30  1  0
 30 31  2  0
 31 32  1  0
 32 33  2  0
 33 28  1  0
  1  2  2  0
  2  3  1  0
  3  4  2  0
  4  5  1  0
  5  6  2  0
  6  1  1  0
 22 23  2  0
 23 24  1  0
 24 25  2  0
 25 26  1  0
 26 27  2  0
 27 22  1  0
 10 11  2  0
 11 12  1  0
 12 13  2  0
 13 15  1  0
 15 14  2  0
 14 10  1  0
M  END

$$$$
