No_3463-gen_results/8p0m/2024-11-26-14-13-15/
     RDKit          3D

 23 25  0  0  0  0  0  0  0  0999 V2000
  -28.0162   -0.8135   28.8779 C   0  0  0  0  0  0  0  0  0  0  0  0
  -27.0636   -0.1190   28.6079 C   0  0  0  0  0  0  0  0  0  0  0  0
  -25.7647   -0.3897   29.0360 C   0  0  0  0  0  0  0  0  0  0  0  0
  -25.5296   -1.5303   29.9014 C   0  0  0  0  0  0  0  0  0  0  0  0
  -26.6888   -2.2893   30.1810 C   0  0  0  0  0  0  0  0  0  0  0  0
  -27.8727   -1.9508   29.7373 C   0  0  0  0  0  0  0  0  0  0  0  0
  -24.5491    0.4100   28.7341 C   0  0  0  0  0  0  0  0  0  0  0  0
  -23.3309    0.0437   29.0569 C   0  0  0  0  0  0  0  0  0  0  0  0
  -23.2108   -1.2231   29.7977 C   0  0  0  0  0  0  0  0  0  0  0  0
  -24.2359   -1.9570   30.2201 C   0  0  0  0  0  0  0  0  0  0  0  0
  -21.9159    0.8926   28.6782 Cl  0  0  0  0  0  0  0  0  0  0  0  0
  -28.9906   -2.6738   30.1103 O   0  0  0  0  0  0  0  0  0  0  0  0
  -28.8696   -3.9664   30.5528 C   0  0  0  0  0  0  0  0  0  0  0  0
  -28.5396   -4.2730   31.4464 C   0  0  0  0  0  0  0  0  0  0  0  0
  -29.6039   -4.5499   32.2891 C   0  0  0  0  0  0  0  0  0  0  0  0
  -30.4995   -5.6176   31.9364 C   0  0  0  0  0  0  0  0  0  0  0  0
  -29.3791   -4.8615   29.4550 C   0  0  0  0  0  0  0  0  0  0  0  0
  -30.9617   -6.1923   30.8317 C   0  0  0  0  0  0  0  0  0  0  0  0
  -30.4346   -5.7453   29.6379 C   0  0  0  0  0  0  0  0  0  0  0  0
  -30.9097   -6.3845   28.3838 C   0  0  0  0  0  0  0  0  0  0  0  0
  -30.8959   -5.7867   27.3035 O   0  0  0  0  0  0  0  0  0  0  0  0
  -31.3443   -7.6832   28.4093 N   0  0  0  0  0  0  0  0  0  0  0  0
  -31.8167   -8.3773   27.2462 C   0  0  0  0  0  0  0  0  0  0  0  0
  8 11  1  0
  6 12  1  0
 12 13  1  0
 13 14  2  0
 14 15  1  0
 15 16  2  0
 13 17  1  0
 16 18  1  0
 17 19  1  0
 18 19  1  0
 19 20  1  0
 20 21  2  0
 20 22  1  0
 22 23  1  0
  1  2  2  0
  2  3  1  0
  4  5  1  0
  5  6  2  0
  6  1  1  0
  3  4  2  0
  4 10  1  0
 10  9  2  0
  9  8  1  0
  8  7  2  0
  7  3  1  0
M  END

$$$$
