No_3164-gen_results/8p0m/2024-11-26-14-13-15/
     RDKit          3D

 27 28  0  0  0  0  0  0  0  0999 V2000
  -28.0162   -0.8135   28.8779 C   0  0  0  0  0  0  0  0  0  0  0  0
  -27.0636   -0.1189   28.6079 C   0  0  0  0  0  0  0  0  0  0  0  0
  -26.9716    0.7139   27.5060 C   0  0  0  0  0  0  0  0  0  0  0  0
  -25.8206    1.4910   27.1160 C   0  0  0  0  0  0  0  0  0  0  0  0
  -24.6562    1.4242   27.9180 C   0  0  0  0  0  0  0  0  0  0  0  0
  -24.6847    0.5901   29.0659 C   0  0  0  0  0  0  0  0  0  0  0  0
  -25.8099   -0.1265   29.3338 C   0  0  0  0  0  0  0  0  0  0  0  0
  -28.0445   -1.5734   30.1690 C   0  0  0  0  0  0  0  0  0  0  0  0
  -26.8172   -1.7595   30.8704 C   0  0  0  0  0  0  0  0  0  0  0  0
  -25.7477   -0.9917   30.5376 C   0  0  0  0  0  0  0  0  0  0  0  0
  -23.2729    2.3671   27.5304 Cl  0  0  0  0  0  0  0  0  0  0  0  0
  -28.0850    0.8161   26.5112 C   0  0  0  0  0  0  0  0  0  0  0  0
  -27.9487    0.8749   25.3436 O   0  0  0  0  0  0  0  0  0  0  0  0
  -29.2584    0.7525   27.0126 O   0  0  0  0  0  0  0  0  0  0  0  0
  -29.2102   -2.4207   30.5196 C   0  0  0  0  0  0  0  0  0  0  0  0
  -29.1421   -3.5739   30.7094 O   0  0  0  0  0  0  0  0  0  0  0  0
  -30.4175   -1.8889   30.2374 O   0  0  0  0  0  0  0  0  0  0  0  0
  -23.4344    0.5561   29.8700 C   0  0  0  0  0  0  0  0  0  0  0  0
  -23.2318    1.0808   30.7656 O   0  0  0  0  0  0  0  0  0  0  0  0
  -22.5054   -0.2899   29.3500 O   0  0  0  0  0  0  0  0  0  0  0  0
  -31.4392   -2.2469   30.9509 C   0  0  0  0  0  0  0  0  0  0  0  0
  -31.6272   -1.7476   32.1160 C   0  0  0  0  0  0  0  0  0  0  0  0
  -31.2003   -0.4467   32.2704 C   0  0  0  0  0  0  0  0  0  0  0  0
  -31.3465    0.5336   31.3581 C   0  0  0  0  0  0  0  0  0  0  0  0
  -30.7920    1.8297   31.5325 C   0  0  0  0  0  0  0  0  0  0  0  0
  -30.1656    2.1157   32.7363 C   0  0  0  0  0  0  0  0  0  0  0  0
  -30.0673    1.2097   33.7483 C   0  0  0  0  0  0  0  0  0  0  0  0
  5 11  1  0
  3 12  1  0
 12 13  2  0
 12 14  1  0
  8 15  1  0
 15 16  2  0
 15 17  1  0
  6 18  1  0
 18 19  2  0
 18 20  1  0
 17 21  1  0
 21 22  1  0
 22 23  2  3
 23 24  1  0
 24 25  2  3
 25 26  1  0
 26 27  2  0
  2  3  1  0
  3  4  2  0
  4  5  1  0
  5  6  2  0
  6  7  1  0
  1  2  2  0
  2  7  1  0
  7 10  2  0
 10  9  1  0
  9  8  2  0
  8  1  1  0
M  END

$$$$
