No_3201-gen_results/8p0m/2024-11-26-14-13-15/
     RDKit          3D

 14 15  0  0  0  0  0  0  0  0999 V2000
  -28.0162   -0.8135   28.8779 C   0  0  0  0  0  0  0  0  0  0  0  0
  -27.0636   -0.1189   28.6079 C   0  0  0  0  0  0  0  0  0  0  0  0
  -25.7647   -0.3897   29.0360 C   0  0  0  0  0  0  0  0  0  0  0  0
  -25.5296   -1.5302   29.9014 C   0  0  0  0  0  0  0  0  0  0  0  0
  -26.6577   -2.2915   30.2035 C   0  0  0  0  0  0  0  0  0  0  0  0
  -27.8548   -1.9555   29.7630 C   0  0  0  0  0  0  0  0  0  0  0  0
  -24.7010    0.5654   28.7269 C   0  0  0  0  0  0  0  0  0  0  0  0
  -23.4565    0.3176   29.2488 C   0  0  0  0  0  0  0  0  0  0  0  0
  -23.2341   -0.9769   29.8772 C   0  0  0  0  0  0  0  0  0  0  0  0
  -24.2268   -1.8170   30.2924 C   0  0  0  0  0  0  0  0  0  0  0  0
  -24.8543    1.7241   27.9222 C   0  0  0  0  0  0  0  0  0  0  0  0
  -25.0408    2.6953   28.5847 F   0  0  0  0  0  0  0  0  0  0  0  0
  -25.9083    1.5272   27.1132 F   0  0  0  0  0  0  0  0  0  0  0  0
  -23.7577    1.9645   27.1213 F   0  0  0  0  0  0  0  0  0  0  0  0
  7 11  1  0
 11 12  1  0
 11 13  1  0
 11 14  1  0
  1  2  2  0
  2  3  1  0
  4  5  1  0
  5  6  2  0
  6  1  1  0
  3  4  2  0
  4 10  1  0
 10  9  2  0
  9  8  1  0
  8  7  2  0
  7  3  1  0
M  END

$$$$
