No_3700-gen_results/8p0m/2024-11-26-14-13-15/
     RDKit          3D

 18 21  0  0  0  0  0  0  0  0999 V2000
  -28.0162   -0.8135   28.8779 C   0  0  0  0  0  0  0  0  0  0  0  0
  -28.4690   -0.7850   29.8287 C   0  0  0  0  0  0  0  0  0  0  0  0
  -27.0871    0.2903   28.6377 C   0  0  0  0  0  0  0  0  0  0  0  0
  -26.2516    0.4114   27.4223 C   0  0  0  0  0  0  0  0  0  0  0  0
  -29.4309   -1.9307   30.2714 C   0  0  0  0  0  0  0  0  0  0  0  0
  -25.1465    1.2405   27.3564 C   0  0  0  0  0  0  0  0  0  0  0  0
  -24.7814    1.9840   28.5026 C   0  0  0  0  0  0  0  0  0  0  0  0
  -25.4736    1.8471   29.6355 C   0  0  0  0  0  0  0  0  0  0  0  0
  -26.5034    1.0016   29.7688 C   0  0  0  0  0  0  0  0  0  0  0  0
  -30.1781   -1.9604   31.4357 C   0  0  0  0  0  0  0  0  0  0  0  0
  -29.9434   -0.8977   32.3521 C   0  0  0  0  0  0  0  0  0  0  0  0
  -29.1065    0.1064   32.0942 C   0  0  0  0  0  0  0  0  0  0  0  0
  -28.3582    0.2357   31.0354 C   0  0  0  0  0  0  0  0  0  0  0  0
  -27.3164    1.0941   30.7807 C   0  0  0  0  0  0  0  0  0  0  0  0
  -24.3668    1.3776   26.1048 C   0  0  0  0  0  0  0  0  0  0  0  0
  -23.6923    2.0950   25.8141 C   0  0  0  0  0  0  0  0  0  0  0  0
  -23.0685    2.9413   26.9893 C   0  0  0  0  0  0  0  0  0  0  0  0
  -23.6620    2.8837   28.2075 C   0  0  0  0  0  0  0  0  0  0  0  0
  3  4  2  0
  4  6  1  0
  7  8  1  0
  8  9  2  0
  1  2  2  0
 13 14  2  0
 14  9  1  0
  9  3  1  0
  3  1  1  0
  2  5  1  0
  5 10  2  0
 10 11  1  0
 11 12  2  0
 12 13  1  0
 13  2  1  0
  6  7  2  0
  7 18  1  0
 18 17  2  0
 17 16  1  0
 16 15  2  0
 15  6  1  0
M  END

$$$$
