No_3236-gen_results/8p0m/2024-11-26-14-13-15/
     RDKit          3D

 29 31  0  0  0  0  0  0  0  0999 V2000
  -28.0162   -0.8135   28.8779 C   0  0  0  0  0  0  0  0  0  0  0  0
  -27.0636   -0.1190   28.6079 C   0  0  0  0  0  0  0  0  0  0  0  0
  -26.9716    0.7139   27.5060 C   0  0  0  0  0  0  0  0  0  0  0  0
  -28.1053    0.7744   26.6421 C   0  0  0  0  0  0  0  0  0  0  0  0
  -29.2041    0.1179   27.0477 C   0  0  0  0  0  0  0  0  0  0  0  0
  -29.2127   -0.6088   28.1281 C   0  0  0  0  0  0  0  0  0  0  0  0
  -25.7106    1.4518   27.1380 C   0  0  0  0  0  0  0  0  0  0  0  0
  -25.2074    2.4128   27.9320 C   0  0  0  0  0  0  0  0  0  0  0  0
  -24.2878    2.8213   28.1828 C   0  0  0  0  0  0  0  0  0  0  0  0
  -23.0796    2.2449   27.3693 C   0  0  0  0  0  0  0  0  0  0  0  0
  -23.4280    1.2098   26.5252 C   0  0  0  0  0  0  0  0  0  0  0  0
  -24.6823    0.7243   26.4558 C   0  0  0  0  0  0  0  0  0  0  0  0
  -27.9914    1.6099   25.4422 C   0  0  0  0  0  0  0  0  0  0  0  0
  -28.3255    2.9300   25.6002 C   0  0  0  0  0  0  0  0  0  0  0  0
  -27.6872    0.9774   24.2224 C   0  0  0  0  0  0  0  0  0  0  0  0
  -27.8609   -1.5532   30.0573 O   0  0  0  0  0  0  0  0  0  0  0  0
  -30.2653    0.1463   26.2953 F   0  0  0  0  0  0  0  0  0  0  0  0
  -28.5990   -1.4747   31.0722 C   0  0  0  0  0  0  0  0  0  0  0  0
  -26.4264    3.1789   28.8474 C   0  0  0  0  0  0  0  0  0  0  0  0
  -26.2751    4.3495   29.0605 C   0  0  0  0  0  0  0  0  0  0  0  0
  -26.7102    4.7901   30.3591 C   0  0  0  0  0  0  0  0  0  0  0  0
  -27.3208    4.3721   31.0362 C   0  0  0  0  0  0  0  0  0  0  0  0
  -27.6996    2.9222   30.7870 C   0  0  0  0  0  0  0  0  0  0  0  0
  -26.5913    2.3282   30.1255 C   0  0  0  0  0  0  0  0  0  0  0  0
  -28.1238    2.1295   32.0729 C   0  0  0  0  0  0  0  0  0  0  0  0
  -29.4926    1.8763   32.1729 C   0  0  0  0  0  0  0  0  0  0  0  0
  -30.1777    2.5456   32.9233 C   0  0  0  0  0  0  0  0  0  0  0  0
  -31.5739    2.3951   32.8949 C   0  0  0  0  0  0  0  0  0  0  0  0
  -32.4974    3.1299   33.6628 C   0  0  0  0  0  0  0  0  0  0  0  0
  3  7  1  0
  4 13  1  0
 13 14  1  0
 13 15  1  0
  1 16  1  0
  5 17  1  0
 16 18  1  0
  8 19  1  0
 23 25  1  0
 25 26  1  0
 26 27  2  3
 27 28  1  0
 28 29  2  0
  1  2  2  0
  2  3  1  0
  3  4  2  0
  4  5  1  0
  5  6  2  0
  6  1  1  0
 19 20  2  0
 20 21  1  0
 21 22  2  0
 22 23  1  0
 23 24  2  0
 24 19  1  0
  7  8  1  0
  8  9  2  0
  9 10  1  0
 10 11  2  0
 11 12  1  0
 12  7  2  0
M  END

$$$$
