No_3978-gen_results/8p0m/2024-11-26-14-13-15/
     RDKit          3D

 16 16  0  0  0  0  0  0  0  0999 V2000
  -28.0162   -0.8135   28.8779 C   0  0  0  0  0  0  0  0  0  0  0  0
  -27.0636   -0.1190   28.6079 C   0  0  0  0  0  0  0  0  0  0  0  0
  -26.9716    0.7139   27.5060 C   0  0  0  0  0  0  0  0  0  0  0  0
  -28.1053    0.7744   26.6421 C   0  0  0  0  0  0  0  0  0  0  0  0
  -29.2041    0.1179   27.0477 C   0  0  0  0  0  0  0  0  0  0  0  0
  -29.2127   -0.6088   28.1281 C   0  0  0  0  0  0  0  0  0  0  0  0
  -25.7106    1.4518   27.1380 C   0  0  0  0  0  0  0  0  0  0  0  0
  -24.3316    1.0098   27.9169 P   0  0  0  0  0  0  0  0  0  0  0  0
  -23.1973    1.6642   27.2116 O   0  0  0  0  0  0  0  0  0  0  0  0
  -24.1046   -0.4875   27.8548 O   0  0  0  0  0  0  0  0  0  0  0  0
  -24.5415    1.3170   29.4386 O   0  0  0  0  0  0  0  0  0  0  0  0
  -30.4182    0.2535   26.2095 C   0  0  0  0  0  0  0  0  0  0  0  0
  -30.4360    0.4342   25.1881 O   0  0  0  0  0  0  0  0  0  0  0  0
  -31.6139   -0.0388   26.8499 N   0  0  0  0  0  0  0  0  0  0  0  0
  -32.8538   -0.0574   26.1244 C   0  0  0  0  0  0  0  0  0  0  0  0
  -23.4862    1.7333   29.8730 F   0  0  0  0  0  0  0  0  0  0  0  0
  3  7  1  0
  7  8  1  0
  8  9  2  0
  8 10  1  0
  8 11  1  0
  5 12  1  0
 12 13  2  0
 12 14  1  0
 14 15  1  0
 11 16  1  0
  1  2  2  0
  2  3  1  0
  3  4  2  0
  4  5  1  0
  5  6  2  0
  6  1  1  0
M  END

$$$$
