No_3882-gen_results/8p0m/2024-11-26-14-13-15/
     RDKit          3D

 14 15  0  0  0  0  0  0  0  0999 V2000
  -28.0162   -0.8135   28.8779 C   0  0  0  0  0  0  0  0  0  0  0  0
  -28.4690   -0.7850   29.8287 C   0  0  0  0  0  0  0  0  0  0  0  0
  -26.5042   -0.7777   28.8766 C   0  0  0  0  0  0  0  0  0  0  0  0
  -25.7622   -0.0022   27.9705 C   0  0  0  0  0  0  0  0  0  0  0  0
  -29.9993   -0.7599   29.8953 C   0  0  0  0  0  0  0  0  0  0  0  0
  -24.3210   -0.0297   28.0177 C   0  0  0  0  0  0  0  0  0  0  0  0
  -23.6855   -0.8662   28.9737 C   0  0  0  0  0  0  0  0  0  0  0  0
  -22.2639   -0.8437   29.0536 C   0  0  0  0  0  0  0  0  0  0  0  0
  -24.4308   -1.6610   29.8703 C   0  0  0  0  0  0  0  0  0  0  0  0
  -25.8017   -1.6269   29.7763 C   0  0  0  0  0  0  0  0  0  0  0  0
  -30.5919   -0.4814   28.7215 C   0  0  0  0  0  0  0  0  0  0  0  0
  -29.8909   -0.2187   27.6168 C   0  0  0  0  0  0  0  0  0  0  0  0
  -28.5425   -0.2329   27.6601 C   0  0  0  0  0  0  0  0  0  0  0  0
  -21.4275    0.0425   29.3891 N   0  0  0  0  0  0  0  0  0  0  0  0
  1  3  1  0
  7  8  1  0
  8 14  1  0
  1  2  2  0
  2  5  1  0
  5 11  2  0
 11 12  1  0
 12 13  2  0
 13  1  1  0
  3  4  2  0
  4  6  1  0
  6  7  2  0
  7  9  1  0
  9 10  2  0
 10  3  1  0
M  END

$$$$
