No_3502-gen_results/8p0m/2024-11-26-14-13-15/
     RDKit          3D

 29 31  0  0  0  0  0  0  0  0999 V2000
  -28.0162   -0.8135   28.8779 C   0  0  0  0  0  0  0  0  0  0  0  0
  -27.0636   -0.1189   28.6079 C   0  0  0  0  0  0  0  0  0  0  0  0
  -26.9716    0.7139   27.5060 C   0  0  0  0  0  0  0  0  0  0  0  0
  -25.8205    1.4910   27.1160 C   0  0  0  0  0  0  0  0  0  0  0  0
  -24.6562    1.4242   27.9180 C   0  0  0  0  0  0  0  0  0  0  0  0
  -24.7114    0.5419   29.0507 C   0  0  0  0  0  0  0  0  0  0  0  0
  -25.8042   -0.2058   29.3881 C   0  0  0  0  0  0  0  0  0  0  0  0
  -28.0309   -1.5903   30.1490 C   0  0  0  0  0  0  0  0  0  0  0  0
  -29.1708   -2.3553   30.5109 C   0  0  0  0  0  0  0  0  0  0  0  0
  -28.9850   -3.5907   31.0058 C   0  0  0  0  0  0  0  0  0  0  0  0
  -27.7787   -4.3005   30.7578 C   0  0  0  0  0  0  0  0  0  0  0  0
  -26.6685   -3.5724   30.2875 C   0  0  0  0  0  0  0  0  0  0  0  0
  -26.8111   -2.3858   30.3102 C   0  0  0  0  0  0  0  0  0  0  0  0
  -25.5560   -1.6348   30.1760 N   0  0  0  0  0  0  0  0  0  0  0  0
  -23.4905    2.2427   27.7148 C   0  0  0  0  0  0  0  0  0  0  0  0
  -23.6892    3.3864   27.3136 F   0  0  0  0  0  0  0  0  0  0  0  0
  -22.7524    2.4443   28.8524 F   0  0  0  0  0  0  0  0  0  0  0  0
  -22.6120    1.5817   26.8150 F   0  0  0  0  0  0  0  0  0  0  0  0
  -28.1218    0.9361   26.6172 C   0  0  0  0  0  0  0  0  0  0  0  0
  -28.2392    0.2734   25.6439 O   0  0  0  0  0  0  0  0  0  0  0  0
  -29.1435    1.6970   27.0654 N   0  0  0  0  0  0  0  0  0  0  0  0
  -30.3501    1.8758   26.2698 C   0  0  0  0  0  0  0  0  0  0  0  0
  -30.5044   -4.6248   31.5279 Br  0  0  0  0  0  0  0  0  0  0  0  0
  -29.1079    2.5458   28.3092 C   0  0  0  0  0  0  0  0  0  0  0  0
  -28.8442    3.8016   28.1576 C   0  0  0  0  0  0  0  0  0  0  0  0
  -29.0310    4.6477   27.5975 C   0  0  0  0  0  0  0  0  0  0  0  0
  -28.5267    6.0469   27.6603 C   0  0  0  0  0  0  0  0  0  0  0  0
  -27.5966    6.3031   28.6236 C   0  0  0  0  0  0  0  0  0  0  0  0
  -27.1604    5.2813   29.4887 C   0  0  0  0  0  0  0  0  0  0  0  0
  5 15  1  0
 15 16  1  0
 15 17  1  0
 15 18  1  0
  3 19  1  0
 19 20  2  0
 19 21  1  0
 21 22  1  0
 10 23  1  0
 21 24  1  0
 24 25  2  3
 25 26  1  0
 26 27  2  3
 27 28  1  0
 28 29  2  0
  2  3  1  0
  3  4  2  0
  4  5  1  0
  5  6  2  0
  6  7  1  0
  8  9  2  0
  9 10  1  0
 10 11  2  0
 11 12  1  0
 12 13  2  0
  1  2  2  0
  2  7  1  0
  7 14  2  0
 14 13  1  0
 13  8  1  0
  8  1  1  0
M  END

$$$$
