No_3608-gen_results/8p0m/2024-11-26-14-13-15/
     RDKit          3D

 35 38  0  0  0  0  0  0  0  0999 V2000
  -28.0162   -0.8135   28.8779 C   0  0  0  0  0  0  0  0  0  0  0  0
  -27.0636   -0.1189   28.6079 C   0  0  0  0  0  0  0  0  0  0  0  0
  -26.8756    1.1325   28.9134 C   0  0  0  0  0  0  0  0  0  0  0  0
  -25.6883    1.9515   28.5672 C   0  0  0  0  0  0  0  0  0  0  0  0
  -24.6394    1.2834   27.8753 C   0  0  0  0  0  0  0  0  0  0  0  0
  -24.8068   -0.0513   27.6040 C   0  0  0  0  0  0  0  0  0  0  0  0
  -25.9020   -0.7670   27.9511 C   0  0  0  0  0  0  0  0  0  0  0  0
  -28.0611   -1.4288   30.2827 C   0  0  0  0  0  0  0  0  0  0  0  0
  -28.9552   -2.3242   30.5041 O   0  0  0  0  0  0  0  0  0  0  0  0
  -27.1983   -1.1564   31.1209 O   0  0  0  0  0  0  0  0  0  0  0  0
  -23.4149    1.9682   27.5050 C   0  0  0  0  0  0  0  0  0  0  0  0
  -23.3023    2.7190   26.6582 O   0  0  0  0  0  0  0  0  0  0  0  0
  -22.2587    1.5474   28.1747 O   0  0  0  0  0  0  0  0  0  0  0  0
  -25.5257    3.3740   28.9275 C   0  0  0  0  0  0  0  0  0  0  0  0
  -24.9205    3.6210   29.9181 O   0  0  0  0  0  0  0  0  0  0  0  0
  -26.0365    4.2683   28.1077 N   0  0  0  0  0  0  0  0  0  0  0  0
  -25.9316    5.7302   28.3973 C   0  0  0  0  0  0  0  0  0  0  0  0
  -26.7218    4.0018   26.8445 C   0  0  0  0  0  0  0  0  0  0  0  0
  -27.0640    6.2563   28.9799 C   0  0  0  0  0  0  0  0  0  0  0  0
  -28.0685    5.7229   29.3096 C   0  0  0  0  0  0  0  0  0  0  0  0
  -29.0133    6.0786   29.9127 C   0  0  0  0  0  0  0  0  0  0  0  0
  -30.2072    5.2833   30.3310 C   0  0  0  0  0  0  0  0  0  0  0  0
  -30.1450    3.9566   29.8818 C   0  0  0  0  0  0  0  0  0  0  0  0
  -29.1049    3.4649   29.1791 C   0  0  0  0  0  0  0  0  0  0  0  0
  -29.1061    2.1366   28.7782 C   0  0  0  0  0  0  0  0  0  0  0  0
  -28.1086    4.2897   28.9266 C   0  0  0  0  0  0  0  0  0  0  0  0
  -27.5002    3.9686   27.5968 C   0  0  0  0  0  0  0  0  0  0  0  0
  -28.3711    2.8635   27.2057 C   0  0  0  0  0  0  0  0  0  0  0  0
  -29.5418    3.2002   26.3520 C   0  0  0  0  0  0  0  0  0  0  0  0
  -30.2530    4.0222   26.5215 C   0  0  0  0  0  0  0  0  0  0  0  0
  -31.2910    4.4469   25.6184 C   0  0  0  0  0  0  0  0  0  0  0  0
  -32.2523    5.4470   25.8616 C   0  0  0  0  0  0  0  0  0  0  0  0
  -32.1130    6.2044   27.0588 C   0  0  0  0  0  0  0  0  0  0  0  0
  -33.1283    7.1725   27.3525 C   0  0  0  0  0  0  0  0  0  0  0  0
  -29.9213    2.1455   25.2985 C   0  0  0  0  0  0  0  0  0  0  0  0
  1  2  2  3
  2  3  1  0
  3  4  1  0
  4  5  1  0
  5  6  1  0
  2  7  1  0
  6  7  1  0
  1  8  1  0
  8  9  1  0
  8 10  2  0
  5 11  1  0
 11 12  2  0
 11 13  1  0
  4 14  1  0
 14 15  2  0
 14 16  1  0
 16 17  1  0
 16 18  1  0
 17 19  1  0
 24 25  1  0
 18 27  1  0
 26 27  1  0
 25 28  1  0
 27 28  1  0
 28 29  1  0
 29 30  2  3
 30 31  1  0
 31 32  2  3
 32 33  1  0
 33 34  2  0
 29 35  1  0
 19 20  1  0
 20 21  2  0
 21 22  1  0
 22 23  2  0
 23 24  1  0
 24 26  2  0
 26 20  1  0
M  END

$$$$
