No_3555-gen_results/8p0m/2024-11-26-14-13-15/
     RDKit          3D

 26 28  0  0  0  0  0  0  0  0999 V2000
  -28.0162   -0.8135   28.8779 C   0  0  0  0  0  0  0  0  0  0  0  0
  -27.0636   -0.1190   28.6079 C   0  0  0  0  0  0  0  0  0  0  0  0
  -25.7923   -0.4302   29.0761 C   0  0  0  0  0  0  0  0  0  0  0  0
  -24.5456    0.3494   28.8225 C   0  0  0  0  0  0  0  0  0  0  0  0
  -24.6586    1.4196   27.8878 C   0  0  0  0  0  0  0  0  0  0  0  0
  -25.9471    1.6811   27.3792 C   0  0  0  0  0  0  0  0  0  0  0  0
  -27.0439    0.9739   27.6871 C   0  0  0  0  0  0  0  0  0  0  0  0
  -28.6643   -0.5274   30.1017 N   0  0  0  0  0  0  0  0  0  0  0  0
  -29.6646   -0.3963   30.4406 C   0  0  0  0  0  0  0  0  0  0  0  0
  -30.9113   -0.5298   29.3420 Cl  0  0  0  0  0  0  0  0  0  0  0  0
  -30.1554   -0.4159   31.6881 O   0  0  0  0  0  0  0  0  0  0  0  0
  -23.4523    2.1633   27.5964 C   0  0  0  0  0  0  0  0  0  0  0  0
  -23.5054    3.1377   26.8707 O   0  0  0  0  0  0  0  0  0  0  0  0
  -22.2006    1.6833   27.9440 N   0  0  0  0  0  0  0  0  0  0  0  0
  -28.3345    1.3298   27.0788 C   0  0  0  0  0  0  0  0  0  0  0  0
  -28.3933    1.3970   25.7625 C   0  0  0  0  0  0  0  0  0  0  0  0
  -29.6151    1.5257   25.1205 C   0  0  0  0  0  0  0  0  0  0  0  0
  -30.7504    1.7342   25.8587 C   0  0  0  0  0  0  0  0  0  0  0  0
  -30.6689    1.8276   27.2435 C   0  0  0  0  0  0  0  0  0  0  0  0
  -29.4565    1.5642   27.9102 C   0  0  0  0  0  0  0  0  0  0  0  0
  -25.4840   -1.5276   30.0456 C   0  0  0  0  0  0  0  0  0  0  0  0
  -25.7155   -1.3077   31.2081 F   0  0  0  0  0  0  0  0  0  0  0  0
  -24.1792   -1.9639   29.8990 F   0  0  0  0  0  0  0  0  0  0  0  0
  -26.1803   -2.6617   29.5416 F   0  0  0  0  0  0  0  0  0  0  0  0
  -21.9443    0.6302   28.8147 C   0  0  0  0  0  0  0  0  0  0  0  0
  -23.1888   -0.1021   29.2041 C   0  0  0  0  0  0  0  0  0  0  0  0
  1  2  1  0
  1  8  1  0
  8  9  1  0
  9 10  1  0
  9 11  2  0
  5 12  1  0
 12 13  2  0
 12 14  1  0
  7 15  1  0
  3 21  1  0
 21 22  1  0
 21 23  1  0
 21 24  1  0
 14 25  1  0
  4 26  1  0
 26 25  1  0
 15 16  2  0
 16 17  1  0
 17 18  2  0
 18 19  1  0
 19 20  2  0
 20 15  1  0
  2  3  2  0
  3  4  1  0
  4  5  2  0
  5  6  1  0
  6  7  2  0
  7  2  1  0
M  END

$$$$
