No_3032-gen_results/8p0m/2024-11-26-14-13-15/
     RDKit          3D

 10 10  0  0  0  0  0  0  0  0999 V2000
  -28.0162   -0.8135   28.8779 C   0  0  0  0  0  0  0  0  0  0  0  0
  -28.4690   -0.7850   29.8287 C   0  0  0  0  0  0  0  0  0  0  0  0
  -28.3026    0.2475   28.0344 N   0  0  0  0  0  0  0  0  0  0  0  0
  -27.3575    0.7612   27.1787 C   0  0  0  0  0  0  0  0  0  0  0  0
  -26.0248    0.3858   27.3983 C   0  0  0  0  0  0  0  0  0  0  0  0
  -25.6605   -0.5737   28.3448 C   0  0  0  0  0  0  0  0  0  0  0  0
  -26.5862   -0.9963   29.1562 C   0  0  0  0  0  0  0  0  0  0  0  0
  -28.2604   -1.8065   30.9538 C   0  0  0  0  0  0  0  0  0  0  0  0
  -29.2825   -2.0967   31.9407 C   0  0  0  0  0  0  0  0  0  0  0  0
  -26.1795   -1.8857   30.1732 C   0  0  0  0  0  0  0  0  0  0  0  0
  1  2  1  0
  2  8  2  3
  8  9  1  0
  7 10  1  0
  1  3  2  0
  3  4  1  0
  4  5  2  0
  5  6  1  0
  6  7  2  0
  7  1  1  0
M  END

$$$$
