No_3950-gen_results/8p0m/2024-11-26-14-13-15/
     RDKit          3D

 25 27  0  0  0  0  0  0  0  0999 V2000
  -28.0162   -0.8135   28.8779 C   0  0  0  0  0  0  0  0  0  0  0  0
  -27.0636   -0.1189   28.6079 C   0  0  0  0  0  0  0  0  0  0  0  0
  -27.0010    0.6913   27.4910 C   0  0  0  0  0  0  0  0  0  0  0  0
  -28.1373    0.7363   26.6350 C   0  0  0  0  0  0  0  0  0  0  0  0
  -29.2360    0.0765   27.0690 C   0  0  0  0  0  0  0  0  0  0  0  0
  -29.2177   -0.6429   28.1747 C   0  0  0  0  0  0  0  0  0  0  0  0
  -30.3516    0.1564   26.2430 N   0  0  0  0  0  0  0  0  0  0  0  0
  -30.2688    0.1234   24.9366 C   0  0  0  0  0  0  0  0  0  0  0  0
  -31.2887   -0.1530   24.2272 C   0  0  0  0  0  0  0  0  0  0  0  0
  -31.5996    0.0064   26.7764 C   0  0  0  0  0  0  0  0  0  0  0  0
  -32.7380   -0.2195   26.0165 C   0  0  0  0  0  0  0  0  0  0  0  0
  -32.5884   -0.2531   24.6999 C   0  0  0  0  0  0  0  0  0  0  0  0
  -25.7249    1.4068   27.0714 C   0  0  0  0  0  0  0  0  0  0  0  0
  -25.1662    2.2568   28.0761 C   0  0  0  0  0  0  0  0  0  0  0  0
  -23.8785    2.7318   27.7626 C   0  0  0  0  0  0  0  0  0  0  0  0
  -23.1949    2.3274   26.5956 C   0  0  0  0  0  0  0  0  0  0  0  0
  -23.8086    1.4861   25.7196 C   0  0  0  0  0  0  0  0  0  0  0  0
  -25.0455    0.9886   25.9621 C   0  0  0  0  0  0  0  0  0  0  0  0
  -28.0646   -1.6043   30.1571 C   0  0  0  0  0  0  0  0  0  0  0  0
  -27.4085   -2.6943   30.0904 O   0  0  0  0  0  0  0  0  0  0  0  0
  -28.7036   -1.3066   31.1468 O   0  0  0  0  0  0  0  0  0  0  0  0
  -25.7771    2.7136   29.3070 C   0  0  0  0  0  0  0  0  0  0  0  0
  -26.4604    3.9240   29.3397 C   0  0  0  0  0  0  0  0  0  0  0  0
  -27.2859    4.1774   30.4265 C   0  0  0  0  0  0  0  0  0  0  0  0
  -28.0797    5.3288   30.4636 C   0  0  0  0  0  0  0  0  0  0  0  0
  5  7  1  0
  7  8  1  0
  7 10  1  0
  9 12  1  0
 11 12  1  0
  3 13  1  0
  1 19  1  0
 19 20  2  0
 19 21  1  0
 14 22  1  0
 22 23  1  0
 23 24  2  3
 24 25  1  0
  8  9  1  0
 11 10  1  0
  1  2  2  0
  2  3  1  0
  3  4  2  0
  4  5  1  0
  5  6  2  0
  6  1  1  0
 13 14  2  0
 14 15  1  0
 15 16  2  0
 16 17  1  0
 17 18  2  0
 18 13  1  0
M  END

$$$$
