No_3948-gen_results/8p0m/2024-11-26-14-13-15/
     RDKit          3D

 35 35  0  0  0  0  0  0  0  0999 V2000
  -28.0162   -0.8135   28.8779 C   0  0  0  0  0  0  0  0  0  0  0  0
  -28.4690   -0.7850   29.8287 C   0  0  0  0  0  0  0  0  0  0  0  0
  -28.1960    0.3478   28.0550 C   0  0  0  0  0  0  0  0  0  0  0  0
  -29.0191    1.3501   28.3782 C   0  0  0  0  0  0  0  0  0  0  0  0
  -29.4107    0.1803   30.3782 C   0  0  0  0  0  0  0  0  0  0  0  0
  -29.6059    1.2495   29.6193 C   0  0  0  0  0  0  0  0  0  0  0  0
  -27.2619    0.3835   26.3673 Br  0  0  0  0  0  0  0  0  0  0  0  0
  -30.1212   -0.0413   31.9658 Cl  0  0  0  0  0  0  0  0  0  0  0  0
  -29.1710    2.3951   27.5733 O   0  0  0  0  0  0  0  0  0  0  0  0
  -28.2800   -2.1015   30.8518 C   0  0  0  0  0  0  0  0  0  0  0  0
  -27.1776   -2.4632   30.9629 O   0  0  0  0  0  0  0  0  0  0  0  0
  -29.2475   -2.6933   31.3450 O   0  0  0  0  0  0  0  0  0  0  0  0
  -29.2449   -4.0760   31.2822 C   0  0  0  0  0  0  0  0  0  0  0  0
  -29.3346   -4.5961   29.9483 C   0  0  0  0  0  0  0  0  0  0  0  0
  -30.4702   -4.4619   29.3823 O   0  0  0  0  0  0  0  0  0  0  0  0
  -31.0220   -5.5250   28.6269 C   0  0  0  0  0  0  0  0  0  0  0  0
  -32.2538   -5.2602   28.1263 C   0  0  0  0  0  0  0  0  0  0  0  0
  -33.2028   -6.0231   28.2466 Br  0  0  0  0  0  0  0  0  0  0  0  0
  -32.4878   -3.9434   28.5861 F   0  0  0  0  0  0  0  0  0  0  0  0
  -31.9939   -4.9167   26.7394 F   0  0  0  0  0  0  0  0  0  0  0  0
  -31.1440   -6.6080   29.5608 O   0  0  0  0  0  0  0  0  0  0  0  0
  -30.3930   -4.5541   32.1955 C   0  0  0  0  0  0  0  0  0  0  0  0
  -30.1607   -5.7670   32.7906 C   0  0  0  0  0  0  0  0  0  0  0  0
  -31.3450   -6.5456   32.9056 C   0  0  0  0  0  0  0  0  0  0  0  0
  -31.7547   -7.3400   34.1315 Cl  0  0  0  0  0  0  0  0  0  0  0  0
  -30.4681   -3.5162   33.2814 O   0  0  0  0  0  0  0  0  0  0  0  0
  -31.7230   -3.1210   33.7503 C   0  0  0  0  0  0  0  0  0  0  0  0
  -31.6012   -2.1103   34.5956 C   0  0  0  0  0  0  0  0  0  0  0  0
  -30.3773   -1.7752   34.7825 F   0  0  0  0  0  0  0  0  0  0  0  0
  -32.0651   -2.5088   35.8749 O   0  0  0  0  0  0  0  0  0  0  0  0
  -32.8576   -3.4046   33.0428 C   0  0  0  0  0  0  0  0  0  0  0  0
  -33.9898   -3.3801   33.7153 C   0  0  0  0  0  0  0  0  0  0  0  0
  -35.1925   -3.6677   33.0002 C   0  0  0  0  0  0  0  0  0  0  0  0
  -35.0060   -4.0959   31.7062 C   0  0  0  0  0  0  0  0  0  0  0  0
  -33.7844   -4.0868   31.0579 C   0  0  0  0  0  0  0  0  0  0  0  0
  3  7  1  0
  5  8  1  0
  4  9  1  0
  2 10  1  0
 10 11  2  0
 10 12  1  0
 12 13  1  0
 13 14  1  0
 14 15  1  0
 15 16  1  0
 16 17  1  0
 17 18  1  0
 17 19  1  0
 17 20  1  0
 16 21  1  0
 13 22  1  0
 22 23  1  0
 23 24  1  0
 24 25  1  0
 22 26  1  0
 26 27  1  0
 27 28  1  0
 28 29  1  0
 28 30  1  0
 27 31  1  0
 31 32  2  3
 32 33  1  0
 33 34  2  3
 34 35  1  0
  1  2  2  0
  2  5  1  0
  5  6  2  0
  6  4  1  0
  4  3  2  0
  3  1  1  0
M  END

$$$$
