No_3078-gen_results/8p0m/2024-11-26-14-13-15/
     RDKit          3D

 15 16  0  0  0  0  0  0  0  0999 V2000
  -28.0162   -0.8135   28.8779 C   0  0  0  0  0  0  0  0  0  0  0  0
  -28.4690   -0.7850   29.8287 C   0  0  0  0  0  0  0  0  0  0  0  0
  -28.1960    0.3478   28.0550 C   0  0  0  0  0  0  0  0  0  0  0  0
  -29.0191    1.3501   28.3782 C   0  0  0  0  0  0  0  0  0  0  0  0
  -29.4107    0.1803   30.3782 C   0  0  0  0  0  0  0  0  0  0  0  0
  -29.6059    1.2495   29.6193 C   0  0  0  0  0  0  0  0  0  0  0  0
  -27.3467    0.3759   26.5145 Cl  0  0  0  0  0  0  0  0  0  0  0  0
  -30.0268   -0.0284   31.7609 C   0  0  0  0  0  0  0  0  0  0  0  0
  -29.9889    0.9520   32.5726 C   0  0  0  0  0  0  0  0  0  0  0  0
  -29.1416    2.0784   32.3580 C   0  0  0  0  0  0  0  0  0  0  0  0
  -28.6628    2.6695   33.3316 C   0  0  0  0  0  0  0  0  0  0  0  0
  -27.7435    3.8230   33.0919 C   0  0  0  0  0  0  0  0  0  0  0  0
  -27.3997    4.1780   31.7680 C   0  0  0  0  0  0  0  0  0  0  0  0
  -27.9062    3.4092   30.8048 C   0  0  0  0  0  0  0  0  0  0  0  0
  -28.6795    2.4023   31.0622 C   0  0  0  0  0  0  0  0  0  0  0  0
  3  7  1  0
  5  8  1  0
  8  9  2  3
  9 10  1  0
  1  2  2  0
  2  5  1  0
  5  6  2  0
  6  4  1  0
  4  3  2  0
  3  1  1  0
 10 11  2  0
 11 12  1  0
 12 13  2  0
 13 14  1  0
 14 15  2  0
 15 10  1  0
M  END

$$$$
