No_3339-gen_results/8p0m/2024-11-26-14-13-15/
     RDKit          3D

 20 22  0  0  0  0  0  0  0  0999 V2000
  -28.0162   -0.8135   28.8779 C   0  0  0  0  0  0  0  0  0  0  0  0
  -27.0636   -0.1190   28.6079 C   0  0  0  0  0  0  0  0  0  0  0  0
  -25.7647   -0.3897   29.0360 C   0  0  0  0  0  0  0  0  0  0  0  0
  -25.5296   -1.5302   29.9014 C   0  0  0  0  0  0  0  0  0  0  0  0
  -26.6577   -2.2915   30.2035 C   0  0  0  0  0  0  0  0  0  0  0  0
  -27.8548   -1.9555   29.7630 C   0  0  0  0  0  0  0  0  0  0  0  0
  -24.5441    0.4126   28.7379 C   0  0  0  0  0  0  0  0  0  0  0  0
  -24.4731    1.2064   27.7114 C   0  0  0  0  0  0  0  0  0  0  0  0
  -23.2632    1.9110   27.3928 C   0  0  0  0  0  0  0  0  0  0  0  0
  -22.0960    1.7116   28.0459 C   0  0  0  0  0  0  0  0  0  0  0  0
  -23.3012    0.1559   29.4817 C   0  0  0  0  0  0  0  0  0  0  0  0
  -22.1018    0.8312   29.1085 C   0  0  0  0  0  0  0  0  0  0  0  0
  -29.0208   -2.7946   30.1817 C   0  0  0  0  0  0  0  0  0  0  0  0
  -30.0643   -2.4767   29.9968 O   0  0  0  0  0  0  0  0  0  0  0  0
  -28.7496   -3.7112   31.1162 O   0  0  0  0  0  0  0  0  0  0  0  0
  -23.3182    2.7880   26.3329 O   0  0  0  0  0  0  0  0  0  0  0  0
  -24.4560    2.5839   25.5671 C   0  0  0  0  0  0  0  0  0  0  0  0
  -25.4331    1.4990   26.7519 C   0  0  0  0  0  0  0  0  0  0  0  0
  -31.1989   -3.3897   30.1260 C   0  0  0  0  0  0  0  0  0  0  0  0
  -32.1905   -3.1531   30.4531 C   0  0  0  0  0  0  0  0  0  0  0  0
  3  7  1  0
  6 13  1  0
 13 14  1  0
 13 15  2  0
  9 16  1  0
 16 17  1  0
  8 18  1  0
 17 18  2  0
 14 19  1  0
 19 20  2  0
  7  8  2  0
  8  9  1  0
  9 10  2  0
 10 12  1  0
 12 11  2  0
 11  7  1  0
  1  2  2  0
  2  3  1  0
  3  4  2  0
  4  5  1  0
  5  6  2  0
  6  1  1  0
M  END

$$$$
