No_3283-gen_results/8p0m/2024-11-26-14-13-15/
     RDKit          3D

 14 15  0  0  0  0  0  0  0  0999 V2000
  -28.0162   -0.8135   28.8779 C   0  0  0  0  0  0  0  0  0  0  0  0
  -28.4690   -0.7850   29.8287 C   0  0  0  0  0  0  0  0  0  0  0  0
  -26.5042   -0.7777   28.8766 C   0  0  0  0  0  0  0  0  0  0  0  0
  -25.8103   -0.8531   30.1028 C   0  0  0  0  0  0  0  0  0  0  0  0
  -27.9906   -0.8916   31.2257 C   0  0  0  0  0  0  0  0  0  0  0  0
  -26.6042   -0.8676   31.2652 C   0  0  0  0  0  0  0  0  0  0  0  0
  -24.5004   -0.7818   30.1446 O   0  0  0  0  0  0  0  0  0  0  0  0
  -23.8455    0.2950   29.6103 C   0  0  0  0  0  0  0  0  0  0  0  0
  -23.7114    0.4342   28.3257 C   0  0  0  0  0  0  0  0  0  0  0  0
  -23.2177    1.5105   27.9302 C   0  0  0  0  0  0  0  0  0  0  0  0
  -23.2808    1.8735   26.5774 C   0  0  0  0  0  0  0  0  0  0  0  0
  -24.1650    1.1490   25.7334 C   0  0  0  0  0  0  0  0  0  0  0  0
  -24.8762    0.1298   26.2519 C   0  0  0  0  0  0  0  0  0  0  0  0
  -24.7279   -0.2185   27.5655 C   0  0  0  0  0  0  0  0  0  0  0  0
  4  7  1  0
  7  8  1  0
  8  9  1  0
  9 10  2  0
 10 11  1  0
 11 12  2  0
 12 13  1  0
 13 14  2  0
 14  9  1  0
  1  2  2  0
  2  5  1  0
  5  6  2  0
  6  4  1  0
  4  3  2  0
  3  1  1  0
M  END

$$$$
