No_3319-gen_results/8p0m/2024-11-26-14-13-15/
     RDKit          3D

 29 31  0  0  0  0  0  0  0  0999 V2000
  -28.0162   -0.8135   28.8779 C   0  0  0  0  0  0  0  0  0  0  0  0
  -27.0636   -0.1189   28.6079 C   0  0  0  0  0  0  0  0  0  0  0  0
  -26.9287    1.1713   29.0083 C   0  0  0  0  0  0  0  0  0  0  0  0
  -25.7702    2.0341   28.6884 C   0  0  0  0  0  0  0  0  0  0  0  0
  -24.7141    1.4431   27.9188 C   0  0  0  0  0  0  0  0  0  0  0  0
  -24.8590    0.0783   27.5836 C   0  0  0  0  0  0  0  0  0  0  0  0
  -25.9647   -0.6606   27.9164 C   0  0  0  0  0  0  0  0  0  0  0  0
  -28.7025   -0.6427   30.0750 N   0  0  0  0  0  0  0  0  0  0  0  0
  -29.7976   -1.3633   30.5080 C   0  0  0  0  0  0  0  0  0  0  0  0
  -30.3289   -2.2310   29.7449 C   0  0  0  0  0  0  0  0  0  0  0  0
  -30.2290   -3.4732   30.1260 N   0  0  0  0  0  0  0  0  0  0  0  0
  -23.3459    2.3096   27.5174 Cl  0  0  0  0  0  0  0  0  0  0  0  0
  -30.5099   -0.8298   31.4466 O   0  0  0  0  0  0  0  0  0  0  0  0
  -29.1170   -4.0475   30.5718 C   0  0  0  0  0  0  0  0  0  0  0  0
  -31.3649   -4.4032   30.1853 C   0  0  0  0  0  0  0  0  0  0  0  0
  -28.0191   -3.7610   30.1639 O   0  0  0  0  0  0  0  0  0  0  0  0
  -29.1625   -5.3793   31.1137 N   0  0  0  0  0  0  0  0  0  0  0  0
  -30.2574   -6.0871   31.3599 C   0  0  0  0  0  0  0  0  0  0  0  0
  -31.4688   -5.5198   30.9393 C   0  0  0  0  0  0  0  0  0  0  0  0
  -30.1358   -7.2009   32.0953 N   0  0  0  0  0  0  0  0  0  0  0  0
  -29.6889   -7.2947   33.3531 C   0  0  0  0  0  0  0  0  0  0  0  0
  -30.4644   -8.4196   31.4436 C   0  0  0  0  0  0  0  0  0  0  0  0
  -30.3157   -9.6493   32.1816 C   0  0  0  0  0  0  0  0  0  0  0  0
  -29.9537   -8.2631   34.0235 C   0  0  0  0  0  0  0  0  0  0  0  0
  -30.0987   -9.5654   33.5311 C   0  0  0  0  0  0  0  0  0  0  0  0
  -32.5062   -3.8422   29.7822 F   0  0  0  0  0  0  0  0  0  0  0  0
  -25.6268    3.4487   29.0949 C   0  0  0  0  0  0  0  0  0  0  0  0
  -25.4542    3.6858   30.2551 O   0  0  0  0  0  0  0  0  0  0  0  0
  -25.7054    4.3221   28.1605 O   0  0  0  0  0  0  0  0  0  0  0  0
  1  2  1  0
  1  8  1  0
  8  9  1  0
  9 10  1  0
 10 11  1  0
  5 12  1  0
  9 13  2  0
 11 14  1  0
 11 15  1  0
 14 16  2  0
 14 17  1  0
 17 18  1  0
 15 19  1  0
 18 19  1  0
 18 20  1  0
 20 21  1  0
 20 22  1  0
 23 25  1  0
 24 25  1  0
 15 26  1  0
  4 27  1  0
 27 28  1  0
 27 29  2  0
 21 24  1  0
 23 22  1  0
  2  3  2  0
  3  4  1  0
  4  5  2  0
  5  6  1  0
  6  7  2  0
  7  2  1  0
M  END

$$$$
