No_3561-gen_results/8p0m/2024-11-26-14-13-15/
     RDKit          3D

 34 35  0  0  0  0  0  0  0  0999 V2000
  -28.0162   -0.8135   28.8779 C   0  0  0  0  0  0  0  0  0  0  0  0
  -27.0636   -0.1190   28.6079 C   0  0  0  0  0  0  0  0  0  0  0  0
  -26.9716    0.7139   27.5060 C   0  0  0  0  0  0  0  0  0  0  0  0
  -28.1053    0.7744   26.6421 C   0  0  0  0  0  0  0  0  0  0  0  0
  -29.2008    0.1044   27.0527 C   0  0  0  0  0  0  0  0  0  0  0  0
  -29.2096   -0.6029   28.1853 C   0  0  0  0  0  0  0  0  0  0  0  0
  -30.3044    0.2267   26.2604 O   0  0  0  0  0  0  0  0  0  0  0  0
  -25.8731   -0.1883   29.3485 F   0  0  0  0  0  0  0  0  0  0  0  0
  -28.0737   -1.8164   30.3266 Cl  0  0  0  0  0  0  0  0  0  0  0  0
  -27.9692    1.6540   25.4398 C   0  0  0  0  0  0  0  0  0  0  0  0
  -25.6663    1.3991   27.1188 C   0  0  0  0  0  0  0  0  0  0  0  0
  -25.1649    2.2950   28.0932 C   0  0  0  0  0  0  0  0  0  0  0  0
  -24.0380    2.5729   28.4262 C   0  0  0  0  0  0  0  0  0  0  0  0
  -26.2033    3.2281   28.7763 C   0  0  0  0  0  0  0  0  0  0  0  0
  -25.8213    4.1594   29.7012 C   0  0  0  0  0  0  0  0  0  0  0  0
  -22.9644    1.7041   27.7490 C   0  0  0  0  0  0  0  0  0  0  0  0
  -26.3977    4.7220   30.4912 C   0  0  0  0  0  0  0  0  0  0  0  0
  -27.5773    4.2932   30.9833 C   0  0  0  0  0  0  0  0  0  0  0  0
  -28.3153    3.3801   30.1134 C   0  0  0  0  0  0  0  0  0  0  0  0
  -27.5411    2.6970   29.1734 C   0  0  0  0  0  0  0  0  0  0  0  0
  -22.4721    0.5749   28.4562 C   0  0  0  0  0  0  0  0  0  0  0  0
  -23.4133   -0.4347   28.7856 C   0  0  0  0  0  0  0  0  0  0  0  0
  -22.7724   -1.5785   29.3935 C   0  0  0  0  0  0  0  0  0  0  0  0
  -23.6412   -2.5982   29.7564 N   0  0  0  0  0  0  0  0  0  0  0  0
  -29.6786    3.0028   30.4512 C   0  0  0  0  0  0  0  0  0  0  0  0
  -30.1102    1.9019   31.4467 Cl  0  0  0  0  0  0  0  0  0  0  0  0
  -30.6792    3.6445   29.5929 C   0  0  0  0  0  0  0  0  0  0  0  0
  -24.8719   -2.5260   29.0703 C   0  0  0  0  0  0  0  0  0  0  0  0
  -25.6908   -3.6367   29.5784 C   0  0  0  0  0  0  0  0  0  0  0  0
  -30.4036    0.1723   25.1185 C   0  0  0  0  0  0  0  0  0  0  0  0
  -30.3735    4.4434   28.8521 F   0  0  0  0  0  0  0  0  0  0  0  0
  -31.8348    3.1570   29.6989 F   0  0  0  0  0  0  0  0  0  0  0  0
  -25.2546   -4.6702   29.5765 O   0  0  0  0  0  0  0  0  0  0  0  0
  -26.9853   -3.4207   29.8632 O   0  0  0  0  0  0  0  0  0  0  0  0
  5  7  1  0
  2  8  1  0
  1  9  1  0
  4 10  1  0
  3 11  1  0
 11 12  1  0
 12 13  2  3
 12 14  1  0
 13 16  1  0
 16 21  1  0
 21 22  2  3
 22 23  1  0
 23 24  2  3
 19 25  1  0
 25 26  1  0
 25 27  1  0
 24 28  1  0
 28 29  1  0
  7 30  1  0
 27 31  1  0
 27 32  1  0
 29 33  1  0
 29 34  2  0
 14 15  2  0
 15 17  1  0
 17 18  2  0
 18 19  1  0
 19 20  2  0
 20 14  1  0
  1  2  2  0
  2  3  1  0
  3  4  2  0
  4  5  1  0
  5  6  2  0
  6  1  1  0
M  END

$$$$
