No_3075-gen_results/8p0m/2024-11-26-14-13-15/
     RDKit          3D

 24 25  0  0  0  0  0  0  0  0999 V2000
  -28.0162   -0.8135   28.8779 C   0  0  0  0  0  0  0  0  0  0  0  0
  -27.0636   -0.1189   28.6079 C   0  0  0  0  0  0  0  0  0  0  0  0
  -26.9716    0.7139   27.5060 C   0  0  0  0  0  0  0  0  0  0  0  0
  -28.1053    0.7744   26.6421 C   0  0  0  0  0  0  0  0  0  0  0  0
  -29.2041    0.1179   27.0477 C   0  0  0  0  0  0  0  0  0  0  0  0
  -29.2127   -0.6088   28.1281 C   0  0  0  0  0  0  0  0  0  0  0  0
  -25.6860    1.2756   27.3185 N   0  0  0  0  0  0  0  0  0  0  0  0
  -25.0510    1.9027   28.1959 C   0  0  0  0  0  0  0  0  0  0  0  0
  -24.3115    3.1233   27.7980 C   0  0  0  0  0  0  0  0  0  0  0  0
  -25.1053    1.2631   26.0301 C   0  0  0  0  0  0  0  0  0  0  0  0
  -24.0119    1.7400   25.9498 C   0  0  0  0  0  0  0  0  0  0  0  0
  -23.5575    2.9226   26.6225 C   0  0  0  0  0  0  0  0  0  0  0  0
  -30.5119    0.2001   26.3832 C   0  0  0  0  0  0  0  0  0  0  0  0
  -30.5720    0.2732   25.1385 N   0  0  0  0  0  0  0  0  0  0  0  0
  -31.5978    0.1428   26.9673 O   0  0  0  0  0  0  0  0  0  0  0  0
  -28.0482   -1.6804   30.1022 C   0  0  0  0  0  0  0  0  0  0  0  0
  -28.6578   -1.5584   31.0954 N   0  0  0  0  0  0  0  0  0  0  0  0
  -27.2903   -2.7517   29.9691 O   0  0  0  0  0  0  0  0  0  0  0  0
  -29.5363   -0.4404   31.4946 C   0  0  0  0  0  0  0  0  0  0  0  0
  -30.2723   -0.6033   32.6025 C   0  0  0  0  0  0  0  0  0  0  0  0
  -30.9100    0.3706   33.1550 C   0  0  0  0  0  0  0  0  0  0  0  0
  -31.6835    0.2461   34.3476 C   0  0  0  0  0  0  0  0  0  0  0  0
  -31.7556   -1.0128   34.8914 C   0  0  0  0  0  0  0  0  0  0  0  0
  -31.0995   -2.0772   34.3214 C   0  0  0  0  0  0  0  0  0  0  0  0
  3  7  1  0
  7  8  1  0
  7 10  1  0
  9 12  1  0
 11 12  1  0
  5 13  1  0
 13 14  1  0
 13 15  2  0
  1 16  1  0
 16 17  1  0
 16 18  2  0
 17 19  1  0
 19 20  2  3
 20 21  1  0
 21 22  1  0
 22 23  2  3
 23 24  1  0
  8  9  1  0
 11 10  1  0
  1  2  2  0
  2  3  1  0
  3  4  2  0
  4  5  1  0
  5  6  2  0
  6  1  1  0
M  END

$$$$
