No_3083-gen_results/8p0m/2024-11-26-14-13-15/
     RDKit          3D

 22 24  0  0  0  0  0  0  0  0999 V2000
  -28.0162   -0.8135   28.8779 C   0  0  0  0  0  0  0  0  0  0  0  0
  -28.4690   -0.7850   29.8287 C   0  0  0  0  0  0  0  0  0  0  0  0
  -26.5455   -0.8762   28.8500 C   0  0  0  0  0  0  0  0  0  0  0  0
  -25.8041   -1.0324   30.0571 C   0  0  0  0  0  0  0  0  0  0  0  0
  -24.3697   -1.0998   30.0718 C   0  0  0  0  0  0  0  0  0  0  0  0
  -27.9902   -1.0051   31.2092 C   0  0  0  0  0  0  0  0  0  0  0  0
  -26.4318   -1.0480   31.2503 C   0  0  0  0  0  0  0  0  0  0  0  0
  -23.7222   -1.3222   30.8206 C   0  0  0  0  0  0  0  0  0  0  0  0
  -22.1958   -1.2091   30.8664 C   0  0  0  0  0  0  0  0  0  0  0  0
  -21.6728   -0.8291   29.6449 C   0  0  0  0  0  0  0  0  0  0  0  0
  -23.7495   -0.6442   28.7600 C   0  0  0  0  0  0  0  0  0  0  0  0
  -22.4430   -0.4955   28.6373 C   0  0  0  0  0  0  0  0  0  0  0  0
  -30.0644   -0.6932   29.9242 C   0  0  0  0  0  0  0  0  0  0  0  0
  -30.5227   -0.2549   28.9658 O   0  0  0  0  0  0  0  0  0  0  0  0
  -30.7656   -1.0852   31.0210 N   0  0  0  0  0  0  0  0  0  0  0  0
  -32.1996   -0.9719   31.0372 C   0  0  0  0  0  0  0  0  0  0  0  0
  -32.7630   -1.6626   31.8521 C   0  0  0  0  0  0  0  0  0  0  0  0
  -32.7017   -2.6455   32.5342 Cl  0  0  0  0  0  0  0  0  0  0  0  0
  -34.1265   -1.0274   32.0118 F   0  0  0  0  0  0  0  0  0  0  0  0
  -25.8477   -0.7893   27.6900 N   0  0  0  0  0  0  0  0  0  0  0  0
  -24.6675   -0.4840   27.6438 C   0  0  0  0  0  0  0  0  0  0  0  0
  -24.1764    0.0465   26.5546 O   0  0  0  0  0  0  0  0  0  0  0  0
  4  5  1  0
  2 13  1  0
 13 14  2  0
 13 15  1  0
 15 16  1  0
 16 17  1  0
 17 18  1  0
 17 19  1  0
 11 21  1  0
 20 21  1  0
 21 22  2  0
  3 20  1  0
  1  2  2  0
  2  6  1  0
  6  7  2  0
  7  4  1  0
  4  3  2  0
  3  1  1  0
  5  8  2  0
  8  9  1  0
  9 10  2  0
 10 12  1  0
 12 11  2  0
 11  5  1  0
M  END

$$$$
