No_3507-gen_results/8p0m/2024-11-26-14-13-15/
     RDKit          3D

 23 25  0  0  0  0  0  0  0  0999 V2000
  -28.0162   -0.8135   28.8779 C   0  0  0  0  0  0  0  0  0  0  0  0
  -28.4690   -0.7850   29.8287 C   0  0  0  0  0  0  0  0  0  0  0  0
  -28.1960    0.3478   28.0550 C   0  0  0  0  0  0  0  0  0  0  0  0
  -29.0191    1.3501   28.3782 C   0  0  0  0  0  0  0  0  0  0  0  0
  -29.4107    0.1803   30.3782 C   0  0  0  0  0  0  0  0  0  0  0  0
  -29.6059    1.2495   29.6193 C   0  0  0  0  0  0  0  0  0  0  0  0
  -27.5401    0.3372   26.8421 F   0  0  0  0  0  0  0  0  0  0  0  0
  -30.0196   -0.0247   31.7541 C   0  0  0  0  0  0  0  0  0  0  0  0
  -30.1626   -1.0366   32.3138 C   0  0  0  0  0  0  0  0  0  0  0  0
  -30.8966   -1.1491   33.5527 C   0  0  0  0  0  0  0  0  0  0  0  0
  -31.3832    0.0058   34.1454 C   0  0  0  0  0  0  0  0  0  0  0  0
  -30.5808    1.2200   32.3751 C   0  0  0  0  0  0  0  0  0  0  0  0
  -31.2010    1.1735   33.4988 C   0  0  0  0  0  0  0  0  0  0  0  0
  -31.7378    2.4311   34.1069 C   0  0  0  0  0  0  0  0  0  0  0  0
  -31.9227    2.6472   35.2466 C   0  0  0  0  0  0  0  0  0  0  0  0
  -32.5092    3.8950   35.7767 C   0  0  0  0  0  0  0  0  0  0  0  0
  -32.8430    4.8558   34.8250 C   0  0  0  0  0  0  0  0  0  0  0  0
  -32.6142    4.6398   33.5153 C   0  0  0  0  0  0  0  0  0  0  0  0
  -32.0180    3.4219   33.0336 C   0  0  0  0  0  0  0  0  0  0  0  0
  -32.9116    5.6424   32.4724 C   0  0  0  0  0  0  0  0  0  0  0  0
  -32.9857    7.1563   32.6647 Cl  0  0  0  0  0  0  0  0  0  0  0  0
  -33.1946    5.1097   31.1380 C   0  0  0  0  0  0  0  0  0  0  0  0
  -33.0884    5.7245   30.2240 O   0  0  0  0  0  0  0  0  0  0  0  0
  3  7  1  0
  5  8  1  0
 13 14  1  0
 18 20  1  0
 20 21  1  0
 20 22  1  0
 22 23  2  0
 14 15  2  0
 15 16  1  0
 16 17  2  0
 17 18  1  0
 18 19  2  0
 19 14  1  0
  1  2  2  0
  2  5  1  0
  5  6  2  0
  6  4  1  0
  4  3  2  0
  3  1  1  0
  8  9  2  0
  9 10  1  0
 10 11  2  0
 11 13  1  0
 13 12  2  0
 12  8  1  0
M  END

$$$$
