No_3823-gen_results/8p0m/2024-11-26-14-13-15/
     RDKit          3D

 17 19  0  0  0  0  0  0  0  0999 V2000
  -28.0162   -0.8135   28.8779 C   0  0  0  0  0  0  0  0  0  0  0  0
  -28.4690   -0.7850   29.8287 C   0  0  0  0  0  0  0  0  0  0  0  0
  -28.1816    0.4277   28.1134 C   0  0  0  0  0  0  0  0  0  0  0  0
  -28.9841    1.4155   28.5154 C   0  0  0  0  0  0  0  0  0  0  0  0
  -29.3802    0.1384   30.4612 C   0  0  0  0  0  0  0  0  0  0  0  0
  -29.5415    1.2736   29.7242 C   0  0  0  0  0  0  0  0  0  0  0  0
  -27.5429    0.6374   26.7442 C   0  0  0  0  0  0  0  0  0  0  0  0
  -26.1537    0.5302   26.7496 C   0  0  0  0  0  0  0  0  0  0  0  0
  -25.3229    1.4531   27.3080 C   0  0  0  0  0  0  0  0  0  0  0  0
  -23.9306    1.2456   27.4851 C   0  0  0  0  0  0  0  0  0  0  0  0
  -23.0404    2.3160   27.6019 C   0  0  0  0  0  0  0  0  0  0  0  0
  -21.7389    1.9178   27.8131 N   0  0  0  0  0  0  0  0  0  0  0  0
  -27.9727    1.7861   26.0919 C   0  0  0  0  0  0  0  0  0  0  0  0
  -21.7354    0.5617   28.1846 C   0  0  0  0  0  0  0  0  0  0  0  0
  -23.1050    0.2193   28.0071 C   0  0  0  0  0  0  0  0  0  0  0  0
  -25.8409    2.7985   27.5460 C   0  0  0  0  0  0  0  0  0  0  0  0
  -27.2930    3.0001   26.7691 C   0  0  0  0  0  0  0  0  0  0  0  0
  3  7  1  0
  7  8  1  0
  8  9  1  0
  9 10  2  3
 10 11  1  0
 11 12  1  0
  7 13  1  0
 12 14  2  0
 10 15  1  0
 14 15  1  0
  9 16  1  0
 13 17  1  0
 16 17  1  0
  1  2  2  0
  2  5  1  0
  5  6  2  0
  6  4  1  0
  4  3  2  0
  3  1  1  0
M  END

$$$$
