No_3303-gen_results/8p0m/2024-11-26-14-13-15/
     RDKit          3D

 23 25  0  0  0  0  0  0  0  0999 V2000
  -28.0162   -0.8135   28.8779 C   0  0  0  0  0  0  0  0  0  0  0  0
  -27.0636   -0.1189   28.6079 C   0  0  0  0  0  0  0  0  0  0  0  0
  -26.8756    1.1325   28.9134 C   0  0  0  0  0  0  0  0  0  0  0  0
  -27.9014    1.8066   29.6436 C   0  0  0  0  0  0  0  0  0  0  0  0
  -29.0458   -0.2316   29.7181 C   0  0  0  0  0  0  0  0  0  0  0  0
  -27.7521    3.2005   30.0171 C   0  0  0  0  0  0  0  0  0  0  0  0
  -28.9510    1.0411   30.0482 C   0  0  0  0  0  0  0  0  0  0  0  0
  -27.2119    3.9647   29.4058 C   0  0  0  0  0  0  0  0  0  0  0  0
  -26.5065    3.6667   28.1219 C   0  0  0  0  0  0  0  0  0  0  0  0
  -26.1880    2.3469   27.9047 C   0  0  0  0  0  0  0  0  0  0  0  0
  -25.3219    1.8580   26.8554 C   0  0  0  0  0  0  0  0  0  0  0  0
  -23.9855    1.4872   27.3721 C   0  0  0  0  0  0  0  0  0  0  0  0
  -22.8435    2.2842   27.1769 C   0  0  0  0  0  0  0  0  0  0  0  0
  -21.5882    1.8628   27.6953 C   0  0  0  0  0  0  0  0  0  0  0  0
  -21.5039    0.6101   28.4500 C   0  0  0  0  0  0  0  0  0  0  0  0
  -22.6561   -0.1767   28.5992 C   0  0  0  0  0  0  0  0  0  0  0  0
  -23.8607    0.2743   28.1095 C   0  0  0  0  0  0  0  0  0  0  0  0
  -25.9144    0.9020   25.9535 C   0  0  0  0  0  0  0  0  0  0  0  0
  -25.0740    3.2026   26.0148 C   0  0  0  0  0  0  0  0  0  0  0  0
  -29.9931   -1.0981   30.1985 O   0  0  0  0  0  0  0  0  0  0  0  0
  -30.9179   -0.6254   30.9527 C   0  0  0  0  0  0  0  0  0  0  0  0
  -25.1194    0.0995   25.2002 C   0  0  0  0  0  0  0  0  0  0  0  0
  -27.2939    0.7993   25.7500 C   0  0  0  0  0  0  0  0  0  0  0  0
 10 11  1  0
 11 12  1  0
 11 18  1  0
 11 19  1  0
  5 20  1  0
 20 21  1  0
 18 22  2  0
 18 23  1  0
 12 13  2  0
 13 14  1  0
 14 15  2  0
 15 16  1  0
 16 17  2  0
 17 12  1  0
  4  6  2  0
  6  8  1  0
  8  9  2  0
  9 10  1  0
 10  3  2  0
  1  2  2  0
  2  3  1  0
  3  4  1  0
  4  7  1  0
  7  5  2  0
  5  1  1  0
M  END

$$$$
