No_3558-gen_results/8p0m/2024-11-26-14-13-15/
     RDKit          3D

 22 24  0  0  0  0  0  0  0  0999 V2000
  -28.0162   -0.8135   28.8779 C   0  0  0  0  0  0  0  0  0  0  0  0
  -28.4690   -0.7850   29.8287 C   0  0  0  0  0  0  0  0  0  0  0  0
  -26.5042   -0.7777   28.8766 C   0  0  0  0  0  0  0  0  0  0  0  0
  -25.6540   -0.6597   27.7191 C   0  0  0  0  0  0  0  0  0  0  0  0
  -27.9180   -0.9374   31.1824 C   0  0  0  0  0  0  0  0  0  0  0  0
  -26.5423   -0.9399   31.2606 C   0  0  0  0  0  0  0  0  0  0  0  0
  -25.7832   -0.8935   30.1201 C   0  0  0  0  0  0  0  0  0  0  0  0
  -24.3096   -0.3015   27.8531 C   0  0  0  0  0  0  0  0  0  0  0  0
  -23.6669   -0.4595   29.0986 C   0  0  0  0  0  0  0  0  0  0  0  0
  -24.3700   -0.6645   30.2027 C   0  0  0  0  0  0  0  0  0  0  0  0
  -22.1946   -0.2290   29.1314 C   0  0  0  0  0  0  0  0  0  0  0  0
  -21.2882    0.5666   28.7716 N   0  0  0  0  0  0  0  0  0  0  0  0
  -21.6569   -1.0701   30.0386 O   0  0  0  0  0  0  0  0  0  0  0  0
  -30.0656   -0.8827   29.8756 C   0  0  0  0  0  0  0  0  0  0  0  0
  -30.6916   -0.0581   30.6237 O   0  0  0  0  0  0  0  0  0  0  0  0
  -30.6409   -1.6153   29.0975 O   0  0  0  0  0  0  0  0  0  0  0  0
  -21.6133    1.5838   27.7638 C   0  0  0  0  0  0  0  0  0  0  0  0
  -21.4013    1.3886   26.4646 C   0  0  0  0  0  0  0  0  0  0  0  0
  -22.2699    2.1547   25.5436 C   0  0  0  0  0  0  0  0  0  0  0  0
  -23.3546    2.9355   26.1629 C   0  0  0  0  0  0  0  0  0  0  0  0
  -23.5464    3.0641   27.5308 C   0  0  0  0  0  0  0  0  0  0  0  0
  -22.7394    2.3228   28.2736 C   0  0  0  0  0  0  0  0  0  0  0  0
  9 11  1  0
 11 12  2  3
 11 13  1  0
  2 14  1  0
 14 15  1  0
 14 16  2  0
 12 17  1  0
 17 18  2  0
 18 19  1  0
 19 20  2  0
 20 21  1  0
 21 22  2  0
 22 17  1  0
  1  2  2  0
  2  5  1  0
  5  6  2  0
  6  7  1  0
  3  1  1  0
  3  4  2  0
  4  8  1  0
  8  9  2  0
  9 10  1  0
 10  7  2  0
  7  3  1  0
M  END

$$$$
