No_3268-gen_results/8p0m/2024-11-26-14-13-15/
     RDKit          3D

 34 38  0  0  0  0  0  0  0  0999 V2000
  -28.0162   -0.8135   28.8779 C   0  0  0  0  0  0  0  0  0  0  0  0
  -28.4690   -0.7850   29.8287 C   0  0  0  0  0  0  0  0  0  0  0  0
  -27.1356    0.2359   28.5352 C   0  0  0  0  0  0  0  0  0  0  0  0
  -26.8745    1.2825   29.3982 C   0  0  0  0  0  0  0  0  0  0  0  0
  -28.3613    0.1987   30.9244 C   0  0  0  0  0  0  0  0  0  0  0  0
  -27.5277    1.2234   30.6356 C   0  0  0  0  0  0  0  0  0  0  0  0
  -26.3987    0.2949   27.2279 C   0  0  0  0  0  0  0  0  0  0  0  0
  -25.0392    0.2356   27.3538 C   0  0  0  0  0  0  0  0  0  0  0  0
  -27.0287    0.3958   26.0087 C   0  0  0  0  0  0  0  0  0  0  0  0
  -28.3713    0.5360   25.8782 C   0  0  0  0  0  0  0  0  0  0  0  0
  -28.8860    0.5071   24.5687 C   0  0  0  0  0  0  0  0  0  0  0  0
  -30.2841    0.5712   24.3900 C   0  0  0  0  0  0  0  0  0  0  0  0
  -31.1106    0.6022   25.4906 C   0  0  0  0  0  0  0  0  0  0  0  0
  -30.6219    0.5694   26.7682 C   0  0  0  0  0  0  0  0  0  0  0  0
  -29.2916    0.5546   26.9892 C   0  0  0  0  0  0  0  0  0  0  0  0
  -26.1668    0.4589   24.8759 C   0  0  0  0  0  0  0  0  0  0  0  0
  -24.3948   -0.3287   28.4858 C   0  0  0  0  0  0  0  0  0  0  0  0
  -23.1212   -0.0263   28.8447 C   0  0  0  0  0  0  0  0  0  0  0  0
  -22.3503    0.8498   28.0196 C   0  0  0  0  0  0  0  0  0  0  0  0
  -22.9866    1.5106   26.9499 C   0  0  0  0  0  0  0  0  0  0  0  0
  -24.3121    1.3294   26.7184 C   0  0  0  0  0  0  0  0  0  0  0  0
  -31.6241    0.6747   27.8989 C   0  0  0  0  0  0  0  0  0  0  0  0
  -32.7638    1.2968   27.8903 C   0  0  0  0  0  0  0  0  0  0  0  0
  -33.6062    1.3739   29.0153 C   0  0  0  0  0  0  0  0  0  0  0  0
  -33.1975    0.7513   30.2113 C   0  0  0  0  0  0  0  0  0  0  0  0
  -32.0022    0.0607   30.2499 C   0  0  0  0  0  0  0  0  0  0  0  0
  -31.2038    0.0304   29.1969 C   0  0  0  0  0  0  0  0  0  0  0  0
  -21.1019    1.1644   28.3113 O   0  0  0  0  0  0  0  0  0  0  0  0
  -27.3664    2.3714   31.6066 C   0  0  0  0  0  0  0  0  0  0  0  0
  -26.6686    3.1672   31.4780 C   0  0  0  0  0  0  0  0  0  0  0  0
  -25.8910    3.4276   30.4471 C   0  0  0  0  0  0  0  0  0  0  0  0
  -25.9557    2.4075   29.2523 C   0  0  0  0  0  0  0  0  0  0  0  0
  -25.0230    4.4049   30.1577 O   0  0  0  0  0  0  0  0  0  0  0  0
  -34.7593    2.0287   28.9254 F   0  0  0  0  0  0  0  0  0  0  0  0
  3  7  1  0
  7  8  1  0
  7  9  1  0
  9 10  1  0
  9 16  1  0
 14 22  1  0
 19 28  1  0
 31 33  1  0
 24 34  1  0
  6 29  1  0
 29 30  2  0
 30 31  1  0
 31 32  2  0
 32  4  1  0
 22 23  2  0
 23 24  1  0
 24 25  2  0
 25 26  1  0
 26 27  2  0
 27 22  1  0
 10 11  2  0
 11 12  1  0
 12 13  2  0
 13 14  1  0
 14 15  2  0
 15 10  1  0
  8 17  2  0
 17 18  1  0
 18 19  2  0
 19 20  1  0
 20 21  2  0
 21  8  1  0
  1  2  2  0
  2  5  1  0
  5  6  2  0
  6  4  1  0
  4  3  2  0
  3  1  1  0
M  END

$$$$
