No_3692-gen_results/8p0m/2024-11-26-14-13-15/
     RDKit          3D

 28 31  0  0  0  0  0  0  0  0999 V2000
  -28.0162   -0.8135   28.8779 C   0  0  0  0  0  0  0  0  0  0  0  0
  -27.0636   -0.1190   28.6079 C   0  0  0  0  0  0  0  0  0  0  0  0
  -26.9287    1.1713   29.0083 C   0  0  0  0  0  0  0  0  0  0  0  0
  -27.9560    1.7411   29.7840 C   0  0  0  0  0  0  0  0  0  0  0  0
  -29.0569   -0.3271   29.7466 C   0  0  0  0  0  0  0  0  0  0  0  0
  -28.9828    0.9722   30.1516 C   0  0  0  0  0  0  0  0  0  0  0  0
  -25.9911   -0.6119   27.8566 O   0  0  0  0  0  0  0  0  0  0  0  0
  -24.6317   -0.3328   28.2530 C   0  0  0  0  0  0  0  0  0  0  0  0
  -23.9205   -1.2516   28.9900 C   0  0  0  0  0  0  0  0  0  0  0  0
  -24.0063    0.7971   27.6717 C   0  0  0  0  0  0  0  0  0  0  0  0
  -22.6700    1.0498   28.0433 C   0  0  0  0  0  0  0  0  0  0  0  0
  -21.9282    0.1942   28.7934 C   0  0  0  0  0  0  0  0  0  0  0  0
  -22.5765   -1.0373   29.2118 C   0  0  0  0  0  0  0  0  0  0  0  0
  -24.7073    1.8960   26.9370 C   0  0  0  0  0  0  0  0  0  0  0  0
  -24.8301    1.9390   25.8621 C   0  0  0  0  0  0  0  0  0  0  0  0
  -24.9774    3.1011   27.7699 C   0  0  0  0  0  0  0  0  0  0  0  0
  -25.3770    4.2850   27.2055 C   0  0  0  0  0  0  0  0  0  0  0  0
  -25.6796    5.3978   28.0128 C   0  0  0  0  0  0  0  0  0  0  0  0
  -25.9294    6.6732   27.3847 C   0  0  0  0  0  0  0  0  0  0  0  0
  -25.3370    6.8516   26.2045 C   0  0  0  0  0  0  0  0  0  0  0  0
  -24.5374    5.8798   25.6097 C   0  0  0  0  0  0  0  0  0  0  0  0
  -24.5641    4.5917   26.0789 C   0  0  0  0  0  0  0  0  0  0  0  0
  -26.3442    5.2031   29.3616 C   0  0  0  0  0  0  0  0  0  0  0  0
  -26.1407    6.2778   30.2953 C   0  0  0  0  0  0  0  0  0  0  0  0
  -26.7193    6.0122   31.4779 C   0  0  0  0  0  0  0  0  0  0  0  0
  -27.3502    4.8715   31.7616 C   0  0  0  0  0  0  0  0  0  0  0  0
  -27.4111    3.8815   30.8904 C   0  0  0  0  0  0  0  0  0  0  0  0
  -26.8581    4.0589   29.6424 C   0  0  0  0  0  0  0  0  0  0  0  0
  2  7  1  0
  7  8  1  0
 10 14  1  0
 14 15  2  0
 14 16  1  0
 18 23  1  0
 16 17  1  0
 17 18  1  0
 18 19  2  0
 19 20  1  0
 20 21  2  0
 21 22  1  0
 22 17  2  0
 23 24  2  0
 24 25  1  0
 25 26  2  0
 26 27  1  0
 27 28  2  0
 28 23  1  0
  1  2  2  0
  2  3  1  0
  3  4  2  0
  4  6  1  0
  6  5  2  0
  5  1  1  0
  8  9  2  0
  9 13  1  0
 13 12  2  0
 12 11  1  0
 11 10  2  0
 10  8  1  0
M  END

$$$$
