No_3270-gen_results/8p0m/2024-11-26-14-13-15/
     RDKit          3D

 27 29  0  0  0  0  0  0  0  0999 V2000
  -28.0162   -0.8135   28.8779 C   0  0  0  0  0  0  0  0  0  0  0  0
  -28.4690   -0.7850   29.8287 C   0  0  0  0  0  0  0  0  0  0  0  0
  -28.1960    0.3478   28.0550 C   0  0  0  0  0  0  0  0  0  0  0  0
  -29.0191    1.3501   28.3782 C   0  0  0  0  0  0  0  0  0  0  0  0
  -29.4107    0.1803   30.3782 C   0  0  0  0  0  0  0  0  0  0  0  0
  -29.6059    1.2495   29.6193 C   0  0  0  0  0  0  0  0  0  0  0  0
  -27.4598    0.3802   26.7091 C   0  0  0  0  0  0  0  0  0  0  0  0
  -26.4659    1.4084   26.5648 C   0  0  0  0  0  0  0  0  0  0  0  0
  -26.1328    2.2743   27.5481 C   0  0  0  0  0  0  0  0  0  0  0  0
  -25.0443    3.1709   27.3110 C   0  0  0  0  0  0  0  0  0  0  0  0
  -24.2528    2.9993   26.1703 C   0  0  0  0  0  0  0  0  0  0  0  0
  -24.4149    1.9905   25.3348 C   0  0  0  0  0  0  0  0  0  0  0  0
  -25.4977    1.1146   25.5111 C   0  0  0  0  0  0  0  0  0  0  0  0
  -30.5642    2.6375   29.9779 Cl  0  0  0  0  0  0  0  0  0  0  0  0
  -25.8371   -0.0218   24.7882 C   0  0  0  0  0  0  0  0  0  0  0  0
  -28.3200    0.5028   25.5700 C   0  0  0  0  0  0  0  0  0  0  0  0
  -27.5047    0.1649   24.4016 C   0  0  0  0  0  0  0  0  0  0  0  0
  -29.6284    0.6326   25.4744 C   0  0  0  0  0  0  0  0  0  0  0  0
  -30.1869    1.7612   25.5125 O   0  0  0  0  0  0  0  0  0  0  0  0
  -30.3819   -0.4649   25.4379 O   0  0  0  0  0  0  0  0  0  0  0  0
  -28.3451   -2.1790   30.9934 Cl  0  0  0  0  0  0  0  0  0  0  0  0
  -24.7952    4.5398   28.3498 Cl  0  0  0  0  0  0  0  0  0  0  0  0
  -31.7362   -0.4379   25.7111 C   0  0  0  0  0  0  0  0  0  0  0  0
  -32.1300   -1.6518   26.3217 C   0  0  0  0  0  0  0  0  0  0  0  0
  -33.0673   -1.8804   26.6882 O   0  0  0  0  0  0  0  0  0  0  0  0
  -31.2385   -2.6153   26.4394 O   0  0  0  0  0  0  0  0  0  0  0  0
  -32.4335    0.4654   25.5176 O   0  0  0  0  0  0  0  0  0  0  0  0
  3  7  1  0
  6 14  1  0
 16 18  1  0
 18 19  2  0
 18 20  1  0
  2 21  1  0
 10 22  1  0
 20 23  1  0
 23 24  1  0
 24 25  1  0
 24 26  2  0
 23 27  2  0
  8  9  2  0
  9 10  1  0
 10 11  2  0
 11 12  1  0
 12 13  2  0
  1  2  2  0
  2  5  1  0
  5  6  2  0
  6  4  1  0
  4  3  2  0
  3  1  1  0
  7  8  1  0
  8 13  1  0
 13 15  1  0
 15 17  2  0
 17 16  1  0
 16  7  2  0
M  END

$$$$
