No_307-gen_results/8p0m/2024-11-26-14-13-15/
     RDKit          3D

 18 17  0  0  0  0  0  0  0  0999 V2000
  -27.9505   -0.5786   29.0402 P   0  0  0  0  0  0  0  0  0  0  0  0
  -27.2401    0.0613   28.4283 O   0  0  0  0  0  0  0  0  0  0  0  0
  -27.2444   -1.9817   29.3768 O   0  0  0  0  0  0  0  0  0  0  0  0
  -28.1843   -0.0275   30.5202 O   0  0  0  0  0  0  0  0  0  0  0  0
  -29.3836   -0.9386   28.6565 O   0  0  0  0  0  0  0  0  0  0  0  0
  -27.1637    1.4277   28.3029 C   0  0  0  0  0  0  0  0  0  0  0  0
  -26.5095    2.1488   28.9531 C   0  0  0  0  0  0  0  0  0  0  0  0
  -25.2565    1.7192   29.5563 C   0  0  0  0  0  0  0  0  0  0  0  0
  -24.7543    0.5239   29.1180 C   0  0  0  0  0  0  0  0  0  0  0  0
  -23.4346    0.0961   29.8581 C   0  0  0  0  0  0  0  0  0  0  0  0
  -27.2765    2.8801   30.0066 O   0  0  0  0  0  0  0  0  0  0  0  0
  -22.8616   -1.3233   29.4783 Cl  0  0  0  0  0  0  0  0  0  0  0  0
  -24.2868    2.7798   29.3373 O   0  0  0  0  0  0  0  0  0  0  0  0
  -28.4827    1.6952   28.0050 F   0  0  0  0  0  0  0  0  0  0  0  0
  -24.0125    0.6772   27.8298 O   0  0  0  0  0  0  0  0  0  0  0  0
  -23.8330   -0.1677   31.2756 O   0  0  0  0  0  0  0  0  0  0  0  0
  -26.4934   -2.6796   29.2437 F   0  0  0  0  0  0  0  0  0  0  0  0
  -27.0315    2.9257   31.1570 F   0  0  0  0  0  0  0  0  0  0  0  0
  1  2  1  0
  1  3  1  0
  1  4  1  0
  1  5  2  0
  2  6  1  0
  6  7  1  0
  7  8  1  0
  8  9  1  0
  9 10  1  0
  7 11  1  0
 10 12  1  0
  8 13  1  0
  6 14  1  0
  9 15  1  0
 10 16  1  0
  3 17  1  0
 11 18  1  0
M  END

$$$$
