No_361-gen_results/8p0m/2024-11-26-14-13-15/
     RDKit          3D

 20 21  0  0  0  0  0  0  0  0999 V2000
  -28.0162   -0.8135   28.8779 C   0  0  0  0  0  0  0  0  0  0  0  0
  -27.0636   -0.1190   28.6079 C   0  0  0  0  0  0  0  0  0  0  0  0
  -25.7647   -0.3897   29.0360 C   0  0  0  0  0  0  0  0  0  0  0  0
  -25.5296   -1.5303   29.9014 C   0  0  0  0  0  0  0  0  0  0  0  0
  -26.6888   -2.2893   30.1810 C   0  0  0  0  0  0  0  0  0  0  0  0
  -27.8727   -1.9508   29.7373 C   0  0  0  0  0  0  0  0  0  0  0  0
  -28.9304   -2.7298   30.1154 O   0  0  0  0  0  0  0  0  0  0  0  0
  -24.5394    0.4211   28.7421 C   0  0  0  0  0  0  0  0  0  0  0  0
  -23.3459    0.1143   29.1690 C   0  0  0  0  0  0  0  0  0  0  0  0
  -23.1118   -1.0146   29.9166 C   0  0  0  0  0  0  0  0  0  0  0  0
  -24.2498   -1.8802   30.3244 C   0  0  0  0  0  0  0  0  0  0  0  0
  -22.1596    0.8897   28.7401 C   0  0  0  0  0  0  0  0  0  0  0  0
  -21.0391    0.7521   29.0918 O   0  0  0  0  0  0  0  0  0  0  0  0
  -22.3734    1.9956   27.9400 O   0  0  0  0  0  0  0  0  0  0  0  0
  -30.0638   -2.2151   30.5926 C   0  0  0  0  0  0  0  0  0  0  0  0
  -30.4616   -2.9057   31.7413 C   0  0  0  0  0  0  0  0  0  0  0  0
  -29.6207   -3.6847   32.4127 C   0  0  0  0  0  0  0  0  0  0  0  0
  -31.7512   -2.7681   32.1619 O   0  0  0  0  0  0  0  0  0  0  0  0
  -30.1258   -4.9936   32.6682 C   0  0  0  0  0  0  0  0  0  0  0  0
  -31.2420   -5.3367   31.9801 C   0  0  0  0  0  0  0  0  0  0  0  0
  6  7  1  0
  9 12  1  0
 12 13  2  0
 12 14  1  0
  7 15  1  0
 15 16  1  0
 16 17  1  0
 16 18  2  0
 17 19  1  0
 19 20  1  0
  1  2  2  0
  2  3  1  0
  4  5  1  0
  5  6  2  0
  6  1  1  0
  3  4  2  0
  4 11  1  0
 11 10  2  0
 10  9  1  0
  9  8  2  0
  8  3  1  0
M  END

$$$$
