No_3349-gen_results/8p0m/2024-11-26-14-13-15/
     RDKit          3D

 16 16  0  0  0  0  0  0  0  0999 V2000
  -28.0162   -0.8135   28.8779 C   0  0  0  0  0  0  0  0  0  0  0  0
  -27.0636   -0.1190   28.6079 C   0  0  0  0  0  0  0  0  0  0  0  0
  -25.7923   -0.4302   29.0761 C   0  0  0  0  0  0  0  0  0  0  0  0
  -25.5756   -1.5654   29.9363 C   0  0  0  0  0  0  0  0  0  0  0  0
  -26.7354   -2.3004   30.2173 C   0  0  0  0  0  0  0  0  0  0  0  0
  -27.9184   -1.9537   29.7629 C   0  0  0  0  0  0  0  0  0  0  0  0
  -29.0732   -2.7835   30.1783 C   0  0  0  0  0  0  0  0  0  0  0  0
  -30.2371   -2.2946   30.1694 N   0  0  0  0  0  0  0  0  0  0  0  0
  -28.8717   -3.9832   30.5613 O   0  0  0  0  0  0  0  0  0  0  0  0
  -31.4151   -3.0905   30.5077 C   0  0  0  0  0  0  0  0  0  0  0  0
  -24.5335    0.3450   28.7151 C   0  0  0  0  0  0  0  0  0  0  0  0
  -24.0930    1.3618   29.5043 C   0  0  0  0  0  0  0  0  0  0  0  0
  -22.9797    2.0233   29.1209 N   0  0  0  0  0  0  0  0  0  0  0  0
  -24.7067    1.7567   30.5603 O   0  0  0  0  0  0  0  0  0  0  0  0
  -32.4122   -2.8901   29.6914 C   0  0  0  0  0  0  0  0  0  0  0  0
  -33.1386   -2.1528   29.7114 C   0  0  0  0  0  0  0  0  0  0  0  0
  6  7  1  0
  7  8  1  0
  7  9  2  0
  8 10  1  0
  3 11  1  0
 11 12  1  0
 12 13  2  0
 12 14  1  0
 10 15  1  0
 15 16  2  0
  1  2  2  0
  2  3  1  0
  3  4  2  0
  4  5  1  0
  5  6  2  0
  6  1  1  0
M  END

$$$$
