No_302-gen_results/8p0m/2024-11-26-14-13-15/
     RDKit          3D

 22 24  0  0  0  0  0  0  0  0999 V2000
  -28.0162   -0.8135   28.8779 C   0  0  0  0  0  0  0  0  0  0  0  0
  -28.4690   -0.7850   29.8287 C   0  0  0  0  0  0  0  0  0  0  0  0
  -28.1816    0.4277   28.1134 C   0  0  0  0  0  0  0  0  0  0  0  0
  -27.4498    0.6435   26.8500 C   0  0  0  0  0  0  0  0  0  0  0  0
  -26.4529    0.9939   26.6681 C   0  0  0  0  0  0  0  0  0  0  0  0
  -25.1811    0.8624   26.8164 C   0  0  0  0  0  0  0  0  0  0  0  0
  -24.2187    1.6769   26.2404 C   0  0  0  0  0  0  0  0  0  0  0  0
  -29.4213    0.0902   30.4451 C   0  0  0  0  0  0  0  0  0  0  0  0
  -29.0456    1.3709   28.5903 C   0  0  0  0  0  0  0  0  0  0  0  0
  -29.6394    1.1968   29.7666 C   0  0  0  0  0  0  0  0  0  0  0  0
  -22.8117    1.6024   26.4182 C   0  0  0  0  0  0  0  0  0  0  0  0
  -22.3656    0.9539   27.5694 C   0  0  0  0  0  0  0  0  0  0  0  0
  -23.2857    0.1705   28.3277 C   0  0  0  0  0  0  0  0  0  0  0  0
  -24.6425    0.1287   28.0133 C   0  0  0  0  0  0  0  0  0  0  0  0
  -28.1911    0.0442   25.7907 O   0  0  0  0  0  0  0  0  0  0  0  0
  -26.5925    2.3976   25.8041 C   0  0  0  0  0  0  0  0  0  0  0  0
  -29.4088    0.4941   25.4595 C   0  0  0  0  0  0  0  0  0  0  0  0
  -29.5417    0.6317   24.1305 C   0  0  0  0  0  0  0  0  0  0  0  0
  -30.2662    1.5571   23.7898 C   0  0  0  0  0  0  0  0  0  0  0  0
  -31.2713    2.2327   24.4611 C   0  0  0  0  0  0  0  0  0  0  0  0
  -31.1630    1.9334   25.8762 C   0  0  0  0  0  0  0  0  0  0  0  0
  -30.3109    1.0661   26.3622 C   0  0  0  0  0  0  0  0  0  0  0  0
  3  4  1  0
  4  5  2  3
  5  6  1  0
  4 15  1  0
  5 16  1  0
 15 17  1  0
 17 18  2  0
 18 19  1  0
 19 20  2  0
 20 21  1  0
 21 22  2  0
 22 17  1  0
  1  2  2  0
  2  8  1  0
  8 10  2  0
 10  9  1  0
  9  3  2  0
  3  1  1  0
  6  7  2  0
  7 11  1  0
 11 12  2  0
 12 13  1  0
 13 14  2  0
 14  6  1  0
M  END

$$$$
