No_3590-gen_results/8p0m/2024-11-26-14-13-15/
     RDKit          3D

 34 38  0  0  0  0  0  0  0  0999 V2000
  -28.0162   -0.8135   28.8779 C   0  0  0  0  0  0  0  0  0  0  0  0
  -27.0636   -0.1189   28.6079 C   0  0  0  0  0  0  0  0  0  0  0  0
  -26.9287    1.1713   29.0083 C   0  0  0  0  0  0  0  0  0  0  0  0
  -27.9560    1.7411   29.7840 C   0  0  0  0  0  0  0  0  0  0  0  0
  -29.0569   -0.3271   29.7466 C   0  0  0  0  0  0  0  0  0  0  0  0
  -28.9828    0.9722   30.1516 C   0  0  0  0  0  0  0  0  0  0  0  0
  -25.7352   -0.7297   27.6631 Cl  0  0  0  0  0  0  0  0  0  0  0  0
  -30.2478    1.5902   31.1508 Cl  0  0  0  0  0  0  0  0  0  0  0  0
  -25.7492    2.0286   28.5730 C   0  0  0  0  0  0  0  0  0  0  0  0
  -24.5982    1.8259   29.3257 C   0  0  0  0  0  0  0  0  0  0  0  0
  -24.4016    1.1960   30.5478 C   0  0  0  0  0  0  0  0  0  0  0  0
  -25.2949    1.4304   31.5827 C   0  0  0  0  0  0  0  0  0  0  0  0
  -25.5377    0.9631   32.5885 C   0  0  0  0  0  0  0  0  0  0  0  0
  -26.3677    1.4413   33.7278 C   0  0  0  0  0  0  0  0  0  0  0  0
  -26.8987    0.7027   34.7407 C   0  0  0  0  0  0  0  0  0  0  0  0
  -25.1277   -0.4754   32.9131 C   0  0  0  0  0  0  0  0  0  0  0  0
  -26.3615   -0.5530   34.9470 C   0  0  0  0  0  0  0  0  0  0  0  0
  -25.5223   -1.1110   34.0683 N   0  0  0  0  0  0  0  0  0  0  0  0
  -25.7180    2.9484   31.6360 C   0  0  0  0  0  0  0  0  0  0  0  0
  -26.4264    3.5397   32.6655 C   0  0  0  0  0  0  0  0  0  0  0  0
  -26.8247    2.8044   33.6036 C   0  0  0  0  0  0  0  0  0  0  0  0
  -24.3123   -1.0679   32.1983 O   0  0  0  0  0  0  0  0  0  0  0  0
  -25.9226    2.9181   27.5635 C   0  0  0  0  0  0  0  0  0  0  0  0
  -26.2546    4.0808   27.7344 C   0  0  0  0  0  0  0  0  0  0  0  0
  -26.3069    5.0889   26.6607 C   0  0  0  0  0  0  0  0  0  0  0  0
  -25.7510    2.4344   26.2417 C   0  0  0  0  0  0  0  0  0  0  0  0
  -26.6170    6.4199   26.9857 C   0  0  0  0  0  0  0  0  0  0  0  0
  -26.2450    7.3784   26.3357 C   0  0  0  0  0  0  0  0  0  0  0  0
  -26.6925    8.7757   26.5999 C   0  0  0  0  0  0  0  0  0  0  0  0
  -27.6379    8.9968   27.5828 C   0  0  0  0  0  0  0  0  0  0  0  0
  -27.6670    6.7168   27.9911 C   0  0  0  0  0  0  0  0  0  0  0  0
  -28.1586    7.9381   28.2252 C   0  0  0  0  0  0  0  0  0  0  0  0
  -25.9891    4.5708   25.4937 C   0  0  0  0  0  0  0  0  0  0  0  0
  -25.7424    3.2487   25.2770 C   0  0  0  0  0  0  0  0  0  0  0  0
  2  7  1  0
  6  8  1  0
  3  9  1  0
  9 10  2  3
 10 11  1  0
 11 12  1  0
 13 16  1  0
 15 17  1  0
 16 18  1  0
 17 18  1  0
 16 22  2  0
  9 23  1  0
 25 27  1  0
 14 15  1  0
  1  2  2  0
  2  3  1  0
  3  4  2  0
  4  6  1  0
  6  5  2  0
  5  1  1  0
 23 24  2  0
 24 25  1  0
 25 33  2  0
 33 34  1  0
 34 26  2  0
 26 23  1  0
 12 13  1  0
 13 14  2  0
 14 21  1  0
 21 20  2  0
 20 19  1  0
 19 12  2  0
 27 28  2  0
 28 29  1  0
 29 30  2  0
 30 32  1  0
 32 31  2  0
 31 27  1  0
M  END

$$$$
