No_3697-gen_results/8p0m/2024-11-26-14-13-15/
     RDKit          3D

 24 26  0  0  0  0  0  0  0  0999 V2000
  -28.0162   -0.8135   28.8779 C   0  0  0  0  0  0  0  0  0  0  0  0
  -28.4690   -0.7850   29.8287 C   0  0  0  0  0  0  0  0  0  0  0  0
  -26.5042   -0.7777   28.8766 C   0  0  0  0  0  0  0  0  0  0  0  0
  -25.8103   -0.8531   30.1028 C   0  0  0  0  0  0  0  0  0  0  0  0
  -27.9906   -0.8916   31.2257 C   0  0  0  0  0  0  0  0  0  0  0  0
  -26.6042   -0.8676   31.2652 C   0  0  0  0  0  0  0  0  0  0  0  0
  -24.3894   -0.8049   30.1638 C   0  0  0  0  0  0  0  0  0  0  0  0
  -23.8172    0.4762   29.9117 C   0  0  0  0  0  0  0  0  0  0  0  0
  -22.5010    0.5449   29.4097 C   0  0  0  0  0  0  0  0  0  0  0  0
  -21.7696   -0.6524   29.2129 C   0  0  0  0  0  0  0  0  0  0  0  0
  -23.6939   -1.8206   29.2518 C   0  0  0  0  0  0  0  0  0  0  0  0
  -22.3271   -1.7235   29.1652 N   0  0  0  0  0  0  0  0  0  0  0  0
  -23.8472   -1.2619   31.6585 C   0  0  0  0  0  0  0  0  0  0  0  0
  -24.4306    1.7362   30.3423 C   0  0  0  0  0  0  0  0  0  0  0  0
  -24.9117    2.4961   29.4288 O   0  0  0  0  0  0  0  0  0  0  0  0
  -24.5512    2.0076   31.6251 O   0  0  0  0  0  0  0  0  0  0  0  0
  -30.0778   -0.8397   29.8057 C   0  0  0  0  0  0  0  0  0  0  0  0
  -30.5043   -0.4029   28.8412 O   0  0  0  0  0  0  0  0  0  0  0  0
  -30.7565   -1.2584   30.7913 O   0  0  0  0  0  0  0  0  0  0  0  0
  -24.9461    2.4084   28.2045 C   0  0  0  0  0  0  0  0  0  0  0  0
  -25.6894    1.9531   27.3880 C   0  0  0  0  0  0  0  0  0  0  0  0
  -25.4920    1.8842   26.0137 C   0  0  0  0  0  0  0  0  0  0  0  0
  -24.2437    2.4525   25.5615 C   0  0  0  0  0  0  0  0  0  0  0  0
  -23.7440    2.9354   27.3628 C   0  0  0  0  0  0  0  0  0  0  0  0
  4  7  1  0
  7  8  1  0
  9 10  1  0
  7 11  1  0
 11 12  1  0
  7 13  1  0
  8 14  1  0
 14 15  1  0
 14 16  2  0
  2 17  1  0
 17 18  2  0
 17 19  1  0
 15 20  1  0
 20 21  2  0
 21 22  1  0
 22 23  2  0
 20 24  1  0
 23 24  1  0
  8  9  1  0
 10 12  1  0
  1  2  2  0
  2  5  1  0
  5  6  2  0
  6  4  1  0
  4  3  2  0
  3  1  1  0
M  END

$$$$
