No_337-gen_results/8p0m/2024-11-26-14-13-15/
     RDKit          3D

 27 29  0  0  0  0  0  0  0  0999 V2000
  -28.0162   -0.8135   28.8779 C   0  0  0  0  0  0  0  0  0  0  0  0
  -28.4690   -0.7850   29.8287 C   0  0  0  0  0  0  0  0  0  0  0  0
  -27.0871    0.2903   28.6377 C   0  0  0  0  0  0  0  0  0  0  0  0
  -26.0239    0.3644   29.2526 C   0  0  0  0  0  0  0  0  0  0  0  0
  -26.2460    0.4334   30.7986 C   0  0  0  0  0  0  0  0  0  0  0  0
  -29.4930   -1.6212   30.3207 N   0  0  0  0  0  0  0  0  0  0  0  0
  -27.6694   -0.4672   31.2217 C   0  0  0  0  0  0  0  0  0  0  0  0
  -30.7754   -1.3768   29.9564 C   0  0  0  0  0  0  0  0  0  0  0  0
  -30.9035   -0.3817   29.3263 O   0  0  0  0  0  0  0  0  0  0  0  0
  -31.8024   -2.3324   30.3367 C   0  0  0  0  0  0  0  0  0  0  0  0
  -29.2317   -2.9027   31.1588 C   0  0  0  0  0  0  0  0  0  0  0  0
  -32.9064   -2.0723   29.9657 O   0  0  0  0  0  0  0  0  0  0  0  0
  -31.5282   -3.4210   31.0645 N   0  0  0  0  0  0  0  0  0  0  0  0
  -30.2120   -3.7147   31.5232 C   0  0  0  0  0  0  0  0  0  0  0  0
  -26.9692    0.7126   27.1580 C   0  0  0  0  0  0  0  0  0  0  0  0
  -25.7826    0.9162   26.5822 C   0  0  0  0  0  0  0  0  0  0  0  0
  -25.5265    1.5739   25.4878 C   0  0  0  0  0  0  0  0  0  0  0  0
  -28.1005    0.9474   26.3200 C   0  0  0  0  0  0  0  0  0  0  0  0
  -27.9539    1.4899   25.0885 C   0  0  0  0  0  0  0  0  0  0  0  0
  -26.6502    1.7487   24.6211 C   0  0  0  0  0  0  0  0  0  0  0  0
  -25.0831   -0.0453   31.5554 C   0  0  0  0  0  0  0  0  0  0  0  0
  -26.6531    1.9077   31.1507 C   0  0  0  0  0  0  0  0  0  0  0  0
  -25.7808    2.5752   31.5687 C   0  0  0  0  0  0  0  0  0  0  0  0
  -25.2034    3.4129   30.8280 F   0  0  0  0  0  0  0  0  0  0  0  0
  -26.1779    3.3807   32.6535 F   0  0  0  0  0  0  0  0  0  0  0  0
  -24.6721    1.8984   32.3046 F   0  0  0  0  0  0  0  0  0  0  0  0
  -24.5730   -1.3404   31.4838 C   0  0  0  0  0  0  0  0  0  0  0  0
  1  2  1  0
  1  3  1  0
  3  4  1  0
  4  5  1  0
  2  6  1  0
  2  7  1  0
  5  7  1  0
  6  8  1  0
  8  9  2  0
  8 10  1  0
  6 11  1  0
 10 12  2  0
 10 13  1  0
  3 15  1  0
  5 21  1  0
  5 22  1  0
 22 23  1  0
 23 24  1  0
 23 25  1  0
 23 26  1  0
 21 27  1  0
 13 14  1  0
 14 11  1  0
 15 16  2  0
 16 17  1  0
 17 20  2  0
 20 19  1  0
 19 18  2  0
 18 15  1  0
M  END

$$$$
