No_3672-gen_results/8p0m/2024-11-26-14-13-15/
     RDKit          3D

 11 11  0  0  0  0  0  0  0  0999 V2000
  -28.0727   -1.2542   28.5316 F   0  0  0  0  0  0  0  0  0  0  0  0
  -27.3591   -0.3792   28.7224 C   0  0  0  0  0  0  0  0  0  0  0  0
  -27.7576    0.4972   29.4008 F   0  0  0  0  0  0  0  0  0  0  0  0
  -26.7330    0.0958   27.4286 C   0  0  0  0  0  0  0  0  0  0  0  0
  -26.2524   -0.9752   29.3977 F   0  0  0  0  0  0  0  0  0  0  0  0
  -25.3766    0.4068   27.4015 C   0  0  0  0  0  0  0  0  0  0  0  0
  -24.7467    1.2807   26.4249 C   0  0  0  0  0  0  0  0  0  0  0  0
  -23.3585    1.5669   26.5601 C   0  0  0  0  0  0  0  0  0  0  0  0
  -22.5786    1.0420   27.5992 C   0  0  0  0  0  0  0  0  0  0  0  0
  -23.2112    0.1529   28.5133 C   0  0  0  0  0  0  0  0  0  0  0  0
  -24.5470   -0.1642   28.4114 C   0  0  0  0  0  0  0  0  0  0  0  0
  1  2  1  0
  2  3  1  0
  2  4  1  0
  2  5  1  0
  4  6  1  0
  6  7  2  0
  7  8  1  0
  8  9  2  0
  9 10  1  0
 10 11  2  0
 11  6  1  0
M  END

$$$$
