No_3509-gen_results/8p0m/2024-11-26-14-13-15/
     RDKit          3D

 35 38  0  0  0  0  0  0  0  0999 V2000
  -28.0162   -0.8135   28.8779 C   0  0  0  0  0  0  0  0  0  0  0  0
  -28.4690   -0.7850   29.8287 C   0  0  0  0  0  0  0  0  0  0  0  0
  -26.5042   -0.7777   28.8766 C   0  0  0  0  0  0  0  0  0  0  0  0
  -25.8103   -0.8531   30.1028 C   0  0  0  0  0  0  0  0  0  0  0  0
  -27.9906   -0.8916   31.2257 C   0  0  0  0  0  0  0  0  0  0  0  0
  -26.6042   -0.8676   31.2652 C   0  0  0  0  0  0  0  0  0  0  0  0
  -30.0739   -0.8360   29.8615 C   0  0  0  0  0  0  0  0  0  0  0  0
  -30.5608   -0.4417   28.9417 O   0  0  0  0  0  0  0  0  0  0  0  0
  -30.7428   -1.0431   31.0560 N   0  0  0  0  0  0  0  0  0  0  0  0
  -31.7775   -1.2990   31.2174 C   0  0  0  0  0  0  0  0  0  0  0  0
  -32.7420   -1.4178   30.7269 C   0  0  0  0  0  0  0  0  0  0  0  0
  -34.1082   -1.7805   31.1302 C   0  0  0  0  0  0  0  0  0  0  0  0
  -34.2037   -2.0233   32.5085 C   0  0  0  0  0  0  0  0  0  0  0  0
  -33.1246   -1.9433   33.3171 C   0  0  0  0  0  0  0  0  0  0  0  0
  -31.8817   -1.5942   32.8581 C   0  0  0  0  0  0  0  0  0  0  0  0
  -35.5531   -2.3778   33.0002 C   0  0  0  0  0  0  0  0  0  0  0  0
  -35.7931   -2.2467   34.1606 O   0  0  0  0  0  0  0  0  0  0  0  0
  -36.4867   -2.5582   32.0933 N   0  0  0  0  0  0  0  0  0  0  0  0
  -37.8287   -2.8993   32.4534 C   0  0  0  0  0  0  0  0  0  0  0  0
  -38.6517   -3.0699   31.5498 C   0  0  0  0  0  0  0  0  0  0  0  0
  -40.0117   -3.3520   31.8449 C   0  0  0  0  0  0  0  0  0  0  0  0
  -40.4082   -3.4676   33.2250 C   0  0  0  0  0  0  0  0  0  0  0  0
  -39.4127   -3.2652   34.1684 C   0  0  0  0  0  0  0  0  0  0  0  0
  -38.1401   -2.9607   33.8524 C   0  0  0  0  0  0  0  0  0  0  0  0
  -41.7830   -3.7857   33.5195 C   0  0  0  0  0  0  0  0  0  0  0  0
  -42.6688   -4.0663   32.9005 O   0  0  0  0  0  0  0  0  0  0  0  0
  -42.0123   -3.7155   34.9660 N   0  0  0  0  0  0  0  0  0  0  0  0
  -43.0520   -3.9060   35.5199 C   0  0  0  0  0  0  0  0  0  0  0  0
  -44.1298   -3.8979   35.4226 C   0  0  0  0  0  0  0  0  0  0  0  0
  -45.2399   -4.1552   36.2877 C   0  0  0  0  0  0  0  0  0  0  0  0
  -44.8767   -4.4452   37.6164 C   0  0  0  0  0  0  0  0  0  0  0  0
  -43.5692   -4.5115   37.9611 C   0  0  0  0  0  0  0  0  0  0  0  0
  -42.5612   -4.2118   37.0807 C   0  0  0  0  0  0  0  0  0  0  0  0
  -46.1354   -4.7655   38.7272 Cl  0  0  0  0  0  0  0  0  0  0  0  0
  -24.3705   -0.8004   30.1475 C   0  0  0  0  0  0  0  0  0  0  0  0
  2  7  1  0
  7  8  2  0
  7  9  1  0
  9 10  1  0
 13 16  1  0
 16 17  2  0
 16 18  1  0
 18 19  1  0
 22 25  1  0
 25 26  2  0
 25 27  1  0
 27 28  1  0
 31 34  1  0
  4 35  1  0
 28 29  2  0
 29 30  1  0
 30 31  2  0
 31 32  1  0
 32 33  2  0
 33 28  1  0
 19 20  2  0
 20 21  1  0
 21 22  2  0
 22 23  1  0
 23 24  2  0
 24 19  1  0
  1  2  2  0
  2  5  1  0
  5  6  2  0
  6  4  1  0
  4  3  2  0
  3  1  1  0
 10 11  2  0
 11 12  1  0
 12 13  2  0
 13 14  1  0
 14 15  2  0
 15 10  1  0
M  END

$$$$
