No_3468-gen_results/8p0m/2024-11-26-14-13-15/
     RDKit          3D

 26 28  0  0  0  0  0  0  0  0999 V2000
  -28.0162   -0.8135   28.8779 C   0  0  0  0  0  0  0  0  0  0  0  0
  -28.4690   -0.7850   29.8287 C   0  0  0  0  0  0  0  0  0  0  0  0
  -27.1356    0.2359   28.5352 C   0  0  0  0  0  0  0  0  0  0  0  0
  -26.8050    1.0509   29.2763 C   0  0  0  0  0  0  0  0  0  0  0  0
  -28.2372    0.1503   30.9300 C   0  0  0  0  0  0  0  0  0  0  0  0
  -27.3522    1.1239   30.6071 C   0  0  0  0  0  0  0  0  0  0  0  0
  -26.4705    0.1962   27.1308 C   0  0  0  0  0  0  0  0  0  0  0  0
  -25.5412   -0.5658   27.0554 F   0  0  0  0  0  0  0  0  0  0  0  0
  -25.9631    1.4520   26.7568 F   0  0  0  0  0  0  0  0  0  0  0  0
  -27.4270    0.0124   26.1154 F   0  0  0  0  0  0  0  0  0  0  0  0
  -29.4398   -1.9643   30.3613 C   0  0  0  0  0  0  0  0  0  0  0  0
  -29.1246   -3.1004   30.3652 O   0  0  0  0  0  0  0  0  0  0  0  0
  -30.4417   -1.6167   31.1992 N   0  0  0  0  0  0  0  0  0  0  0  0
  -31.3290   -2.6113   31.7307 C   0  0  0  0  0  0  0  0  0  0  0  0
  -32.2654   -3.1791   30.8544 C   0  0  0  0  0  0  0  0  0  0  0  0
  -32.6446   -4.2899   30.9135 C   0  0  0  0  0  0  0  0  0  0  0  0
  -32.4117   -5.1319   32.1711 C   0  0  0  0  0  0  0  0  0  0  0  0
  -31.5018   -4.5875   33.0944 C   0  0  0  0  0  0  0  0  0  0  0  0
  -30.8295   -3.3319   32.8366 C   0  0  0  0  0  0  0  0  0  0  0  0
  -29.8415   -2.8345   33.7407 C   0  0  0  0  0  0  0  0  0  0  0  0
  -29.1160   -1.7768   33.5430 C   0  0  0  0  0  0  0  0  0  0  0  0
  -28.2168   -1.2955   34.5175 C   0  0  0  0  0  0  0  0  0  0  0  0
  -28.0667   -1.9411   35.7188 C   0  0  0  0  0  0  0  0  0  0  0  0
  -28.8252   -3.1081   35.9728 C   0  0  0  0  0  0  0  0  0  0  0  0
  -29.7280   -3.5363   35.0194 C   0  0  0  0  0  0  0  0  0  0  0  0
  -27.2427    0.1223   34.2756 Cl  0  0  0  0  0  0  0  0  0  0  0  0
  3  7  1  0
  7  8  1  0
  7  9  1  0
  7 10  1  0
  2 11  1  0
 11 12  2  0
 11 13  1  0
 13 14  1  0
 19 20  1  0
 22 26  1  0
 14 15  2  0
 15 16  1  0
 16 17  2  0
 17 18  1  0
 18 19  2  0
 19 14  1  0
  1  2  2  0
  2  5  1  0
  5  6  2  0
  6  4  1  0
  4  3  2  0
  3  1  1  0
 20 21  2  0
 21 22  1  0
 22 23  2  0
 23 24  1  0
 24 25  2  0
 25 20  1  0
M  END

$$$$
