No_3259-gen_results/8p0m/2024-11-26-14-13-15/
     RDKit          3D

 29 31  0  0  0  0  0  0  0  0999 V2000
  -28.0162   -0.8135   28.8779 C   0  0  0  0  0  0  0  0  0  0  0  0
  -28.4690   -0.7850   29.8287 C   0  0  0  0  0  0  0  0  0  0  0  0
  -27.1356    0.2359   28.5352 C   0  0  0  0  0  0  0  0  0  0  0  0
  -26.8745    1.2825   29.3982 C   0  0  0  0  0  0  0  0  0  0  0  0
  -28.3613    0.1987   30.9244 C   0  0  0  0  0  0  0  0  0  0  0  0
  -27.5277    1.2234   30.6356 C   0  0  0  0  0  0  0  0  0  0  0  0
  -26.3987    0.2949   27.2279 C   0  0  0  0  0  0  0  0  0  0  0  0
  -25.0392    0.2356   27.3538 C   0  0  0  0  0  0  0  0  0  0  0  0
  -27.0287    0.3958   26.0087 C   0  0  0  0  0  0  0  0  0  0  0  0
  -28.3713    0.5360   25.8782 C   0  0  0  0  0  0  0  0  0  0  0  0
  -29.1580    0.8966   26.9253 C   0  0  0  0  0  0  0  0  0  0  0  0
  -30.5977    1.1279   26.5683 C   0  0  0  0  0  0  0  0  0  0  0  0
  -30.9538    0.9813   25.2767 C   0  0  0  0  0  0  0  0  0  0  0  0
  -28.9522    0.5375   24.5882 C   0  0  0  0  0  0  0  0  0  0  0  0
  -30.1936    0.7615   24.2798 C   0  0  0  0  0  0  0  0  0  0  0  0
  -26.1597    0.3334   24.8719 C   0  0  0  0  0  0  0  0  0  0  0  0
  -24.2023    1.2576   26.9767 C   0  0  0  0  0  0  0  0  0  0  0  0
  -24.1012    1.5341   25.4937 C   0  0  0  0  0  0  0  0  0  0  0  0
  -25.1035    1.3377   24.6096 C   0  0  0  0  0  0  0  0  0  0  0  0
  -22.9635    2.4366   25.2187 C   0  0  0  0  0  0  0  0  0  0  0  0
  -31.5848    1.4677   27.6843 C   0  0  0  0  0  0  0  0  0  0  0  0
  -32.0544    0.6016   28.3527 O   0  0  0  0  0  0  0  0  0  0  0  0
  -31.4523    2.7328   28.1376 O   0  0  0  0  0  0  0  0  0  0  0  0
  -29.5000   -1.9067   30.3385 C   0  0  0  0  0  0  0  0  0  0  0  0
  -30.6855   -1.7560   30.1830 O   0  0  0  0  0  0  0  0  0  0  0  0
  -29.0567   -2.7762   31.1489 O   0  0  0  0  0  0  0  0  0  0  0  0
  -23.0634    1.6569   27.7884 C   0  0  0  0  0  0  0  0  0  0  0  0
  -23.1905    1.6377   29.1133 N   0  0  0  0  0  0  0  0  0  0  0  0
  -22.0362    2.2140   27.3144 O   0  0  0  0  0  0  0  0  0  0  0  0
  3  7  1  0
  7  8  1  0
  7  9  1  0
  9 10  1  0
  9 16  1  0
  8 17  2  0
 17 18  1  0
 16 19  1  0
 18 19  1  0
 18 20  1  0
 12 21  1  0
 21 22  2  0
 21 23  1  0
  2 24  1  0
 24 25  1  0
 24 26  2  0
 17 27  1  0
 27 28  1  0
 27 29  2  0
 10 11  2  0
 11 12  1  0
 12 13  2  0
 13 15  1  0
 15 14  2  0
 14 10  1  0
  1  2  2  0
  2  5  1  0
  5  6  2  0
  6  4  1  0
  4  3  2  0
  3  1  1  0
M  END

$$$$
