No_3941-gen_results/8p0m/2024-11-26-14-13-15/
     RDKit          3D

 16 17  0  0  0  0  0  0  0  0999 V2000
  -28.0162   -0.8135   28.8779 C   0  0  0  0  0  0  0  0  0  0  0  0
  -28.4690   -0.7850   29.8287 C   0  0  0  0  0  0  0  0  0  0  0  0
  -28.1816    0.4277   28.1134 C   0  0  0  0  0  0  0  0  0  0  0  0
  -29.1844    0.4167   27.2947 O   0  0  0  0  0  0  0  0  0  0  0  0
  -27.1460    1.3475   27.9100 N   0  0  0  0  0  0  0  0  0  0  0  0
  -25.9892    1.3553   28.7038 C   0  0  0  0  0  0  0  0  0  0  0  0
  -24.9691    2.2172   28.1780 C   0  0  0  0  0  0  0  0  0  0  0  0
  -23.7708    2.3072   28.8656 C   0  0  0  0  0  0  0  0  0  0  0  0
  -23.5280    1.4574   29.9768 C   0  0  0  0  0  0  0  0  0  0  0  0
  -24.5146    0.6441   30.4518 C   0  0  0  0  0  0  0  0  0  0  0  0
  -25.7078    0.5583   29.7681 C   0  0  0  0  0  0  0  0  0  0  0  0
  -28.3070   -1.9503   30.8474 C   0  0  0  0  0  0  0  0  0  0  0  0
  -27.5426   -3.0401   30.3561 C   0  0  0  0  0  0  0  0  0  0  0  0
  -26.6218   -2.8297   29.3668 C   0  0  0  0  0  0  0  0  0  0  0  0
  -26.8265   -1.6404   28.5907 C   0  0  0  0  0  0  0  0  0  0  0  0
  -25.1398    3.0737   27.0181 C   0  0  0  0  0  0  0  0  0  0  0  0
  1  3  1  0
  3  4  2  0
  3  5  1  0
  5  6  1  0
  7 16  1  0
  6  7  2  0
  7  8  1  0
  8  9  2  0
  9 10  1  0
 10 11  2  0
 11  6  1  0
  1  2  2  0
  2 12  1  0
 12 13  2  0
 13 14  1  0
 14 15  2  0
 15  1  1  0
M  END

$$$$
