No_3230-gen_results/8p0m/2024-11-26-14-13-15/
     RDKit          3D

 24 26  0  0  0  0  0  0  0  0999 V2000
  -28.0162   -0.8135   28.8779 C   0  0  0  0  0  0  0  0  0  0  0  0
  -28.4690   -0.7850   29.8287 C   0  0  0  0  0  0  0  0  0  0  0  0
  -28.1816    0.4277   28.1134 C   0  0  0  0  0  0  0  0  0  0  0  0
  -27.4498    0.6435   26.8500 C   0  0  0  0  0  0  0  0  0  0  0  0
  -26.4529    0.9939   26.6681 C   0  0  0  0  0  0  0  0  0  0  0  0
  -25.1810    0.8624   26.8164 C   0  0  0  0  0  0  0  0  0  0  0  0
  -24.5150    0.1164   27.8116 C   0  0  0  0  0  0  0  0  0  0  0  0
  -23.1975    0.2649   28.2065 C   0  0  0  0  0  0  0  0  0  0  0  0
  -29.4518    0.0736   30.4366 C   0  0  0  0  0  0  0  0  0  0  0  0
  -29.6891    1.1851   29.7172 C   0  0  0  0  0  0  0  0  0  0  0  0
  -29.0627    1.3964   28.5468 C   0  0  0  0  0  0  0  0  0  0  0  0
  -22.4112    1.2604   27.6086 C   0  0  0  0  0  0  0  0  0  0  0  0
  -22.9788    2.1039   26.6351 C   0  0  0  0  0  0  0  0  0  0  0  0
  -24.3085    1.9769   26.3200 C   0  0  0  0  0  0  0  0  0  0  0  0
  -28.2928   -0.0035   25.7539 C   0  0  0  0  0  0  0  0  0  0  0  0
  -28.3928    0.8756   24.6434 C   0  0  0  0  0  0  0  0  0  0  0  0
  -26.6075    2.0592   25.4304 C   0  0  0  0  0  0  0  0  0  0  0  0
  -27.3789    1.7225   24.4202 C   0  0  0  0  0  0  0  0  0  0  0  0
  -22.6029   -0.6199   29.1955 C   0  0  0  0  0  0  0  0  0  0  0  0
  -22.6274   -0.1181   30.3710 F   0  0  0  0  0  0  0  0  0  0  0  0
  -23.2743   -1.7547   29.2354 F   0  0  0  0  0  0  0  0  0  0  0  0
  -21.2818   -0.8020   28.8668 F   0  0  0  0  0  0  0  0  0  0  0  0
  -29.2878    2.4634   27.8296 O   0  0  0  0  0  0  0  0  0  0  0  0
  -30.4572    2.8055   27.3618 C   0  0  0  0  0  0  0  0  0  0  0  0
  3  4  1  0
  5  6  1  0
  8 19  1  0
 19 20  1  0
 19 21  1  0
 19 22  1  0
 11 23  1  0
 23 24  1  0
  6  7  2  0
  7  8  1  0
  8 12  2  0
 12 13  1  0
 13 14  2  0
 14  6  1  0
  1  2  2  0
  2  9  1  0
  9 10  2  0
 10 11  1  0
 11  3  2  0
  3  1  1  0
  4  5  2  0
  5 17  1  0
 17 18  2  0
 18 16  1  0
 16 15  2  0
 15  4  1  0
M  END

$$$$
