No_3742-gen_results/8p0m/2024-11-26-14-13-15/
     RDKit          3D

 11 10  0  0  0  0  0  0  0  0999 V2000
  -28.1493   -0.8198   28.9079 Cl  0  0  0  0  0  0  0  0  0  0  0  0
  -28.5324   -0.0471   29.7727 C   0  0  0  0  0  0  0  0  0  0  0  0
  -27.6515    0.7172   30.3086 F   0  0  0  0  0  0  0  0  0  0  0  0
  -29.6788    0.8470   29.3357 C   0  0  0  0  0  0  0  0  0  0  0  0
  -28.9713   -0.6705   31.0034 F   0  0  0  0  0  0  0  0  0  0  0  0
  -30.2097    1.5488   29.9949 C   0  0  0  0  0  0  0  0  0  0  0  0
  -29.6227    2.0669   31.0526 C   0  0  0  0  0  0  0  0  0  0  0  0
  -30.1625    3.1070   31.9766 C   0  0  0  0  0  0  0  0  0  0  0  0
  -29.4665    3.6005   33.0979 C   0  0  0  0  0  0  0  0  0  0  0  0
  -28.1175    3.0661   33.3325 C   0  0  0  0  0  0  0  0  0  0  0  0
  -27.5658    2.0967   32.4844 C   0  0  0  0  0  0  0  0  0  0  0  0
  1  2  1  0
  2  3  1  0
  2  4  1  0
  2  5  1  0
  4  6  1  0
  6  7  2  3
  7  8  1  0
  8  9  2  3
  9 10  1  0
 10 11  2  0
M  END

$$$$
