No_3309-gen_results/8p0m/2024-11-26-14-13-15/
     RDKit          3D

 21 22  0  0  0  0  0  0  0  0999 V2000
  -28.0727   -1.2542   28.5316 F   0  0  0  0  0  0  0  0  0  0  0  0
  -27.3591   -0.3792   28.7224 C   0  0  0  0  0  0  0  0  0  0  0  0
  -26.3323   -0.6441   29.4520 C   0  0  0  0  0  0  0  0  0  0  0  0
  -25.2562    0.3203   29.7818 C   0  0  0  0  0  0  0  0  0  0  0  0
  -25.4242    1.6275   29.2026 C   0  0  0  0  0  0  0  0  0  0  0  0
  -24.4868    2.6446   29.3981 C   0  0  0  0  0  0  0  0  0  0  0  0
  -23.3294    2.1811   30.0492 C   0  0  0  0  0  0  0  0  0  0  0  0
  -23.0652    0.9364   30.5247 C   0  0  0  0  0  0  0  0  0  0  0  0
  -24.0849   -0.0201   30.3710 C   0  0  0  0  0  0  0  0  0  0  0  0
  -27.5330    0.8837   28.1096 C   0  0  0  0  0  0  0  0  0  0  0  0
  -26.6048    1.9015   28.4295 C   0  0  0  0  0  0  0  0  0  0  0  0
  -28.1823    1.0146   27.1800 F   0  0  0  0  0  0  0  0  0  0  0  0
  -26.0585   -1.8354   29.9978 O   0  0  0  0  0  0  0  0  0  0  0  0
  -25.8025   -2.9108   29.2393 C   0  0  0  0  0  0  0  0  0  0  0  0
  -24.8196   -3.7877   29.8877 C   0  0  0  0  0  0  0  0  0  0  0  0
  -24.5969   -4.9864   28.9779 C   0  0  0  0  0  0  0  0  0  0  0  0
  -26.8055    3.4841   27.8083 Cl  0  0  0  0  0  0  0  0  0  0  0  0
  -23.6425   -4.9933   28.1694 O   0  0  0  0  0  0  0  0  0  0  0  0
  -25.3790   -5.9582   29.1759 O   0  0  0  0  0  0  0  0  0  0  0  0
  -23.4541   -3.0321   29.8796 N   0  0  0  0  0  0  0  0  0  0  0  0
  -24.5825    3.8035   28.9467 O   0  0  0  0  0  0  0  0  0  0  0  0
  1  2  1  0
 10 12  1  0
  3 13  1  0
 13 14  1  0
 14 15  1  0
 15 16  1  0
 11 17  1  0
 16 18  2  0
 16 19  1  0
 15 20  1  0
  6 21  1  0
  2  3  2  0
  3  4  1  0
  5 11  1  0
 11 10  2  0
 10  2  1  0
  4  5  2  0
  5  6  1  0
  6  7  2  0
  7  8  1  0
  8  9  2  0
  9  4  1  0
M  END

$$$$
