No_3687-gen_results/8p0m/2024-11-26-14-13-15/
     RDKit          3D

 35 38  0  0  0  0  0  0  0  0999 V2000
  -28.0162   -0.8135   28.8779 C   0  0  0  0  0  0  0  0  0  0  0  0
  -27.0636   -0.1189   28.6079 C   0  0  0  0  0  0  0  0  0  0  0  0
  -25.7923   -0.4302   29.0761 C   0  0  0  0  0  0  0  0  0  0  0  0
  -24.5456    0.3494   28.8225 C   0  0  0  0  0  0  0  0  0  0  0  0
  -23.2409    0.0217   29.3323 C   0  0  0  0  0  0  0  0  0  0  0  0
  -27.8820   -1.8995   29.8633 C   0  0  0  0  0  0  0  0  0  0  0  0
  -26.6526   -2.3141   30.3138 C   0  0  0  0  0  0  0  0  0  0  0  0
  -25.5153   -1.5607   29.9787 C   0  0  0  0  0  0  0  0  0  0  0  0
  -23.2072   -1.2289   30.0311 C   0  0  0  0  0  0  0  0  0  0  0  0
  -24.2434   -1.9361   30.3879 C   0  0  0  0  0  0  0  0  0  0  0  0
  -24.5886    1.5614   27.9544 C   0  0  0  0  0  0  0  0  0  0  0  0
  -24.8866    1.4562   26.7915 N   0  0  0  0  0  0  0  0  0  0  0  0
  -24.2072    1.1018   25.8305 C   0  0  0  0  0  0  0  0  0  0  0  0
  -25.8923    2.4475   26.3455 C   0  0  0  0  0  0  0  0  0  0  0  0
  -24.4102    2.6263   28.6657 O   0  0  0  0  0  0  0  0  0  0  0  0
  -29.0216   -2.5907   30.1601 O   0  0  0  0  0  0  0  0  0  0  0  0
  -30.0877   -1.9475   30.6748 C   0  0  0  0  0  0  0  0  0  0  0  0
  -30.6776   -2.7028   31.6752 C   0  0  0  0  0  0  0  0  0  0  0  0
  -30.3364   -3.7491   32.0084 O   0  0  0  0  0  0  0  0  0  0  0  0
  -32.0115   -2.3376   32.0129 N   0  0  0  0  0  0  0  0  0  0  0  0
  -32.6019   -1.1021   31.6596 C   0  0  0  0  0  0  0  0  0  0  0  0
  -31.9826   -0.5939   30.5261 C   0  0  0  0  0  0  0  0  0  0  0  0
  -30.7220   -0.8588   30.0610 C   0  0  0  0  0  0  0  0  0  0  0  0
  -32.5710    0.7063   29.9570 C   0  0  0  0  0  0  0  0  0  0  0  0
  -33.2245    1.4028   30.4047 O   0  0  0  0  0  0  0  0  0  0  0  0
  -31.9116    1.0108   28.8141 O   0  0  0  0  0  0  0  0  0  0  0  0
  -32.6128    1.7733   27.8487 C   0  0  0  0  0  0  0  0  0  0  0  0
  -31.9766    1.8153   26.7741 C   0  0  0  0  0  0  0  0  0  0  0  0
  -30.6552    1.5563   26.6469 C   0  0  0  0  0  0  0  0  0  0  0  0
  -30.1657    0.8185   25.5777 C   0  0  0  0  0  0  0  0  0  0  0  0
  -30.0868    1.1722   24.6049 C   0  0  0  0  0  0  0  0  0  0  0  0
  -31.1769    2.1798   24.1864 C   0  0  0  0  0  0  0  0  0  0  0  0
  -32.2817    2.3534   25.3824 C   0  0  0  0  0  0  0  0  0  0  0  0
  -25.7240    3.7046   26.5380 C   0  0  0  0  0  0  0  0  0  0  0  0
  -27.0998    1.9193   25.6995 C   0  0  0  0  0  0  0  0  0  0  0  0
  4 11  1  0
 11 12  1  0
 12 13  1  0
 12 14  1  0
 11 15  2  0
  6 16  1  0
 16 17  1  0
 17 18  1  0
 18 19  2  0
 18 20  1  0
 20 21  1  0
 17 23  1  0
 22 23  1  0
 22 24  1  0
 24 25  2  0
 24 26  1  0
 26 27  1  0
 14 34  2  0
 14 35  1  0
 27 28  1  0
 22 21  1  0
 28 29  2  0
 29 30  1  0
 30 31  2  0
 31 32  1  0
 32 33  2  0
 33 28  1  0
  1  2  2  0
  2  3  1  0
  8  7  1  0
  7  6  2  0
  6  1  1  0
  3  4  2  0
  4  5  1  0
  5  9  2  0
  9 10  1  0
 10  8  2  0
  8  3  1  0
M  END

$$$$
