No_3863-gen_results/8p0m/2024-11-26-14-13-15/
     RDKit          3D

 24 28  0  0  0  0  0  0  0  0999 V2000
  -28.0162   -0.8135   28.8779 C   0  0  0  0  0  0  0  0  0  0  0  0
  -28.4690   -0.7850   29.8287 C   0  0  0  0  0  0  0  0  0  0  0  0
  -26.5042   -0.7777   28.8766 C   0  0  0  0  0  0  0  0  0  0  0  0
  -25.8103   -0.8531   30.1028 C   0  0  0  0  0  0  0  0  0  0  0  0
  -27.9906   -0.8916   31.2257 C   0  0  0  0  0  0  0  0  0  0  0  0
  -26.6042   -0.8676   31.2652 C   0  0  0  0  0  0  0  0  0  0  0  0
  -29.9203   -0.8331   29.8239 F   0  0  0  0  0  0  0  0  0  0  0  0
  -24.3796   -0.8022   30.1424 C   0  0  0  0  0  0  0  0  0  0  0  0
  -23.8531    0.5413   30.2083 N   0  0  0  0  0  0  0  0  0  0  0  0
  -23.3162    1.1576   29.1423 C   0  0  0  0  0  0  0  0  0  0  0  0
  -22.2800    0.6569   28.4577 C   0  0  0  0  0  0  0  0  0  0  0  0
  -24.3908    1.7250   28.1734 C   0  0  0  0  0  0  0  0  0  0  0  0
  -24.0494    3.0618   27.6927 C   0  0  0  0  0  0  0  0  0  0  0  0
  -24.5107    1.3533   31.2633 C   0  0  0  0  0  0  0  0  0  0  0  0
  -24.9318    3.4487   26.5118 C   0  0  0  0  0  0  0  0  0  0  0  0
  -25.7446   -0.7185   27.7067 N   0  0  0  0  0  0  0  0  0  0  0  0
  -26.2305    3.0794   26.5984 C   0  0  0  0  0  0  0  0  0  0  0  0
  -26.5349    1.8411   27.2148 C   0  0  0  0  0  0  0  0  0  0  0  0
  -25.6166    1.2886   28.0520 C   0  0  0  0  0  0  0  0  0  0  0  0
  -25.6120    0.0020   28.1483 N   0  0  0  0  0  0  0  0  0  0  0  0
  -24.2305   -0.7458   28.2038 C   0  0  0  0  0  0  0  0  0  0  0  0
  -23.0234   -0.5711   28.0389 C   0  0  0  0  0  0  0  0  0  0  0  0
  -24.1916   -2.0586   28.5917 N   0  0  0  0  0  0  0  0  0  0  0  0
  -23.6977   -1.7270   29.5266 C   0  0  0  0  0  0  0  0  0  0  0  0
  2  7  1  0
  4  8  1  0
  8  9  1  0
  9 10  1  0
 10 11  1  0
 10 12  1  0
  9 14  1  0
  3 16  1  0
 16 20  1  0
 19 20  1  0
 20 21  1  0
 11 22  1  0
 21 22  1  0
 21 23  1  0
  8 24  1  0
 23 24  1  0
 12 13  2  0
 13 15  1  0
 15 17  2  0
 17 18  1  0
 18 19  2  0
 19 12  1  0
  1  2  2  0
  2  5  1  0
  5  6  2  0
  6  4  1  0
  4  3  2  0
  3  1  1  0
M  END

$$$$
