No_3408-gen_results/8p0m/2024-11-26-14-13-15/
     RDKit          3D

 35 39  0  0  0  0  0  0  0  0999 V2000
  -28.0162   -0.8135   28.8779 C   0  0  0  0  0  0  0  0  0  0  0  0
  -27.0636   -0.1189   28.6079 C   0  0  0  0  0  0  0  0  0  0  0  0
  -25.7923   -0.4302   29.0761 C   0  0  0  0  0  0  0  0  0  0  0  0
  -25.5756   -1.5654   29.9363 C   0  0  0  0  0  0  0  0  0  0  0  0
  -26.7354   -2.3004   30.2173 C   0  0  0  0  0  0  0  0  0  0  0  0
  -27.9184   -1.9537   29.7629 C   0  0  0  0  0  0  0  0  0  0  0  0
  -27.1569    1.4255   27.5348 Br  0  0  0  0  0  0  0  0  0  0  0  0
  -29.0672   -2.7901   30.1831 C   0  0  0  0  0  0  0  0  0  0  0  0
  -30.1932   -2.3067   30.1791 N   0  0  0  0  0  0  0  0  0  0  0  0
  -28.8722   -3.9787   30.5967 O   0  0  0  0  0  0  0  0  0  0  0  0
  -31.4198   -3.0551   30.5327 C   0  0  0  0  0  0  0  0  0  0  0  0
  -32.4535   -2.7575   29.8583 C   0  0  0  0  0  0  0  0  0  0  0  0
  -33.2184   -1.9889   30.1075 C   0  0  0  0  0  0  0  0  0  0  0  0
  -32.8462   -0.9285   30.9600 C   0  0  0  0  0  0  0  0  0  0  0  0
  -33.4088   -0.1091   31.6907 C   0  0  0  0  0  0  0  0  0  0  0  0
  -32.8431    0.9891   32.4513 C   0  0  0  0  0  0  0  0  0  0  0  0
  -31.4437    1.1319   32.3804 C   0  0  0  0  0  0  0  0  0  0  0  0
  -30.7229    0.2548   31.5480 C   0  0  0  0  0  0  0  0  0  0  0  0
  -31.3626   -0.6841   30.8716 C   0  0  0  0  0  0  0  0  0  0  0  0
  -30.6084   -1.4425   30.1315 N   0  0  0  0  0  0  0  0  0  0  0  0
  -33.1067   -4.2674   29.5256 C   0  0  0  0  0  0  0  0  0  0  0  0
  -32.3471   -5.0794   28.8793 C   0  0  0  0  0  0  0  0  0  0  0  0
  -32.7991   -6.2892   28.4021 C   0  0  0  0  0  0  0  0  0  0  0  0
  -31.9022   -7.2292   27.6698 C   0  0  0  0  0  0  0  0  0  0  0  0
  -30.6006   -6.7115   27.3645 C   0  0  0  0  0  0  0  0  0  0  0  0
  -30.1821   -5.5069   27.8521 C   0  0  0  0  0  0  0  0  0  0  0  0
  -30.9617   -4.7198   28.5138 C   0  0  0  0  0  0  0  0  0  0  0  0
  -33.7338   -4.8270   30.7777 C   0  0  0  0  0  0  0  0  0  0  0  0
  -34.2726   -3.8962   28.4402 C   0  0  0  0  0  0  0  0  0  0  0  0
  -35.5266   -4.3098   28.6660 C   0  0  0  0  0  0  0  0  0  0  0  0
  -35.0672   -5.2840   30.8729 C   0  0  0  0  0  0  0  0  0  0  0  0
  -35.4890   -5.8728   32.0540 C   0  0  0  0  0  0  0  0  0  0  0  0
  -35.9204   -4.9285   29.8040 C   0  0  0  0  0  0  0  0  0  0  0  0
  -36.8032   -6.5969   32.3557 Cl  0  0  0  0  0  0  0  0  0  0  0  0
  -34.5066   -5.8585   33.2289 C   0  0  0  0  0  0  0  0  0  0  0  0
  2  7  1  0
  6  8  1  0
  8  9  1  0
  8 10  2  0
  9 11  1  0
 11 12  1  0
 12 13  2  0
 13 14  1  0
  9 20  1  0
 19 20  1  0
 12 21  1  0
 21 22  1  0
 21 28  1  0
 21 29  1  0
 31 32  1  0
 30 33  1  0
 31 33  1  0
 32 34  1  0
 32 35  1  0
 28 31  1  0
 30 29  1  0
  1  2  2  0
  2  3  1  0
  3  4  2  0
  4  5  1  0
  5  6  2  0
  6  1  1  0
 22 23  2  0
 23 24  1  0
 24 25  2  0
 25 26  1  0
 26 27  2  0
 27 22  1  0
 14 15  2  0
 15 16  1  0
 16 17  2  0
 17 18  1  0
 18 19  2  0
 19 14  1  0
M  END

$$$$
