No_3566-gen_results/8p0m/2024-11-26-14-13-15/
     RDKit          3D

 14 15  0  0  0  0  0  0  0  0999 V2000
  -28.0162   -0.8135   28.8779 C   0  0  0  0  0  0  0  0  0  0  0  0
  -27.0636   -0.1189   28.6079 C   0  0  0  0  0  0  0  0  0  0  0  0
  -26.8756    1.1325   28.9134 C   0  0  0  0  0  0  0  0  0  0  0  0
  -27.9014    1.8066   29.6436 C   0  0  0  0  0  0  0  0  0  0  0  0
  -28.9449    1.0388   30.0360 C   0  0  0  0  0  0  0  0  0  0  0  0
  -29.0273   -0.2890   29.7051 C   0  0  0  0  0  0  0  0  0  0  0  0
  -25.6959    1.9505   28.4764 C   0  0  0  0  0  0  0  0  0  0  0  0
  -25.0435    2.6925   28.9592 N   0  0  0  0  0  0  0  0  0  0  0  0
  -25.3132    1.7737   27.0173 C   0  0  0  0  0  0  0  0  0  0  0  0
  -24.1564    2.5459   26.8451 C   0  0  0  0  0  0  0  0  0  0  0  0
  -23.3645    3.0884   27.2946 C   0  0  0  0  0  0  0  0  0  0  0  0
  -23.8382    3.3175   28.6653 C   0  0  0  0  0  0  0  0  0  0  0  0
  -30.0274   -1.1090   30.0788 O   0  0  0  0  0  0  0  0  0  0  0  0
  -30.3734   -1.1730   31.3747 C   0  0  0  0  0  0  0  0  0  0  0  0
  3  7  1  0
  6 13  1  0
 13 14  1  0
  1  2  2  0
  2  3  1  0
  3  4  2  0
  4  5  1  0
  5  6  2  0
  6  1  1  0
  7  8  2  0
  8 12  1  0
 12 11  2  0
 11 10  1  0
 10  9  2  0
  9  7  1  0
M  END

$$$$
