No_38-gen_results/8p0m/2024-11-26-14-13-15/
     RDKit          3D

 12 13  0  0  0  0  0  0  0  0999 V2000
  -28.0162   -0.8135   28.8779 C   0  0  0  0  0  0  0  0  0  0  0  0
  -27.0636   -0.1189   28.6079 C   0  0  0  0  0  0  0  0  0  0  0  0
  -26.8756    1.1325   28.9134 C   0  0  0  0  0  0  0  0  0  0  0  0
  -25.6883    1.9515   28.5672 C   0  0  0  0  0  0  0  0  0  0  0  0
  -24.6394    1.2834   27.8753 C   0  0  0  0  0  0  0  0  0  0  0  0
  -23.4556    1.9996   27.5653 C   0  0  0  0  0  0  0  0  0  0  0  0
  -29.0919   -0.2290   29.6907 C   0  0  0  0  0  0  0  0  0  0  0  0
  -29.0369    1.0636   30.0407 C   0  0  0  0  0  0  0  0  0  0  0  0
  -27.9034    1.8034   29.6856 C   0  0  0  0  0  0  0  0  0  0  0  0
  -25.5124    3.3175   28.8196 C   0  0  0  0  0  0  0  0  0  0  0  0
  -24.4096    4.0724   28.3119 C   0  0  0  0  0  0  0  0  0  0  0  0
  -23.3629    3.3495   27.7120 C   0  0  0  0  0  0  0  0  0  0  0  0
  3  4  1  0
  4  5  2  0
  5  6  1  0
  6 12  2  0
 12 11  1  0
 11 10  2  0
 10  4  1  0
  1  2  2  0
  2  3  1  0
  3  9  2  0
  9  8  1  0
  8  7  2  0
  7  1  1  0
M  END

$$$$
