No_3594-gen_results/8p0m/2024-11-26-14-13-15/
     RDKit          3D

 35 39  0  0  0  0  0  0  0  0999 V2000
  -28.0162   -0.8135   28.8779 C   0  0  0  0  0  0  0  0  0  0  0  0
  -27.0636   -0.1189   28.6079 C   0  0  0  0  0  0  0  0  0  0  0  0
  -25.7647   -0.3897   29.0360 C   0  0  0  0  0  0  0  0  0  0  0  0
  -24.5517    0.4058   28.7646 C   0  0  0  0  0  0  0  0  0  0  0  0
  -23.2300    0.1178   29.2575 C   0  0  0  0  0  0  0  0  0  0  0  0
  -23.0942   -1.1309   29.8730 C   0  0  0  0  0  0  0  0  0  0  0  0
  -27.7980   -1.9341   29.8560 C   0  0  0  0  0  0  0  0  0  0  0  0
  -26.5420   -2.3268   30.2580 C   0  0  0  0  0  0  0  0  0  0  0  0
  -25.4514   -1.5516   29.9079 C   0  0  0  0  0  0  0  0  0  0  0  0
  -24.1562   -1.9097   30.2809 C   0  0  0  0  0  0  0  0  0  0  0  0
  -24.6450    1.6582   27.9464 C   0  0  0  0  0  0  0  0  0  0  0  0
  -24.8958    2.7559   28.5615 C   0  0  0  0  0  0  0  0  0  0  0  0
  -25.1728    3.9344   27.8439 C   0  0  0  0  0  0  0  0  0  0  0  0
  -24.4838    1.5571   26.5889 C   0  0  0  0  0  0  0  0  0  0  0  0
  -24.6321    2.6940   25.7850 C   0  0  0  0  0  0  0  0  0  0  0  0
  -24.8902    3.9231   26.4317 C   0  0  0  0  0  0  0  0  0  0  0  0
  -25.0723    2.9058   29.8639 F   0  0  0  0  0  0  0  0  0  0  0  0
  -29.0112   -2.7522   30.2321 C   0  0  0  0  0  0  0  0  0  0  0  0
  -28.9654   -3.7778   30.0391 O   0  0  0  0  0  0  0  0  0  0  0  0
  -29.9851   -2.1578   30.6482 F   0  0  0  0  0  0  0  0  0  0  0  0
  -25.3327    5.1756   28.3853 O   0  0  0  0  0  0  0  0  0  0  0  0
  -25.7742    6.2204   27.7493 C   0  0  0  0  0  0  0  0  0  0  0  0
  -25.7685    7.4270   28.5842 C   0  0  0  0  0  0  0  0  0  0  0  0
  -25.1490    7.3577   29.7432 C   0  0  0  0  0  0  0  0  0  0  0  0
  -24.5876    8.5018   30.3688 C   0  0  0  0  0  0  0  0  0  0  0  0
  -24.3573    9.5937   29.6419 C   0  0  0  0  0  0  0  0  0  0  0  0
  -24.9442    9.7156   28.3297 C   0  0  0  0  0  0  0  0  0  0  0  0
  -24.9019    8.4462   27.6746 C   0  0  0  0  0  0  0  0  0  0  0  0
  -27.1543    7.9050   28.6953 C   0  0  0  0  0  0  0  0  0  0  0  0
  -28.0473    7.5209   27.8657 C   0  0  0  0  0  0  0  0  0  0  0  0
  -27.1530    6.0330   27.1405 C   0  0  0  0  0  0  0  0  0  0  0  0
  -27.8892    7.7194   30.1444 C   0  0  0  0  0  0  0  0  0  0  0  0
  -28.1181    6.5229   30.5846 C   0  0  0  0  0  0  0  0  0  0  0  0
  -28.5116    6.2958   31.8843 C   0  0  0  0  0  0  0  0  0  0  0  0
  -28.6853    4.9939   32.3853 C   0  0  0  0  0  0  0  0  0  0  0  0
  4 11  1  0
 12 17  1  0
  7 18  1  0
 18 19  2  0
 18 20  1  0
 13 21  1  0
 21 22  1  0
 22 23  1  0
 23 24  1  0
 24 25  1  0
 26 27  1  0
 23 28  1  0
 27 28  1  0
 23 29  1  0
 29 30  2  0
 22 31  1  0
 30 31  1  0
 29 32  1  0
 32 33  1  0
 33 34  2  3
 34 35  1  0
 25 26  1  0
  1  2  2  0
  2  3  1  0
  9  8  1  0
  8  7  2  0
  7  1  1  0
 11 12  2  0
 12 13  1  0
 13 16  2  0
 16 15  1  0
 15 14  2  0
 14 11  1  0
  3  4  2  0
  4  5  1  0
  5  6  2  0
  6 10  1  0
 10  9  2  0
  9  3  1  0
M  END

$$$$
