No_3757-gen_results/8p0m/2024-11-26-14-13-15/
     RDKit          3D

 35 40  0  0  0  0  0  0  0  0999 V2000
  -28.0162   -0.8135   28.8779 C   0  0  0  0  0  0  0  0  0  0  0  0
  -27.0636   -0.1190   28.6079 C   0  0  0  0  0  0  0  0  0  0  0  0
  -25.7647   -0.3897   29.0360 C   0  0  0  0  0  0  0  0  0  0  0  0
  -24.5516    0.4058   28.7646 C   0  0  0  0  0  0  0  0  0  0  0  0
  -23.2300    0.1178   29.2575 C   0  0  0  0  0  0  0  0  0  0  0  0
  -23.0942   -1.1309   29.8730 C   0  0  0  0  0  0  0  0  0  0  0  0
  -27.7980   -1.9341   29.8560 C   0  0  0  0  0  0  0  0  0  0  0  0
  -26.5420   -2.3269   30.2580 C   0  0  0  0  0  0  0  0  0  0  0  0
  -25.4514   -1.5516   29.9079 C   0  0  0  0  0  0  0  0  0  0  0  0
  -24.1562   -1.9097   30.2809 C   0  0  0  0  0  0  0  0  0  0  0  0
  -24.6450    1.6582   27.9464 C   0  0  0  0  0  0  0  0  0  0  0  0
  -24.8958    2.7559   28.5615 C   0  0  0  0  0  0  0  0  0  0  0  0
  -25.1728    3.9344   27.8439 C   0  0  0  0  0  0  0  0  0  0  0  0
  -24.4838    1.5571   26.5889 C   0  0  0  0  0  0  0  0  0  0  0  0
  -24.6321    2.6940   25.7850 C   0  0  0  0  0  0  0  0  0  0  0  0
  -24.8902    3.9231   26.4317 C   0  0  0  0  0  0  0  0  0  0  0  0
  -25.0758    2.9107   29.9068 O   0  0  0  0  0  0  0  0  0  0  0  0
  -25.9144    3.7559   30.5334 C   0  0  0  0  0  0  0  0  0  0  0  0
  -26.7001    3.1529   31.5348 C   0  0  0  0  0  0  0  0  0  0  0  0
  -27.9572    3.4256   31.5964 C   0  0  0  0  0  0  0  0  0  0  0  0
  -26.0796    2.2334   32.4543 C   0  0  0  0  0  0  0  0  0  0  0  0
  -26.8232    1.4473   33.3275 C   0  0  0  0  0  0  0  0  0  0  0  0
  -28.7952    2.6114   32.5295 C   0  0  0  0  0  0  0  0  0  0  0  0
  -28.2081    1.7577   33.4409 C   0  0  0  0  0  0  0  0  0  0  0  0
  -29.0366   -2.7119   30.2295 C   0  0  0  0  0  0  0  0  0  0  0  0
  -29.0271   -3.8496   30.4610 O   0  0  0  0  0  0  0  0  0  0  0  0
  -30.1718   -2.0231   30.4875 N   0  0  0  0  0  0  0  0  0  0  0  0
  -31.3853   -2.6184   30.9190 C   0  0  0  0  0  0  0  0  0  0  0  0
  -25.8805    4.9595   30.4020 O   0  0  0  0  0  0  0  0  0  0  0  0
  -32.2982   -2.2276   30.6819 C   0  0  0  0  0  0  0  0  0  0  0  0
  -32.5366   -0.8161   30.1958 C   0  0  0  0  0  0  0  0  0  0  0  0
  -31.3415   -0.1333   29.8292 C   0  0  0  0  0  0  0  0  0  0  0  0
  -30.2452   -0.7364   29.9043 C   0  0  0  0  0  0  0  0  0  0  0  0
  -29.1538   -0.1442   29.2763 N   0  0  0  0  0  0  0  0  0  0  0  0
  -29.3912    1.1993   28.7561 C   0  0  0  0  0  0  0  0  0  0  0  0
  4 11  1  0
 12 17  1  0
 17 18  1  0
 18 19  1  0
  7 25  1  0
 25 26  2  0
 25 27  1  0
 27 28  1  0
 18 29  2  0
 30 31  1  0
 27 33  1  0
 32 33  1  0
  1 34  1  0
 33 34  1  0
 34 35  1  0
 28 30  1  0
 31 32  1  0
  1  2  2  0
  2  3  1  0
  9  8  1  0
  8  7  2  0
  7  1  1  0
 19 20  2  0
 20 23  1  0
 23 24  2  0
 24 22  1  0
 22 21  2  0
 21 19  1  0
  3  4  2  0
  4  5  1  0
  5  6  2  0
  6 10  1  0
 10  9  2  0
  9  3  1  0
 11 12  1  0
 12 13  2  0
 13 16  1  0
 16 15  2  0
 15 14  1  0
 14 11  2  0
M  END

$$$$
