No_3022-gen_results/8p0m/2024-11-26-14-13-15/
     RDKit          3D

 27 29  0  0  0  0  0  0  0  0999 V2000
  -28.0162   -0.8135   28.8779 C   0  0  0  0  0  0  0  0  0  0  0  0
  -28.4690   -0.7850   29.8287 C   0  0  0  0  0  0  0  0  0  0  0  0
  -26.5455   -0.8762   28.8500 C   0  0  0  0  0  0  0  0  0  0  0  0
  -25.8041   -1.0324   30.0571 C   0  0  0  0  0  0  0  0  0  0  0  0
  -27.9437   -0.9869   31.2075 C   0  0  0  0  0  0  0  0  0  0  0  0
  -26.5825   -1.0386   31.2231 C   0  0  0  0  0  0  0  0  0  0  0  0
  -30.2809   -0.7232   29.8834 Cl  0  0  0  0  0  0  0  0  0  0  0  0
  -24.3690   -1.1185   30.0640 C   0  0  0  0  0  0  0  0  0  0  0  0
  -23.6811    0.1519   30.0835 C   0  0  0  0  0  0  0  0  0  0  0  0
  -22.4350    0.2823   29.3993 C   0  0  0  0  0  0  0  0  0  0  0  0
  -21.8110   -0.9569   29.0086 C   0  0  0  0  0  0  0  0  0  0  0  0
  -23.7803   -1.9404   28.9115 C   0  0  0  0  0  0  0  0  0  0  0  0
  -24.4216   -3.1388   28.8357 N   0  0  0  0  0  0  0  0  0  0  0  0
  -22.5206   -1.7921   28.6134 C   0  0  0  0  0  0  0  0  0  0  0  0
  -24.1264    1.3289   30.9250 C   0  0  0  0  0  0  0  0  0  0  0  0
  -24.4456    1.2862   32.0447 O   0  0  0  0  0  0  0  0  0  0  0  0
  -24.1460    2.4887   30.2168 O   0  0  0  0  0  0  0  0  0  0  0  0
  -24.4489   -4.2988   29.5805 C   0  0  0  0  0  0  0  0  0  0  0  0
  -25.3301   -5.3126   29.1461 C   0  0  0  0  0  0  0  0  0  0  0  0
  -25.2423    3.2945   30.4067 C   0  0  0  0  0  0  0  0  0  0  0  0
  -25.9597    3.5801   29.2198 C   0  0  0  0  0  0  0  0  0  0  0  0
  -26.2753    4.7047   29.0269 C   0  0  0  0  0  0  0  0  0  0  0  0
  -26.3284    5.7667   30.0647 C   0  0  0  0  0  0  0  0  0  0  0  0
  -25.6274    5.4141   31.2381 C   0  0  0  0  0  0  0  0  0  0  0  0
  -25.0805    4.2855   31.3712 C   0  0  0  0  0  0  0  0  0  0  0  0
  -25.9861    2.6680   28.2911 O   0  0  0  0  0  0  0  0  0  0  0  0
  -26.8912    2.7494   27.2788 C   0  0  0  0  0  0  0  0  0  0  0  0
  2  7  1  0
  4  8  1  0
 12 13  1  0
  9 15  1  0
 15 16  2  0
 15 17  1  0
 13 18  1  0
 18 19  1  0
 17 20  1  0
 21 26  1  0
 26 27  1  0
  8  9  1  0
  9 10  2  0
 10 11  1  0
 11 14  2  0
 14 12  1  0
 12  8  2  0
  1  2  2  0
  2  5  1  0
  5  6  2  0
  6  4  1  0
  4  3  2  0
  3  1  1  0
 20 21  2  0
 21 22  1  0
 22 23  2  0
 23 24  1  0
 24 25  2  0
 25 20  1  0
M  END

$$$$
