No_33-gen_results/8p0m/2024-11-26-14-13-15/
     RDKit          3D

 15 17  0  0  0  0  0  0  0  0999 V2000
  -28.0162   -0.8135   28.8779 C   0  0  0  0  0  0  0  0  0  0  0  0
  -28.4690   -0.7850   29.8287 C   0  0  0  0  0  0  0  0  0  0  0  0
  -27.0871    0.2903   28.6377 C   0  0  0  0  0  0  0  0  0  0  0  0
  -26.2516    0.4114   27.4223 C   0  0  0  0  0  0  0  0  0  0  0  0
  -28.3913    0.1041   30.9805 C   0  0  0  0  0  0  0  0  0  0  0  0
  -27.5332    1.1666   30.7866 C   0  0  0  0  0  0  0  0  0  0  0  0
  -26.8281    1.2557   29.6454 C   0  0  0  0  0  0  0  0  0  0  0  0
  -25.6444    1.6653   27.2216 C   0  0  0  0  0  0  0  0  0  0  0  0
  -25.3908    2.5602   28.2291 C   0  0  0  0  0  0  0  0  0  0  0  0
  -26.0983    2.4436   29.4094 C   0  0  0  0  0  0  0  0  0  0  0  0
  -25.8917    3.3852   30.3396 O   0  0  0  0  0  0  0  0  0  0  0  0
  -29.4595   -2.0503   30.2217 C   0  0  0  0  0  0  0  0  0  0  0  0
  -29.9279   -2.0869   31.4436 N   0  0  0  0  0  0  0  0  0  0  0  0
  -29.8342   -1.1817   32.4327 C   0  0  0  0  0  0  0  0  0  0  0  0
  -29.0728   -0.1404   32.2708 C   0  0  0  0  0  0  0  0  0  0  0  0
  3  4  1  0
  4  8  1  0
  7 10  1  0
  9 10  1  0
 10 11  2  0
  8  9  1  0
  1  2  2  0
  5  6  2  0
  6  7  1  0
  7  3  2  0
  3  1  1  0
  2  5  1  0
  5 15  1  0
 15 14  2  0
 14 13  1  0
 13 12  2  0
 12  2  1  0
M  END

$$$$
