No_3677-gen_results/8p0m/2024-11-26-14-13-15/
     RDKit          3D

 19 21  0  0  0  0  0  0  0  0999 V2000
  -28.0162   -0.8135   28.8779 C   0  0  0  0  0  0  0  0  0  0  0  0
  -28.4690   -0.7850   29.8287 C   0  0  0  0  0  0  0  0  0  0  0  0
  -27.1356    0.2359   28.5352 C   0  0  0  0  0  0  0  0  0  0  0  0
  -26.8745    1.2825   29.3982 C   0  0  0  0  0  0  0  0  0  0  0  0
  -27.5070    1.2380   30.6295 C   0  0  0  0  0  0  0  0  0  0  0  0
  -28.3293    0.1745   30.9350 C   0  0  0  0  0  0  0  0  0  0  0  0
  -26.4077    0.3070   27.2259 C   0  0  0  0  0  0  0  0  0  0  0  0
  -25.0105    0.3902   27.3228 C   0  0  0  0  0  0  0  0  0  0  0  0
  -27.0459    0.3288   26.0049 C   0  0  0  0  0  0  0  0  0  0  0  0
  -26.2970    0.2704   24.8501 C   0  0  0  0  0  0  0  0  0  0  0  0
  -24.2723    0.2925   28.5637 C   0  0  0  0  0  0  0  0  0  0  0  0
  -22.9366    0.5915   28.5060 C   0  0  0  0  0  0  0  0  0  0  0  0
  -24.8848    0.3375   24.8953 C   0  0  0  0  0  0  0  0  0  0  0  0
  -24.2446    0.3871   26.1037 C   0  0  0  0  0  0  0  0  0  0  0  0
  -22.3894    1.3977   27.5369 C   0  0  0  0  0  0  0  0  0  0  0  0
  -22.9546    1.0838   26.2240 C   0  0  0  0  0  0  0  0  0  0  0  0
  -28.4853    0.1474   25.9320 C   0  0  0  0  0  0  0  0  0  0  0  0
  -29.0174    1.0856   25.6192 O   0  0  0  0  0  0  0  0  0  0  0  0
  -29.0753   -0.9106   26.2640 O   0  0  0  0  0  0  0  0  0  0  0  0
  3  7  1  0
  9 17  1  0
 17 18  2  0
 17 19  1  0
  7  8  2  0
 14 13  2  0
 13 10  1  0
 10  9  2  0
  9  7  1  0
  1  2  2  0
  2  6  1  0
  6  5  2  0
  5  4  1  0
  4  3  2  0
  3  1  1  0
  8 11  1  0
 11 12  2  0
 12 15  1  0
 15 16  2  0
 16 14  1  0
 14  8  1  0
M  END

$$$$
