No_305-gen_results/8p0m/2024-11-26-14-13-15/
     RDKit          3D

 24 26  0  0  0  0  0  0  0  0999 V2000
  -28.0162   -0.8135   28.8779 C   0  0  0  0  0  0  0  0  0  0  0  0
  -28.4690   -0.7850   29.8287 C   0  0  0  0  0  0  0  0  0  0  0  0
  -26.5455   -0.8762   28.8500 C   0  0  0  0  0  0  0  0  0  0  0  0
  -25.8041   -1.0324   30.0571 C   0  0  0  0  0  0  0  0  0  0  0  0
  -24.3697   -1.0998   30.0718 C   0  0  0  0  0  0  0  0  0  0  0  0
  -27.9902   -1.0051   31.2092 C   0  0  0  0  0  0  0  0  0  0  0  0
  -26.5616   -1.1368   31.2600 C   0  0  0  0  0  0  0  0  0  0  0  0
  -23.7274    0.1713   30.0259 C   0  0  0  0  0  0  0  0  0  0  0  0
  -24.0505    1.2537   30.5567 C   0  0  0  0  0  0  0  0  0  0  0  0
  -23.4331    2.5222   30.2587 C   0  0  0  0  0  0  0  0  0  0  0  0
  -22.6074    2.4539   29.1384 C   0  0  0  0  0  0  0  0  0  0  0  0
  -22.7124    0.4942   28.9360 C   0  0  0  0  0  0  0  0  0  0  0  0
  -25.8836   -0.6620   27.7104 F   0  0  0  0  0  0  0  0  0  0  0  0
  -30.0920   -0.7316   29.8783 C   0  0  0  0  0  0  0  0  0  0  0  0
  -30.6191    0.2722   30.4436 O   0  0  0  0  0  0  0  0  0  0  0  0
  -30.7148   -1.6141   29.3108 O   0  0  0  0  0  0  0  0  0  0  0  0
  -24.9038    1.3086   31.6956 O   0  0  0  0  0  0  0  0  0  0  0  0
  -25.0689    2.5000   32.4038 C   0  0  0  0  0  0  0  0  0  0  0  0
  -26.5340    2.8666   32.5479 C   0  0  0  0  0  0  0  0  0  0  0  0
  -27.4399    2.0096   32.4927 C   0  0  0  0  0  0  0  0  0  0  0  0
  -28.8274    2.4236   32.4777 C   0  0  0  0  0  0  0  0  0  0  0  0
  -29.0865    3.7320   32.7058 C   0  0  0  0  0  0  0  0  0  0  0  0
  -26.9665    4.2891   32.7937 C   0  0  0  0  0  0  0  0  0  0  0  0
  -28.1648    4.6707   32.8706 C   0  0  0  0  0  0  0  0  0  0  0  0
  4  5  1  0
  5  8  1  0
  8  9  2  0
  9 10  1  0
 10 11  2  0
  8 12  1  0
 11 12  1  0
  3 13  1  0
  2 14  1  0
 14 15  2  0
 14 16  1  0
  9 17  1  0
 17 18  1  0
 18 19  1  0
  1  2  2  0
  2  6  1  0
  6  7  2  0
  7  4  1  0
  4  3  2  0
  3  1  1  0
 19 20  2  0
 20 21  1  0
 21 22  2  0
 22 24  1  0
 24 23  2  0
 23 19  1  0
M  END

$$$$
