No_3478-gen_results/8p0m/2024-11-26-14-13-15/
     RDKit          3D

 19 20  0  0  0  0  0  0  0  0999 V2000
  -28.0162   -0.8135   28.8779 C   0  0  0  0  0  0  0  0  0  0  0  0
  -27.0636   -0.1190   28.6079 C   0  0  0  0  0  0  0  0  0  0  0  0
  -27.0010    0.6913   27.4910 C   0  0  0  0  0  0  0  0  0  0  0  0
  -25.8548    1.4825   27.0830 C   0  0  0  0  0  0  0  0  0  0  0  0
  -24.6901    1.4526   27.8807 C   0  0  0  0  0  0  0  0  0  0  0  0
  -24.7379    0.6010   29.0416 C   0  0  0  0  0  0  0  0  0  0  0  0
  -25.8234   -0.1688   29.3887 C   0  0  0  0  0  0  0  0  0  0  0  0
  -29.2150   -0.1726   29.0132 N   0  0  0  0  0  0  0  0  0  0  0  0
  -30.2463   -0.7736   29.6388 C   0  0  0  0  0  0  0  0  0  0  0  0
  -23.5190    2.2034   27.5550 C   0  0  0  0  0  0  0  0  0  0  0  0
  -23.6198    2.9624   26.6621 F   0  0  0  0  0  0  0  0  0  0  0  0
  -22.4520    1.3237   27.1888 F   0  0  0  0  0  0  0  0  0  0  0  0
  -23.0451    2.8615   28.6432 F   0  0  0  0  0  0  0  0  0  0  0  0
  -31.5454   -0.5189   29.2406 C   0  0  0  0  0  0  0  0  0  0  0  0
  -32.5567   -0.6617   29.7790 C   0  0  0  0  0  0  0  0  0  0  0  0
  -32.4980   -1.4020   31.0920 C   0  0  0  0  0  0  0  0  0  0  0  0
  -31.2832   -1.7423   31.6057 C   0  0  0  0  0  0  0  0  0  0  0  0
  -30.0892   -1.3223   30.9379 C   0  0  0  0  0  0  0  0  0  0  0  0
  -27.8794   -1.8027   29.6477 O   0  0  0  0  0  0  0  0  0  0  0  0
  1  2  1  0
  1  8  1  0
  8  9  1  0
  5 10  1  0
 10 11  1  0
 10 12  1  0
 10 13  1  0
  1 19  2  0
  2  3  2  0
  3  4  1  0
  4  5  2  0
  5  6  1  0
  6  7  2  0
  7  2  1  0
  9 14  2  0
 14 15  1  0
 15 16  2  0
 16 17  1  0
 17 18  2  0
 18  9  1  0
M  END

$$$$
