No_3538-gen_results/8p0m/2024-11-26-14-13-15/
     RDKit          3D

 25 26  0  0  0  0  0  0  0  0999 V2000
  -28.0162   -0.8135   28.8779 C   0  0  0  0  0  0  0  0  0  0  0  0
  -27.0636   -0.1189   28.6079 C   0  0  0  0  0  0  0  0  0  0  0  0
  -25.7923   -0.4302   29.0761 C   0  0  0  0  0  0  0  0  0  0  0  0
  -25.5756   -1.5654   29.9363 C   0  0  0  0  0  0  0  0  0  0  0  0
  -26.7354   -2.3004   30.2173 C   0  0  0  0  0  0  0  0  0  0  0  0
  -27.9184   -1.9537   29.7629 C   0  0  0  0  0  0  0  0  0  0  0  0
  -29.0001   -2.7012   30.1151 O   0  0  0  0  0  0  0  0  0  0  0  0
  -24.5290    0.3490   28.7998 C   0  0  0  0  0  0  0  0  0  0  0  0
  -24.4808    1.2113   27.7998 C   0  0  0  0  0  0  0  0  0  0  0  0
  -23.2478    1.8974   27.4951 C   0  0  0  0  0  0  0  0  0  0  0  0
  -22.0497    1.5890   28.1642 C   0  0  0  0  0  0  0  0  0  0  0  0
  -23.3072    0.0149   29.4618 C   0  0  0  0  0  0  0  0  0  0  0  0
  -22.0852    0.6899   29.1374 C   0  0  0  0  0  0  0  0  0  0  0  0
  -30.1270   -2.1323   30.5815 C   0  0  0  0  0  0  0  0  0  0  0  0
  -30.7978   -2.9474   31.8534 P   0  0  0  0  0  0  0  0  0  0  0  0
  -31.7253   -2.5010   32.3408 O   0  0  0  0  0  0  0  0  0  0  0  0
  -29.5973   -3.0736   32.8371 O   0  0  0  0  0  0  0  0  0  0  0  0
  -30.9617   -4.3706   31.1378 O   0  0  0  0  0  0  0  0  0  0  0  0
  -31.0266   -1.9647   29.4487 N   0  0  0  0  0  0  0  0  0  0  0  0
  -31.8301   -2.5004   28.9701 C   0  0  0  0  0  0  0  0  0  0  0  0
  -32.3883   -2.0415   27.7169 C   0  0  0  0  0  0  0  0  0  0  0  0
  -32.7594   -2.7746   26.7219 C   0  0  0  0  0  0  0  0  0  0  0  0
  -32.8885   -2.3048   25.4068 C   0  0  0  0  0  0  0  0  0  0  0  0
  -32.6094   -0.9744   25.0867 C   0  0  0  0  0  0  0  0  0  0  0  0
  -32.2026   -0.1666   26.0894 C   0  0  0  0  0  0  0  0  0  0  0  0
  6  7  1  0
  3  8  1  0
  7 14  1  0
 14 15  1  0
 15 16  1  0
 15 17  1  0
 15 18  2  0
 14 19  1  0
 19 20  1  0
 20 21  2  3
 21 22  1  0
 22 23  2  3
 23 24  1  0
 24 25  2  0
  1  2  2  0
  2  3  1  0
  3  4  2  0
  4  5  1  0
  5  6  2  0
  6  1  1  0
  8  9  2  0
  9 10  1  0
 10 11  2  0
 11 13  1  0
 13 12  2  0
 12  8  1  0
M  END

$$$$
