No_3102-gen_results/8p0m/2024-11-26-14-13-15/
     RDKit          3D

 15 16  0  0  0  0  0  0  0  0999 V2000
  -28.0162   -0.8135   28.8779 C   0  0  0  0  0  0  0  0  0  0  0  0
  -27.0636   -0.1189   28.6079 C   0  0  0  0  0  0  0  0  0  0  0  0
  -26.9716    0.7139   27.5060 C   0  0  0  0  0  0  0  0  0  0  0  0
  -25.8206    1.4910   27.1160 C   0  0  0  0  0  0  0  0  0  0  0  0
  -24.8580    1.3421   27.6008 C   0  0  0  0  0  0  0  0  0  0  0  0
  -24.6224    0.5295   28.8144 C   0  0  0  0  0  0  0  0  0  0  0  0
  -25.7344   -0.1811   29.1908 C   0  0  0  0  0  0  0  0  0  0  0  0
  -28.6330   -0.4621   30.2455 C   0  0  0  0  0  0  0  0  0  0  0  0
  -29.6709   -0.4110   30.5321 C   0  0  0  0  0  0  0  0  0  0  0  0
  -30.2701   -0.0445   31.2685 C   0  0  0  0  0  0  0  0  0  0  0  0
  -29.5387    0.3988   32.5477 C   0  0  0  0  0  0  0  0  0  0  0  0
  -28.2033    0.2954   32.4881 C   0  0  0  0  0  0  0  0  0  0  0  0
  -27.6747   -0.1166   31.3325 C   0  0  0  0  0  0  0  0  0  0  0  0
  -23.5185    2.1198   27.2472 C   0  0  0  0  0  0  0  0  0  0  0  0
  -23.5420    3.2160   26.8015 N   0  0  0  0  0  0  0  0  0  0  0  0
  1  2  2  3
  2  3  1  0
  3  4  1  0
  4  5  1  0
  5  6  1  0
  2  7  1  0
  6  7  1  0
  1  8  1  0
  5 14  1  0
 14 15  2  0
  8  9  2  0
  9 10  1  0
 10 11  2  0
 11 12  1  0
 12 13  2  0
 13  8  1  0
M  END

$$$$
