No_350-gen_results/8p0m/2024-11-26-14-13-15/
     RDKit          3D

 15 16  0  0  0  0  0  0  0  0999 V2000
  -28.0162   -0.8135   28.8779 C   0  0  0  0  0  0  0  0  0  0  0  0
  -28.4690   -0.7850   29.8287 C   0  0  0  0  0  0  0  0  0  0  0  0
  -27.1356    0.2359   28.5352 C   0  0  0  0  0  0  0  0  0  0  0  0
  -26.8745    1.2825   29.3982 C   0  0  0  0  0  0  0  0  0  0  0  0
  -29.3953   -1.9237   30.2863 C   0  0  0  0  0  0  0  0  0  0  0  0
  -27.5236    1.2089   30.6379 C   0  0  0  0  0  0  0  0  0  0  0  0
  -28.3224    0.1273   30.9590 C   0  0  0  0  0  0  0  0  0  0  0  0
  -29.8224   -1.9639   31.5311 N   0  0  0  0  0  0  0  0  0  0  0  0
  -26.4030    0.3225   27.2071 C   0  0  0  0  0  0  0  0  0  0  0  0
  -25.1757    0.6170   27.0930 C   0  0  0  0  0  0  0  0  0  0  0  0
  -24.3200    0.7172   28.2314 C   0  0  0  0  0  0  0  0  0  0  0  0
  -23.0289    1.3029   27.8757 C   0  0  0  0  0  0  0  0  0  0  0  0
  -22.7501    1.9478   26.7158 C   0  0  0  0  0  0  0  0  0  0  0  0
  -23.6902    1.9392   25.7125 C   0  0  0  0  0  0  0  0  0  0  0  0
  -24.8806    1.3096   25.8949 C   0  0  0  0  0  0  0  0  0  0  0  0
  2  5  1  0
  5  8  1  0
  3  9  1  0
  9 10  1  0
 10 11  2  0
 11 12  1  0
 12 13  2  0
 13 14  1  0
 14 15  2  0
 15 10  1  0
  1  2  2  0
  2  7  1  0
  7  6  2  0
  6  4  1  0
  4  3  2  0
  3  1  1  0
M  END

$$$$
