No_3690-gen_results/8p0m/2024-11-26-14-13-15/
     RDKit          3D

 15 15  0  0  0  0  0  0  0  0999 V2000
  -28.0162   -0.8135   28.8779 C   0  0  0  0  0  0  0  0  0  0  0  0
  -28.4690   -0.7850   29.8287 C   0  0  0  0  0  0  0  0  0  0  0  0
  -27.1356    0.2359   28.5352 C   0  0  0  0  0  0  0  0  0  0  0  0
  -26.8745    1.2825   29.3982 C   0  0  0  0  0  0  0  0  0  0  0  0
  -27.5070    1.2380   30.6295 C   0  0  0  0  0  0  0  0  0  0  0  0
  -28.3293    0.1745   30.9350 C   0  0  0  0  0  0  0  0  0  0  0  0
  -26.4077    0.3070   27.2259 C   0  0  0  0  0  0  0  0  0  0  0  0
  -27.0192    0.0345   26.2763 F   0  0  0  0  0  0  0  0  0  0  0  0
  -25.8064    1.5835   26.9975 F   0  0  0  0  0  0  0  0  0  0  0  0
  -25.2041   -0.5047   27.3400 F   0  0  0  0  0  0  0  0  0  0  0  0
  -29.5027   -2.1946   30.3732 Cl  0  0  0  0  0  0  0  0  0  0  0  0
  -27.2895    2.3567   31.6007 C   0  0  0  0  0  0  0  0  0  0  0  0
  -26.5170    2.1177   32.4888 F   0  0  0  0  0  0  0  0  0  0  0  0
  -28.4934    2.7263   32.1598 F   0  0  0  0  0  0  0  0  0  0  0  0
  -26.8756    3.4509   30.8660 F   0  0  0  0  0  0  0  0  0  0  0  0
  3  7  1  0
  7  8  1  0
  7  9  1  0
  7 10  1  0
  2 11  1  0
  5 12  1  0
 12 13  1  0
 12 14  1  0
 12 15  1  0
  1  2  2  0
  2  6  1  0
  6  5  2  0
  5  4  1  0
  4  3  2  0
  3  1  1  0
M  END

$$$$
