No_3992-gen_results/8p0m/2024-11-26-14-13-15/
     RDKit          3D

 23 23  0  0  0  0  0  0  0  0999 V2000
  -28.0162   -0.8135   28.8779 C   0  0  0  0  0  0  0  0  0  0  0  0
  -28.4690   -0.7850   29.8287 C   0  0  0  0  0  0  0  0  0  0  0  0
  -26.5455   -0.8762   28.8500 C   0  0  0  0  0  0  0  0  0  0  0  0
  -25.8041   -1.0324   30.0571 C   0  0  0  0  0  0  0  0  0  0  0  0
  -26.5373   -1.0386   31.2171 C   0  0  0  0  0  0  0  0  0  0  0  0
  -27.8843   -0.9532   31.1862 C   0  0  0  0  0  0  0  0  0  0  0  0
  -24.3655   -1.1134   30.0483 C   0  0  0  0  0  0  0  0  0  0  0  0
  -23.6925    0.1188   29.9185 C   0  0  0  0  0  0  0  0  0  0  0  0
  -23.9863    1.2743   30.4522 C   0  0  0  0  0  0  0  0  0  0  0  0
  -22.4570    0.1164   29.0535 C   0  0  0  0  0  0  0  0  0  0  0  0
  -21.9636    1.2534   28.4456 C   0  0  0  0  0  0  0  0  0  0  0  0
  -25.1877    1.3503   31.3303 C   0  0  0  0  0  0  0  0  0  0  0  0
  -25.4440    2.7169   31.8947 C   0  0  0  0  0  0  0  0  0  0  0  0
  -24.6613    3.7687   31.5441 C   0  0  0  0  0  0  0  0  0  0  0  0
  -24.9684    5.0289   32.2042 C   0  0  0  0  0  0  0  0  0  0  0  0
  -24.3482    6.2210   31.7342 C   0  0  0  0  0  0  0  0  0  0  0  0
  -25.6242   -0.8039   27.3935 Cl  0  0  0  0  0  0  0  0  0  0  0  0
  -21.0466    1.1863   27.4578 C   0  0  0  0  0  0  0  0  0  0  0  0
  -24.7290    5.0118   33.6102 F   0  0  0  0  0  0  0  0  0  0  0  0
  -26.3246    5.1999   32.0815 F   0  0  0  0  0  0  0  0  0  0  0  0
  -23.4291    6.7956   32.4701 N   0  0  0  0  0  0  0  0  0  0  0  0
  -22.7474    8.0060   32.1698 C   0  0  0  0  0  0  0  0  0  0  0  0
  -21.6922    8.4531   33.0449 C   0  0  0  0  0  0  0  0  0  0  0  0
  4  7  1  0
  7  8  1  0
  8  9  1  0
  8 10  1  0
 10 11  2  3
  9 12  1  0
 12 13  2  3
 13 14  1  0
 14 15  1  0
 15 16  1  0
  3 17  1  0
 11 18  1  0
 15 19  1  0
 15 20  1  0
 16 21  1  0
 21 22  1  0
 22 23  2  0
  1  2  2  0
  2  6  1  0
  6  5  2  0
  5  4  1  0
  4  3  2  0
  3  1  1  0
M  END

$$$$
