No_3851-gen_results/8p0m/2024-11-26-14-13-15/
     RDKit          3D

 35 38  0  0  0  0  0  0  0  0999 V2000
  -28.1493   -0.8198   28.9079 Cl  0  0  0  0  0  0  0  0  0  0  0  0
  -26.9116   -0.0797   28.9452 C   0  0  0  0  0  0  0  0  0  0  0  0
  -26.0490   -0.0718   27.8591 C   0  0  0  0  0  0  0  0  0  0  0  0
  -24.7194    0.4034   27.9174 C   0  0  0  0  0  0  0  0  0  0  0  0
  -24.2099    0.9302   29.0839 C   0  0  0  0  0  0  0  0  0  0  0  0
  -25.0231    0.9078   30.1875 C   0  0  0  0  0  0  0  0  0  0  0  0
  -26.2531    0.3904   30.1401 C   0  0  0  0  0  0  0  0  0  0  0  0
  -22.8500    1.4478   29.0593 C   0  0  0  0  0  0  0  0  0  0  0  0
  -22.0944    1.5228   27.9761 N   0  0  0  0  0  0  0  0  0  0  0  0
  -22.4857    1.9544   29.9987 O   0  0  0  0  0  0  0  0  0  0  0  0
  -27.0787    0.3463   31.4316 C   0  0  0  0  0  0  0  0  0  0  0  0
  -26.5414   -0.3367   32.3806 C   0  0  0  0  0  0  0  0  0  0  0  0
  -27.2480   -0.3767   33.6781 C   0  0  0  0  0  0  0  0  0  0  0  0
  -28.5642    0.0511   33.6916 C   0  0  0  0  0  0  0  0  0  0  0  0
  -29.1033    0.6694   32.6185 C   0  0  0  0  0  0  0  0  0  0  0  0
  -28.3929    0.8051   31.4293 C   0  0  0  0  0  0  0  0  0  0  0  0
  -30.6830    1.2992   32.6605 Cl  0  0  0  0  0  0  0  0  0  0  0  0
  -29.4018   -0.0430   35.2156 Cl  0  0  0  0  0  0  0  0  0  0  0  0
  -25.2752   -0.7852   32.4020 O   0  0  0  0  0  0  0  0  0  0  0  0
  -24.3794   -0.4835   33.4442 C   0  0  0  0  0  0  0  0  0  0  0  0
  -28.9378    1.3981   30.3900 O   0  0  0  0  0  0  0  0  0  0  0  0
  -28.6206    2.6976   30.1496 C   0  0  0  0  0  0  0  0  0  0  0  0
  -29.7006    3.5088   29.8275 C   0  0  0  0  0  0  0  0  0  0  0  0
  -30.7938    3.1863   29.5188 C   0  0  0  0  0  0  0  0  0  0  0  0
  -31.9162    4.0361   29.2204 C   0  0  0  0  0  0  0  0  0  0  0  0
  -31.6423    5.4337   29.2735 C   0  0  0  0  0  0  0  0  0  0  0  0
  -30.4077    5.8961   29.5681 C   0  0  0  0  0  0  0  0  0  0  0  0
  -29.3752    5.0070   29.8620 C   0  0  0  0  0  0  0  0  0  0  0  0
  -28.0677    5.5133   30.2063 C   0  0  0  0  0  0  0  0  0  0  0  0
  -27.5838    6.3664   29.6737 C   0  0  0  0  0  0  0  0  0  0  0  0
  -26.4717    6.6828   29.3511 C   0  0  0  0  0  0  0  0  0  0  0  0
  -25.9198    7.8266   28.6084 C   0  0  0  0  0  0  0  0  0  0  0  0
  -26.8863    8.7407   28.2238 C   0  0  0  0  0  0  0  0  0  0  0  0
  -28.1733    8.4940   28.5080 C   0  0  0  0  0  0  0  0  0  0  0  0
  -28.5806    7.4268   29.1777 C   0  0  0  0  0  0  0  0  0  0  0  0
  1  2  1  0
  5  8  1  0
  8  9  1  0
  8 10  2  0
  7 11  1  0
 15 17  1  0
 14 18  1  0
 12 19  1  0
 19 20  1  0
 16 21  1  0
 21 22  1  0
 22 23  1  0
 28 29  1  0
 29 30  1  0
 11 12  2  0
 12 13  1  0
 13 14  2  0
 14 15  1  0
 15 16  2  0
 16 11  1  0
  2  3  2  0
  3  4  1  0
  4  5  2  0
  5  6  1  0
  6  7  2  0
  7  2  1  0
 23 24  2  0
 24 25  1  0
 25 26  2  0
 26 27  1  0
 27 28  2  0
 28 23  1  0
 30 31  2  0
 31 32  1  0
 32 33  2  0
 33 34  1  0
 34 35  2  0
 35 30  1  0
M  END

$$$$
