No_3905-gen_results/8p0m/2024-11-26-14-13-15/
     RDKit          3D

 33 37  0  0  0  0  0  0  0  0999 V2000
  -28.0162   -0.8135   28.8779 C   0  0  0  0  0  0  0  0  0  0  0  0
  -27.0636   -0.1189   28.6079 C   0  0  0  0  0  0  0  0  0  0  0  0
  -25.7647   -0.3897   29.0360 C   0  0  0  0  0  0  0  0  0  0  0  0
  -25.5296   -1.5302   29.9014 C   0  0  0  0  0  0  0  0  0  0  0  0
  -26.6577   -2.2915   30.2035 C   0  0  0  0  0  0  0  0  0  0  0  0
  -27.8548   -1.9555   29.7630 C   0  0  0  0  0  0  0  0  0  0  0  0
  -24.5441    0.4126   28.7379 C   0  0  0  0  0  0  0  0  0  0  0  0
  -23.3232    0.0476   29.0499 C   0  0  0  0  0  0  0  0  0  0  0  0
  -23.2018   -1.2373   29.7566 C   0  0  0  0  0  0  0  0  0  0  0  0
  -24.2259   -1.9647   30.2122 C   0  0  0  0  0  0  0  0  0  0  0  0
  -22.1154    0.7752   28.7156 C   0  0  0  0  0  0  0  0  0  0  0  0
  -21.0872    0.1221   28.7213 F   0  0  0  0  0  0  0  0  0  0  0  0
  -21.8586    1.8290   29.5012 F   0  0  0  0  0  0  0  0  0  0  0  0
  -22.2741    1.3178   27.4491 F   0  0  0  0  0  0  0  0  0  0  0  0
  -27.3742    1.1384   27.8617 C   0  0  0  0  0  0  0  0  0  0  0  0
  -27.6542    1.1122   26.6558 N   0  0  0  0  0  0  0  0  0  0  0  0
  -27.7415    0.1175   25.9354 C   0  0  0  0  0  0  0  0  0  0  0  0
  -28.1004    0.2333   24.6713 C   0  0  0  0  0  0  0  0  0  0  0  0
  -28.0729    2.3818   26.0489 C   0  0  0  0  0  0  0  0  0  0  0  0
  -28.5002    2.4920   24.7771 C   0  0  0  0  0  0  0  0  0  0  0  0
  -28.4384    1.4009   23.9851 C   0  0  0  0  0  0  0  0  0  0  0  0
  -27.2453    2.2261   28.6126 O   0  0  0  0  0  0  0  0  0  0  0  0
  -28.9745   -2.6871   30.0828 O   0  0  0  0  0  0  0  0  0  0  0  0
  -30.0400   -2.1274   30.6860 C   0  0  0  0  0  0  0  0  0  0  0  0
  -30.0731   -1.3981   31.5613 C   0  0  0  0  0  0  0  0  0  0  0  0
  -28.8723   -1.2319   32.3791 C   0  0  0  0  0  0  0  0  0  0  0  0
  -28.8096   -0.1618   33.3802 C   0  0  0  0  0  0  0  0  0  0  0  0
  -27.6108    0.0165   34.0714 C   0  0  0  0  0  0  0  0  0  0  0  0
  -26.4041   -0.5798   33.6405 C   0  0  0  0  0  0  0  0  0  0  0  0
  -26.4466   -1.3692   32.5331 C   0  0  0  0  0  0  0  0  0  0  0  0
  -27.6270   -1.7067   31.9812 C   0  0  0  0  0  0  0  0  0  0  0  0
  -27.6056   -2.9565   31.8880 O   0  0  0  0  0  0  0  0  0  0  0  0
  -26.5128   -3.5978   30.5236 C   0  0  0  0  0  0  0  0  0  0  0  0
  8 11  1  0
 11 12  1  0
 11 13  1  0
 11 14  1  0
  2 15  1  0
 15 16  1  0
 16 17  1  0
 16 19  1  0
 18 21  1  0
 20 21  1  0
 15 22  2  0
  6 23  1  0
 23 24  1  0
 24 25  2  3
 25 26  1  0
 31 32  1  0
  5 33  1  0
 32 33  1  0
 17 18  1  0
 20 19  1  0
 26 27  2  0
 27 28  1  0
 28 29  2  0
 29 30  1  0
 30 31  2  0
 31 26  1  0
  1  2  2  0
  2  3  1  0
  4  5  1  0
  5  6  2  0
  6  1  1  0
  3  4  2  0
  4 10  1  0
 10  9  2  0
  9  8  1  0
  8  7  2  0
  7  3  1  0
M  END

$$$$
