No_3332-gen_results/8p0m/2024-11-26-14-13-15/
     RDKit          3D

 35 38  0  0  0  0  0  0  0  0999 V2000
  -28.0162   -0.8135   28.8779 C   0  0  0  0  0  0  0  0  0  0  0  0
  -28.4690   -0.7850   29.8287 C   0  0  0  0  0  0  0  0  0  0  0  0
  -28.1816    0.4277   28.1134 C   0  0  0  0  0  0  0  0  0  0  0  0
  -27.4498    0.6435   26.8500 C   0  0  0  0  0  0  0  0  0  0  0  0
  -27.8596    1.4573   25.9076 C   0  0  0  0  0  0  0  0  0  0  0  0
  -29.4263    0.1097   30.4178 C   0  0  0  0  0  0  0  0  0  0  0  0
  -29.6233    1.2198   29.7351 C   0  0  0  0  0  0  0  0  0  0  0  0
  -28.9609    1.4529   28.5513 C   0  0  0  0  0  0  0  0  0  0  0  0
  -28.7869    2.5467   26.3167 C   0  0  0  0  0  0  0  0  0  0  0  0
  -29.4265    2.4288   27.5639 C   0  0  0  0  0  0  0  0  0  0  0  0
  -26.4246   -0.3341   26.3854 C   0  0  0  0  0  0  0  0  0  0  0  0
  -25.0626    0.2808   26.7688 C   0  0  0  0  0  0  0  0  0  0  0  0
  -24.6674    0.8467   27.8513 C   0  0  0  0  0  0  0  0  0  0  0  0
  -23.4297    1.3346   28.0260 C   0  0  0  0  0  0  0  0  0  0  0  0
  -22.7297    1.8226   26.9226 C   0  0  0  0  0  0  0  0  0  0  0  0
  -23.2911    1.5718   25.6479 C   0  0  0  0  0  0  0  0  0  0  0  0
  -24.4581    0.8633   25.5168 C   0  0  0  0  0  0  0  0  0  0  0  0
  -22.8904    1.6664   29.5947 Cl  0  0  0  0  0  0  0  0  0  0  0  0
  -27.2948    1.6744   24.6211 C   0  0  0  0  0  0  0  0  0  0  0  0
  -28.2430   -2.1150   30.7752 C   0  0  0  0  0  0  0  0  0  0  0  0
  -27.6634   -3.0398   30.3066 N   0  0  0  0  0  0  0  0  0  0  0  0
  -28.1650   -4.3477   30.2492 C   0  0  0  0  0  0  0  0  0  0  0  0
  -26.2570   -3.0504   29.8871 C   0  0  0  0  0  0  0  0  0  0  0  0
  -25.5909   -4.0959   29.3639 C   0  0  0  0  0  0  0  0  0  0  0  0
  -29.4349   -4.5249   30.7118 N   0  0  0  0  0  0  0  0  0  0  0  0
  -24.3118   -3.9185   28.9039 C   0  0  0  0  0  0  0  0  0  0  0  0
  -23.6771   -2.6600   28.8643 C   0  0  0  0  0  0  0  0  0  0  0  0
  -24.2502   -1.6045   29.5947 C   0  0  0  0  0  0  0  0  0  0  0  0
  -25.5530   -1.7519   30.0199 C   0  0  0  0  0  0  0  0  0  0  0  0
  -30.2384   -5.5775   30.4534 C   0  0  0  0  0  0  0  0  0  0  0  0
  -30.9455   -5.3147   29.2491 C   0  0  0  0  0  0  0  0  0  0  0  0
  -31.2857   -4.1885   28.8377 C   0  0  0  0  0  0  0  0  0  0  0  0
  -31.1359   -6.4691   28.3442 C   0  0  0  0  0  0  0  0  0  0  0  0
  -32.2908   -3.9458   28.4605 Cl  0  0  0  0  0  0  0  0  0  0  0  0
  -31.0476   -6.4337   27.0703 C   0  0  0  0  0  0  0  0  0  0  0  0
  4 11  1  0
 11 12  1  0
 14 18  1  0
  5 19  1  0
  2 20  1  0
 20 21  1  0
 21 22  1  0
 21 23  1  0
 22 25  1  0
 25 30  1  0
 30 31  1  0
 31 32  1  0
 31 33  1  0
 32 34  1  0
 33 35  2  0
 12 13  2  0
 13 14  1  0
 14 15  2  0
 15 16  1  0
 16 17  2  0
 17 12  1  0
 23 24  2  0
 24 26  1  0
 26 27  2  0
 27 28  1  0
 28 29  2  0
 29 23  1  0
  3  4  2  0
  4  5  1  0
  5  9  2  0
  9 10  1  0
 10  8  2  0
  1  2  2  0
  2  6  1  0
  6  7  2  0
  7  8  1  0
  8  3  1  0
  3  1  1  0
M  END

$$$$
