No_3861-gen_results/8p0m/2024-11-26-14-13-15/
     RDKit          3D

 19 21  0  0  0  0  0  0  0  0999 V2000
  -28.0162   -0.8135   28.8779 C   0  0  0  0  0  0  0  0  0  0  0  0
  -28.4690   -0.7850   29.8287 C   0  0  0  0  0  0  0  0  0  0  0  0
  -26.5455   -0.8762   28.8500 C   0  0  0  0  0  0  0  0  0  0  0  0
  -25.8041   -1.0324   30.0571 C   0  0  0  0  0  0  0  0  0  0  0  0
  -24.3697   -1.0998   30.0718 C   0  0  0  0  0  0  0  0  0  0  0  0
  -27.9902   -1.0051   31.2092 C   0  0  0  0  0  0  0  0  0  0  0  0
  -26.5616   -1.1368   31.2600 C   0  0  0  0  0  0  0  0  0  0  0  0
  -23.6342   -0.7826   29.0667 C   0  0  0  0  0  0  0  0  0  0  0  0
  -22.1763   -0.6779   29.1657 C   0  0  0  0  0  0  0  0  0  0  0  0
  -21.4400   -0.1303   28.1207 C   0  0  0  0  0  0  0  0  0  0  0  0
  -22.1014    0.8765   27.3078 C   0  0  0  0  0  0  0  0  0  0  0  0
  -23.5471    0.9961   27.3643 C   0  0  0  0  0  0  0  0  0  0  0  0
  -24.1994   -0.3868   27.8137 C   0  0  0  0  0  0  0  0  0  0  0  0
  -25.8014   -0.6692   27.7471 N   0  0  0  0  0  0  0  0  0  0  0  0
  -24.2849    1.8228   26.3958 C   0  0  0  0  0  0  0  0  0  0  0  0
  -25.1961    2.6872   27.0217 C   0  0  0  0  0  0  0  0  0  0  0  0
  -24.7028    3.5991   27.8410 C   0  0  0  0  0  0  0  0  0  0  0  0
  -25.5287    4.6517   28.4291 C   0  0  0  0  0  0  0  0  0  0  0  0
  -25.1535    5.4327   29.4585 C   0  0  0  0  0  0  0  0  0  0  0  0
 12 15  1  0
 15 16  1  0
 16 17  1  0
 17 18  2  3
 18 19  1  0
  1  2  2  0
  2  6  1  0
  6  7  2  0
  7  4  1  0
  3  1  1  0
  8  9  1  0
  9 10  2  0
 10 11  1  0
 11 12  2  0
 12 13  1  0
  3  4  2  0
  4  5  1  0
  5  8  2  0
  8 13  1  0
 13 14  2  0
 14  3  1  0
M  END

$$$$
