No_3488-gen_results/8p0m/2024-11-26-14-13-15/
     RDKit          3D

  8  7  0  0  0  0  0  0  0  0999 V2000
  -28.0162   -0.8135   28.8779 C   0  0  0  0  0  0  0  0  0  0  0  0
  -28.4690   -0.7850   29.8287 C   0  0  0  0  0  0  0  0  0  0  0  0
  -27.2166   -0.0832   27.9639 C   0  0  0  0  0  0  0  0  0  0  0  0
  -27.0905    1.2695   28.4177 C   0  0  0  0  0  0  0  0  0  0  0  0
  -27.6655    1.5758   29.6941 C   0  0  0  0  0  0  0  0  0  0  0  0
  -27.5287    2.9035   30.2543 C   0  0  0  0  0  0  0  0  0  0  0  0
  -28.3093    0.5613   30.4268 C   0  0  0  0  0  0  0  0  0  0  0  0
  -28.9217    0.8242   31.7585 C   0  0  0  0  0  0  0  0  0  0  0  0
  1  2  3  0
  1  3  1  0
  3  4  2  3
  4  5  1  0
  5  6  1  0
  5  7  1  0
  7  8  1  0
M  END

$$$$
