No_3804-gen_results/8p0m/2024-11-26-14-13-15/
     RDKit          3D

 15 15  0  0  0  0  0  0  0  0999 V2000
  -28.0162   -0.8135   28.8779 C   0  0  0  0  0  0  0  0  0  0  0  0
  -27.0636   -0.1189   28.6079 C   0  0  0  0  0  0  0  0  0  0  0  0
  -26.9716    0.7139   27.5060 C   0  0  0  0  0  0  0  0  0  0  0  0
  -25.8205    1.4909   27.1160 C   0  0  0  0  0  0  0  0  0  0  0  0
  -24.6562    1.4242   27.9180 C   0  0  0  0  0  0  0  0  0  0  0  0
  -24.6847    0.5901   29.0659 C   0  0  0  0  0  0  0  0  0  0  0  0
  -23.4723    0.4701   29.8435 C   0  0  0  0  0  0  0  0  0  0  0  0
  -25.7941   -0.1679   29.3440 C   0  0  0  0  0  0  0  0  0  0  0  0
  -29.1845    0.0064   29.3819 C   0  0  0  0  0  0  0  0  0  0  0  0
  -29.0130    0.5629   30.4425 O   0  0  0  0  0  0  0  0  0  0  0  0
  -30.2030    0.0109   28.6444 O   0  0  0  0  0  0  0  0  0  0  0  0
  -23.6848    0.7732   31.0692 F   0  0  0  0  0  0  0  0  0  0  0  0
  -22.5159    1.3345   29.4519 F   0  0  0  0  0  0  0  0  0  0  0  0
  -22.9483   -0.7397   29.7658 F   0  0  0  0  0  0  0  0  0  0  0  0
  -25.8888    2.4020   26.0171 C   0  0  0  0  0  0  0  0  0  0  0  0
  1  2  2  3
  2  3  1  0
  3  4  1  0
  4  5  1  0
  5  6  1  0
  6  7  1  0
  2  8  1  0
  6  8  1  0
  1  9  1  0
  9 10  2  0
  9 11  1  0
  7 12  1  0
  7 13  1  0
  7 14  1  0
  4 15  1  0
M  END

$$$$
