No_3999-gen_results/8p0m/2024-11-26-14-13-15/
     RDKit          3D

 20 22  0  0  0  0  0  0  0  0999 V2000
  -28.0162   -0.8135   28.8779 C   0  0  0  0  0  0  0  0  0  0  0  0
  -28.4690   -0.7850   29.8287 C   0  0  0  0  0  0  0  0  0  0  0  0
  -27.1356    0.2359   28.5352 C   0  0  0  0  0  0  0  0  0  0  0  0
  -26.8745    1.2825   29.3982 C   0  0  0  0  0  0  0  0  0  0  0  0
  -27.5070    1.2380   30.6295 C   0  0  0  0  0  0  0  0  0  0  0  0
  -28.3293    0.1745   30.9350 C   0  0  0  0  0  0  0  0  0  0  0  0
  -26.4668    0.2796   27.3235 O   0  0  0  0  0  0  0  0  0  0  0  0
  -25.1188    0.3387   27.3473 C   0  0  0  0  0  0  0  0  0  0  0  0
  -24.5156    1.4514   26.6447 C   0  0  0  0  0  0  0  0  0  0  0  0
  -25.0417    2.3994   26.0011 C   0  0  0  0  0  0  0  0  0  0  0  0
  -24.2295    3.5823   25.6678 C   0  0  0  0  0  0  0  0  0  0  0  0
  -23.0830    1.7552   27.0776 C   0  0  0  0  0  0  0  0  0  0  0  0
  -22.3756    0.8024   28.0025 C   0  0  0  0  0  0  0  0  0  0  0  0
  -24.3683   -0.4653   28.2500 C   0  0  0  0  0  0  0  0  0  0  0  0
  -23.0410   -0.1879   28.5696 C   0  0  0  0  0  0  0  0  0  0  0  0
  -22.9505    3.7672   25.9431 C   0  0  0  0  0  0  0  0  0  0  0  0
  -22.3675    2.8546   26.6752 C   0  0  0  0  0  0  0  0  0  0  0  0
  -29.4012   -2.0156   30.3221 C   0  0  0  0  0  0  0  0  0  0  0  0
  -29.2938   -2.6230   31.2232 O   0  0  0  0  0  0  0  0  0  0  0  0
  -30.1880   -2.3866   29.2803 O   0  0  0  0  0  0  0  0  0  0  0  0
  3  7  1  0
  7  8  1  0
  2 18  1  0
 18 19  2  0
 18 20  1  0
  1  2  2  0
  2  6  1  0
  6  5  2  0
  5  4  1  0
  4  3  2  0
  3  1  1  0
  8  9  1  0
 12 13  1  0
 13 15  2  0
 15 14  1  0
 14  8  2  0
  9 10  2  0
 10 11  1  0
 11 16  2  0
 16 17  1  0
 17 12  2  0
 12  9  1  0
M  END

$$$$
