No_3483-gen_results/8p0m/2024-11-26-14-13-15/
     RDKit          3D

 20 21  0  0  0  0  0  0  0  0999 V2000
  -28.0162   -0.8135   28.8779 C   0  0  0  0  0  0  0  0  0  0  0  0
  -28.4690   -0.7850   29.8287 C   0  0  0  0  0  0  0  0  0  0  0  0
  -28.1960    0.3478   28.0550 C   0  0  0  0  0  0  0  0  0  0  0  0
  -27.4421    0.5100   26.7946 C   0  0  0  0  0  0  0  0  0  0  0  0
  -26.1689   -0.0794   26.6787 C   0  0  0  0  0  0  0  0  0  0  0  0
  -25.7312   -0.9607   27.6875 C   0  0  0  0  0  0  0  0  0  0  0  0
  -26.5043   -1.2222   28.7582 C   0  0  0  0  0  0  0  0  0  0  0  0
  -29.6345   -0.4589   29.9464 F   0  0  0  0  0  0  0  0  0  0  0  0
  -28.1858   -1.7348   30.8265 F   0  0  0  0  0  0  0  0  0  0  0  0
  -27.7694    1.4580   25.7309 C   0  0  0  0  0  0  0  0  0  0  0  0
  -27.4447    2.7288   26.0090 C   0  0  0  0  0  0  0  0  0  0  0  0
  -29.2444    1.4465   25.4147 C   0  0  0  0  0  0  0  0  0  0  0  0
  -27.0912    0.9523   24.4229 C   0  0  0  0  0  0  0  0  0  0  0  0
  -29.9039    2.4847   25.3956 C   0  0  0  0  0  0  0  0  0  0  0  0
  -28.0818    3.9724   25.8663 C   0  0  0  0  0  0  0  0  0  0  0  0
  -29.4111    3.8425   25.5509 C   0  0  0  0  0  0  0  0  0  0  0  0
  -29.9113    0.1519   25.2761 C   0  0  0  0  0  0  0  0  0  0  0  0
  -30.6376   -0.1348   26.2379 F   0  0  0  0  0  0  0  0  0  0  0  0
  -28.9580   -0.8520   25.2402 F   0  0  0  0  0  0  0  0  0  0  0  0
  -30.6326    0.2087   24.1498 F   0  0  0  0  0  0  0  0  0  0  0  0
  1  2  2  3
  1  3  1  0
  3  4  1  0
  4  5  1  0
  5  6  1  0
  1  7  1  0
  6  7  1  0
  2  8  1  0
  2  9  1  0
  4 10  1  0
 10 11  1  0
 10 12  1  0
 10 13  1  0
 14 16  1  0
 15 16  1  0
 12 17  1  0
 17 18  1  0
 17 19  1  0
 17 20  1  0
 11 15  1  0
 14 12  1  0
M  END

$$$$
