No_3449-gen_results/8p0m/2024-11-26-14-13-15/
     RDKit          3D

 18 20  0  0  0  0  0  0  0  0999 V2000
  -28.0162   -0.8135   28.8779 C   0  0  0  0  0  0  0  0  0  0  0  0
  -28.4690   -0.7850   29.8287 C   0  0  0  0  0  0  0  0  0  0  0  0
  -27.0871    0.2903   28.6377 C   0  0  0  0  0  0  0  0  0  0  0  0
  -26.2516    0.4114   27.4223 C   0  0  0  0  0  0  0  0  0  0  0  0
  -28.3913    0.1041   30.9805 C   0  0  0  0  0  0  0  0  0  0  0  0
  -27.5332    1.1666   30.7866 C   0  0  0  0  0  0  0  0  0  0  0  0
  -26.8281    1.2557   29.6454 C   0  0  0  0  0  0  0  0  0  0  0  0
  -25.7856    1.5766   27.1546 N   0  0  0  0  0  0  0  0  0  0  0  0
  -24.4032    1.7344   26.9421 C   0  0  0  0  0  0  0  0  0  0  0  0
  -23.8658    2.9952   26.5560 C   0  0  0  0  0  0  0  0  0  0  0  0
  -23.4461    0.8243   27.4745 C   0  0  0  0  0  0  0  0  0  0  0  0
  -22.0680    1.1906   27.5247 C   0  0  0  0  0  0  0  0  0  0  0  0
  -22.5471    3.2394   26.4395 N   0  0  0  0  0  0  0  0  0  0  0  0
  -21.6773    2.4244   26.9550 C   0  0  0  0  0  0  0  0  0  0  0  0
  -26.6392    2.6255   26.7761 C   0  0  0  0  0  0  0  0  0  0  0  0
  -25.7314   -0.5952   26.8637 O   0  0  0  0  0  0  0  0  0  0  0  0
  -24.7067    3.9592   26.0561 N   0  0  0  0  0  0  0  0  0  0  0  0
  -26.0683    3.8371   26.1895 C   0  0  0  0  0  0  0  0  0  0  0  0
  3  4  1  0
  4  8  1  0
  8  9  1  0
  8 15  1  0
  4 16  2  0
 10 17  1  0
 17 18  1  0
 18 15  1  0
  9 11  2  0
 11 12  1  0
 12 14  2  0
 14 13  1  0
 13 10  2  0
 10  9  1  0
  1  2  2  0
  2  5  1  0
  5  6  2  0
  6  7  1  0
  7  3  2  0
  3  1  1  0
M  END

$$$$
