No_3800-gen_results/8p0m/2024-11-26-14-13-15/
     RDKit          3D

  9  9  0  0  0  0  0  0  0  0999 V2000
  -28.1229   -1.3353   28.4874 O   0  0  0  0  0  0  0  0  0  0  0  0
  -27.0637   -0.8242   28.8687 C   0  0  0  0  0  0  0  0  0  0  0  0
  -27.0246    0.1877   29.7358 C   0  0  0  0  0  0  0  0  0  0  0  0
  -27.8240    0.5330   30.2854 C   0  0  0  0  0  0  0  0  0  0  0  0
  -25.9546   -1.3314   28.1672 F   0  0  0  0  0  0  0  0  0  0  0  0
  -27.7337    1.6301   31.3265 C   0  0  0  0  0  0  0  0  0  0  0  0
  -26.4936    2.2824   31.4628 C   0  0  0  0  0  0  0  0  0  0  0  0
  -25.4003    1.8142   30.6835 C   0  0  0  0  0  0  0  0  0  0  0  0
  -25.5711    0.7265   29.8280 C   0  0  0  0  0  0  0  0  0  0  0  0
  1  2  1  0
  2  3  1  0
  2  5  1  0
  3  4  2  0
  4  6  1  0
  6  7  2  0
  7  8  1  0
  8  9  2  0
  9  3  1  0
M  END

$$$$
