No_3560-gen_results/8p0m/2024-11-26-14-13-15/
     RDKit          3D

 26 29  0  0  0  0  0  0  0  0999 V2000
  -28.0162   -0.8135   28.8779 C   0  0  0  0  0  0  0  0  0  0  0  0
  -28.4690   -0.7850   29.8287 C   0  0  0  0  0  0  0  0  0  0  0  0
  -27.0871    0.2903   28.6377 C   0  0  0  0  0  0  0  0  0  0  0  0
  -26.2516    0.4114   27.4223 C   0  0  0  0  0  0  0  0  0  0  0  0
  -29.4309   -1.9307   30.2714 C   0  0  0  0  0  0  0  0  0  0  0  0
  -25.1465    1.2405   27.3564 C   0  0  0  0  0  0  0  0  0  0  0  0
  -24.7814    1.9840   28.5026 C   0  0  0  0  0  0  0  0  0  0  0  0
  -25.4736    1.8471   29.6355 C   0  0  0  0  0  0  0  0  0  0  0  0
  -26.5034    1.0016   29.7688 C   0  0  0  0  0  0  0  0  0  0  0  0
  -30.1781   -1.9604   31.4357 C   0  0  0  0  0  0  0  0  0  0  0  0
  -29.9434   -0.8977   32.3521 C   0  0  0  0  0  0  0  0  0  0  0  0
  -29.1065    0.1064   32.0942 C   0  0  0  0  0  0  0  0  0  0  0  0
  -28.4328    0.1892   30.9703 C   0  0  0  0  0  0  0  0  0  0  0  0
  -27.3369    1.0719   30.7434 C   0  0  0  0  0  0  0  0  0  0  0  0
  -24.2129    1.2712   25.7291 Br  0  0  0  0  0  0  0  0  0  0  0  0
  -24.9622    2.7029   30.7808 C   0  0  0  0  0  0  0  0  0  0  0  0
  -25.6146    2.8987   31.6593 O   0  0  0  0  0  0  0  0  0  0  0  0
  -23.6812    2.8915   30.7860 O   0  0  0  0  0  0  0  0  0  0  0  0
  -25.4417    4.1566   32.4271 C   0  0  0  0  0  0  0  0  0  0  0  0
  -26.2598    4.1769   33.6195 C   0  0  0  0  0  0  0  0  0  0  0  0
  -27.4249    4.9484   33.3612 C   0  0  0  0  0  0  0  0  0  0  0  0
  -28.5523    4.2193   33.5296 C   0  0  0  0  0  0  0  0  0  0  0  0
  -28.4302    3.1673   34.3575 C   0  0  0  0  0  0  0  0  0  0  0  0
  -27.3123    2.4323   34.6401 C   0  0  0  0  0  0  0  0  0  0  0  0
  -26.3674    2.8393   33.9086 O   0  0  0  0  0  0  0  0  0  0  0  0
  -27.3853    5.6102   32.1498 F   0  0  0  0  0  0  0  0  0  0  0  0
  6 15  1  0
  8 16  1  0
 16 17  1  0
 16 18  2  0
 17 19  1  0
 19 20  1  0
 20 21  1  0
 21 22  1  0
 22 23  2  0
 23 24  1  0
 20 25  1  0
 24 25  1  0
 21 26  1  0
  3  4  2  0
  4  6  1  0
  6  7  2  0
  7  8  1  0
  8  9  2  0
  1  2  2  0
 13 14  2  0
 14  9  1  0
  9  3  1  0
  3  1  1  0
  2  5  1  0
  5 10  2  0
 10 11  1  0
 11 12  2  0
 12 13  1  0
 13  2  1  0
M  END

$$$$
