No_3632-gen_results/8p0m/2024-11-26-14-13-15/
     RDKit          3D

 14 15  0  0  0  0  0  0  0  0999 V2000
  -28.0162   -0.8135   28.8779 C   0  0  0  0  0  0  0  0  0  0  0  0
  -28.4690   -0.7850   29.8287 C   0  0  0  0  0  0  0  0  0  0  0  0
  -26.5042   -0.7777   28.8766 C   0  0  0  0  0  0  0  0  0  0  0  0
  -25.8103   -0.8531   30.1028 C   0  0  0  0  0  0  0  0  0  0  0  0
  -27.9906   -0.8916   31.2257 C   0  0  0  0  0  0  0  0  0  0  0  0
  -26.6042   -0.8676   31.2652 C   0  0  0  0  0  0  0  0  0  0  0  0
  -30.0739   -0.8360   29.8615 C   0  0  0  0  0  0  0  0  0  0  0  0
  -30.6454   -0.1837   28.9598 N   0  0  0  0  0  0  0  0  0  0  0  0
  -30.1746    0.8452   28.4366 C   0  0  0  0  0  0  0  0  0  0  0  0
  -30.8759    1.5849   27.8509 C   0  0  0  0  0  0  0  0  0  0  0  0
  -32.2152    1.5597   27.8769 C   0  0  0  0  0  0  0  0  0  0  0  0
  -31.9088   -0.5567   28.5975 C   0  0  0  0  0  0  0  0  0  0  0  0
  -32.7586    0.3662   28.1846 N   0  0  0  0  0  0  0  0  0  0  0  0
  -30.5948   -1.6297   30.7339 O   0  0  0  0  0  0  0  0  0  0  0  0
  2  7  1  0
  7  8  1  0
  8  9  1  0
 10 11  1  0
  8 12  1  0
 12 13  1  0
  7 14  2  0
  9 10  1  0
 11 13  1  0
  1  2  2  0
  2  5  1  0
  5  6  2  0
  6  4  1  0
  4  3  2  0
  3  1  1  0
M  END

$$$$
