No_3901-gen_results/8p0m/2024-11-26-14-13-15/
     RDKit          3D

 27 30  0  0  0  0  0  0  0  0999 V2000
  -28.0162   -0.8135   28.8779 C   0  0  0  0  0  0  0  0  0  0  0  0
  -27.0636   -0.1189   28.6079 C   0  0  0  0  0  0  0  0  0  0  0  0
  -26.8756    1.1325   28.9134 C   0  0  0  0  0  0  0  0  0  0  0  0
  -27.9014    1.8066   29.6436 C   0  0  0  0  0  0  0  0  0  0  0  0
  -29.0458   -0.2316   29.7181 C   0  0  0  0  0  0  0  0  0  0  0  0
  -28.9402    1.0517   30.0597 C   0  0  0  0  0  0  0  0  0  0  0  0
  -25.8732   -0.7125   27.8045 C   0  0  0  0  0  0  0  0  0  0  0  0
  -25.2858    0.0505   26.8000 C   0  0  0  0  0  0  0  0  0  0  0  0
  -25.2235    1.4626   27.0117 C   0  0  0  0  0  0  0  0  0  0  0  0
  -24.4089    2.3116   26.2235 C   0  0  0  0  0  0  0  0  0  0  0  0
  -26.0799    2.0655   28.0903 C   0  0  0  0  0  0  0  0  0  0  0  0
  -23.9319    1.7963   25.2416 F   0  0  0  0  0  0  0  0  0  0  0  0
  -25.1211    3.4451   25.7927 F   0  0  0  0  0  0  0  0  0  0  0  0
  -23.3672    2.8440   27.0397 F   0  0  0  0  0  0  0  0  0  0  0  0
  -30.1013   -1.1414   30.2854 C   0  0  0  0  0  0  0  0  0  0  0  0
  -31.1946   -1.1802   29.6838 N   0  0  0  0  0  0  0  0  0  0  0  0
  -31.5288   -0.4912   28.7412 C   0  0  0  0  0  0  0  0  0  0  0  0
  -32.8254   -0.8096   28.0317 C   0  0  0  0  0  0  0  0  0  0  0  0
  -32.1759   -2.2275   30.0517 C   0  0  0  0  0  0  0  0  0  0  0  0
  -33.3079   -2.4788   29.4231 C   0  0  0  0  0  0  0  0  0  0  0  0
  -33.6620   -1.7002   28.4018 C   0  0  0  0  0  0  0  0  0  0  0  0
  -29.7480   -1.7843   31.2950 O   0  0  0  0  0  0  0  0  0  0  0  0
  -33.1753    0.1454   26.8181 C   0  0  0  0  0  0  0  0  0  0  0  0
  -32.4480    1.3365   26.6938 C   0  0  0  0  0  0  0  0  0  0  0  0
  -31.2277    1.4800   27.3763 C   0  0  0  0  0  0  0  0  0  0  0  0
  -30.9182    0.6814   28.3183 N   0  0  0  0  0  0  0  0  0  0  0  0
  -30.5404    2.5765   27.1559 O   0  0  0  0  0  0  0  0  0  0  0  0
  9 10  1  0
 10 12  1  0
 10 13  1  0
 10 14  1  0
  5 15  1  0
 15 16  1  0
 16 17  1  0
 16 19  1  0
 18 21  1  0
 20 21  1  0
 15 22  2  0
 18 23  1  0
 24 25  1  0
 17 26  1  0
 25 26  1  0
 25 27  2  0
 17 18  1  0
 20 19  1  0
 24 23  1  0
  3 11  1  0
 11  9  2  0
  9  8  1  0
  8  7  2  0
  7  2  1  0
  1  2  2  0
  2  3  1  0
  3  4  2  0
  4  6  1  0
  6  5  2  0
  5  1  1  0
M  END

$$$$
