No_3215-gen_results/8p0m/2024-11-26-14-13-15/
     RDKit          3D

 21 23  0  0  0  0  0  0  0  0999 V2000
  -28.0162   -0.8135   28.8779 C   0  0  0  0  0  0  0  0  0  0  0  0
  -28.4690   -0.7850   29.8287 C   0  0  0  0  0  0  0  0  0  0  0  0
  -28.1960    0.3478   28.0550 C   0  0  0  0  0  0  0  0  0  0  0  0
  -29.0191    1.3501   28.3782 C   0  0  0  0  0  0  0  0  0  0  0  0
  -29.4107    0.1803   30.3782 C   0  0  0  0  0  0  0  0  0  0  0  0
  -29.6059    1.2495   29.6193 C   0  0  0  0  0  0  0  0  0  0  0  0
  -27.3479    0.2333   26.8118 C   0  0  0  0  0  0  0  0  0  0  0  0
  -25.8997    0.2741   26.9020 C   0  0  0  0  0  0  0  0  0  0  0  0
  -25.2396   -0.1102   28.0242 C   0  0  0  0  0  0  0  0  0  0  0  0
  -23.8346   -0.0399   28.0875 C   0  0  0  0  0  0  0  0  0  0  0  0
  -23.1185   -0.5441   29.2150 C   0  0  0  0  0  0  0  0  0  0  0  0
  -23.8061   -1.3004   30.1397 C   0  0  0  0  0  0  0  0  0  0  0  0
  -25.1449   -1.4758   30.0776 C   0  0  0  0  0  0  0  0  0  0  0  0
  -25.8508   -0.9305   29.0572 C   0  0  0  0  0  0  0  0  0  0  0  0
  -27.4823   -1.6089   28.3288 O   0  0  0  0  0  0  0  0  0  0  0  0
  -26.2185    0.1121   29.7868 F   0  0  0  0  0  0  0  0  0  0  0  0
  -27.2454   -2.8433   29.0698 C   0  0  0  0  0  0  0  0  0  0  0  0
  -25.2556   -2.0819   28.2925 C   0  0  0  0  0  0  0  0  0  0  0  0
  -26.0173   -3.3382   28.6673 C   0  0  0  0  0  0  0  0  0  0  0  0
  -24.2728   -2.3118   27.5219 C   0  0  0  0  0  0  0  0  0  0  0  0
  -25.6954   -1.9382   31.2326 C   0  0  0  0  0  0  0  0  0  0  0  0
  3  7  1  0
  7  8  1  0
  9 10  1  0
 10 11  2  0
 11 12  1  0
 12 13  2  0
  9 14  1  0
 13 14  1  0
  1 15  1  0
 14 16  1  0
 15 17  1  0
 14 18  1  0
 17 19  1  0
 18 19  1  0
 18 20  1  0
 13 21  1  0
  8  9  1  0
  1  2  2  0
  2  5  1  0
  5  6  2  0
  6  4  1  0
  4  3  2  0
  3  1  1  0
M  END

$$$$
