No_3392-gen_results/8p0m/2024-11-26-14-13-15/
     RDKit          3D

 35 38  0  0  0  0  0  0  0  0999 V2000
  -28.0162   -0.8135   28.8779 C   0  0  0  0  0  0  0  0  0  0  0  0
  -27.0636   -0.1189   28.6079 C   0  0  0  0  0  0  0  0  0  0  0  0
  -25.7647   -0.3897   29.0360 C   0  0  0  0  0  0  0  0  0  0  0  0
  -25.5296   -1.5302   29.9014 C   0  0  0  0  0  0  0  0  0  0  0  0
  -26.6577   -2.2915   30.2035 C   0  0  0  0  0  0  0  0  0  0  0  0
  -27.8548   -1.9555   29.7630 C   0  0  0  0  0  0  0  0  0  0  0  0
  -24.5441    0.4126   28.7379 C   0  0  0  0  0  0  0  0  0  0  0  0
  -24.0952    1.3785   29.5751 C   0  0  0  0  0  0  0  0  0  0  0  0
  -22.9715    2.1448   29.2493 C   0  0  0  0  0  0  0  0  0  0  0  0
  -22.2339    1.9126   28.0417 C   0  0  0  0  0  0  0  0  0  0  0  0
  -23.7826    0.2867   27.5524 C   0  0  0  0  0  0  0  0  0  0  0  0
  -22.6965    1.0118   27.2313 C   0  0  0  0  0  0  0  0  0  0  0  0
  -24.7432    1.6126   30.9137 C   0  0  0  0  0  0  0  0  0  0  0  0
  -25.8647    1.8481   30.9108 O   0  0  0  0  0  0  0  0  0  0  0  0
  -26.1849    3.1919   30.8350 C   0  0  0  0  0  0  0  0  0  0  0  0
  -25.7083    3.8344   31.4425 C   0  0  0  0  0  0  0  0  0  0  0  0
  -27.3573    3.4812   30.0167 C   0  0  0  0  0  0  0  0  0  0  0  0
  -25.9449    5.3725   31.4060 C   0  0  0  0  0  0  0  0  0  0  0  0
  -27.6583    4.8378   29.8178 C   0  0  0  0  0  0  0  0  0  0  0  0
  -26.9798    5.7875   30.6458 C   0  0  0  0  0  0  0  0  0  0  0  0
  -28.9263   -2.7335   30.0296 O   0  0  0  0  0  0  0  0  0  0  0  0
  -28.7484   -3.9779   30.5730 C   0  0  0  0  0  0  0  0  0  0  0  0
  -29.7435   -4.8517   30.1518 C   0  0  0  0  0  0  0  0  0  0  0  0
  -30.2447   -4.8526   29.0802 O   0  0  0  0  0  0  0  0  0  0  0  0
  -31.5920   -5.2725   28.8951 C   0  0  0  0  0  0  0  0  0  0  0  0
  -31.7175   -6.5318   28.8356 C   0  0  0  0  0  0  0  0  0  0  0  0
  -31.7645   -7.2159   27.8391 C   0  0  0  0  0  0  0  0  0  0  0  0
  -31.5449   -6.5408   26.6213 C   0  0  0  0  0  0  0  0  0  0  0  0
  -31.9171   -8.6738   27.5725 C   0  0  0  0  0  0  0  0  0  0  0  0
  -31.6103   -9.3221   26.5873 C   0  0  0  0  0  0  0  0  0  0  0  0
  -31.3719   -7.3268   25.3692 N   0  0  0  0  0  0  0  0  0  0  0  0
  -31.3763   -8.6115   25.3960 C   0  0  0  0  0  0  0  0  0  0  0  0
  -32.8234   -6.9074   29.8838 C   0  0  0  0  0  0  0  0  0  0  0  0
  -32.5201   -7.7632   30.7290 C   0  0  0  0  0  0  0  0  0  0  0  0
  -33.4397   -8.1897   31.7689 C   0  0  0  0  0  0  0  0  0  0  0  0
  3  7  1  0
  8 13  1  0
 13 14  1  0
 14 15  1  0
  6 21  1  0
 21 22  1  0
 22 23  1  0
 23 24  1  0
 24 25  1  0
 25 26  1  0
 26 27  1  0
 26 33  1  0
 33 34  2  3
 34 35  1  0
  7  8  1  0
  8  9  2  0
  9 10  1  0
 10 12  2  0
 12 11  1  0
 11  7  2  0
  1  2  2  0
  2  3  1  0
  3  4  2  0
  4  5  1  0
  5  6  2  0
  6  1  1  0
 15 16  2  0
 16 18  1  0
 18 20  2  0
 20 19  1  0
 19 17  2  0
 17 15  1  0
 27 28  2  0
 28 31  1  0
 31 32  2  0
 32 30  1  0
 30 29  2  0
 29 27  1  0
M  END

$$$$
