No_3503-gen_results/8p0m/2024-11-26-14-13-15/
     RDKit          3D

 24 26  0  0  0  0  0  0  0  0999 V2000
  -28.0162   -0.8135   28.8779 C   0  0  0  0  0  0  0  0  0  0  0  0
  -28.4690   -0.7850   29.8287 C   0  0  0  0  0  0  0  0  0  0  0  0
  -26.5042   -0.7777   28.8766 C   0  0  0  0  0  0  0  0  0  0  0  0
  -25.8103   -0.8531   30.1028 C   0  0  0  0  0  0  0  0  0  0  0  0
  -27.9906   -0.8916   31.2257 C   0  0  0  0  0  0  0  0  0  0  0  0
  -26.6042   -0.8676   31.2652 C   0  0  0  0  0  0  0  0  0  0  0  0
  -30.0739   -0.8360   29.8615 C   0  0  0  0  0  0  0  0  0  0  0  0
  -30.5608   -0.4417   28.9417 O   0  0  0  0  0  0  0  0  0  0  0  0
  -30.7042   -1.7423   30.7732 N   0  0  0  0  0  0  0  0  0  0  0  0
  -32.1088   -1.8935   30.6670 C   0  0  0  0  0  0  0  0  0  0  0  0
  -32.5304   -2.9805   31.0746 C   0  0  0  0  0  0  0  0  0  0  0  0
  -31.7529   -3.8536   31.7971 C   0  0  0  0  0  0  0  0  0  0  0  0
  -30.3538   -3.7430   31.9013 C   0  0  0  0  0  0  0  0  0  0  0  0
  -29.8379   -2.7196   31.2966 C   0  0  0  0  0  0  0  0  0  0  0  0
  -29.5923   -4.8372   32.5744 C   0  0  0  0  0  0  0  0  0  0  0  0
  -29.3913   -4.9433   33.6657 O   0  0  0  0  0  0  0  0  0  0  0  0
  -28.9366   -5.6150   31.6314 O   0  0  0  0  0  0  0  0  0  0  0  0
  -25.7381   -0.7070   27.7502 O   0  0  0  0  0  0  0  0  0  0  0  0
  -24.5077   -0.1734   27.8836 C   0  0  0  0  0  0  0  0  0  0  0  0
  -24.0994    0.9991   27.1253 C   0  0  0  0  0  0  0  0  0  0  0  0
  -22.8046    1.4366   27.2804 C   0  0  0  0  0  0  0  0  0  0  0  0
  -21.8851    0.8278   28.1281 C   0  0  0  0  0  0  0  0  0  0  0  0
  -23.4968   -0.7167   28.6523 N   0  0  0  0  0  0  0  0  0  0  0  0
  -22.2773   -0.2727   28.7886 C   0  0  0  0  0  0  0  0  0  0  0  0
  2  7  1  0
  7  8  2  0
  7  9  1  0
  9 10  1  0
 10 11  1  0
 12 13  1  0
  9 14  1  0
 13 14  1  0
 13 15  1  0
 15 16  2  0
 15 17  1  0
  3 18  1  0
 18 19  1  0
 11 12  1  0
  1  2  2  0
  2  5  1  0
  5  6  2  0
  6  4  1  0
  4  3  2  0
  3  1  1  0
 19 20  2  0
 20 21  1  0
 21 22  2  0
 22 24  1  0
 24 23  2  0
 23 19  1  0
M  END

$$$$
