No_3772-gen_results/8p0m/2024-11-26-14-13-15/
     RDKit          3D

 15 15  0  0  0  0  0  0  0  0999 V2000
  -28.0162   -0.8135   28.8779 C   0  0  0  0  0  0  0  0  0  0  0  0
  -27.0636   -0.1189   28.6079 C   0  0  0  0  0  0  0  0  0  0  0  0
  -26.9716    0.7139   27.5060 C   0  0  0  0  0  0  0  0  0  0  0  0
  -28.1053    0.7744   26.6421 C   0  0  0  0  0  0  0  0  0  0  0  0
  -29.2008    0.1044   27.0527 C   0  0  0  0  0  0  0  0  0  0  0  0
  -29.2096   -0.6029   28.1853 C   0  0  0  0  0  0  0  0  0  0  0  0
  -30.3702    0.2264   26.1604 C   0  0  0  0  0  0  0  0  0  0  0  0
  -30.2991    0.2342   24.9383 N   0  0  0  0  0  0  0  0  0  0  0  0
  -31.5326    0.1001   26.7070 O   0  0  0  0  0  0  0  0  0  0  0  0
  -25.7010   -0.2218   29.4257 C   0  0  0  0  0  0  0  0  0  0  0  0
  -25.4577   -0.8618   30.2628 N   0  0  0  0  0  0  0  0  0  0  0  0
  -24.7209    0.6472   29.0599 O   0  0  0  0  0  0  0  0  0  0  0  0
  -24.2029   -0.9977   31.0409 C   0  0  0  0  0  0  0  0  0  0  0  0
  -24.1133   -0.4183   32.2408 C   0  0  0  0  0  0  0  0  0  0  0  0
  -23.1044   -0.3510   30.1288 C   0  0  0  0  0  0  0  0  0  0  0  0
  5  7  1  0
  7  8  1  0
  7  9  2  0
  2 10  1  0
 10 11  1  0
 10 12  2  0
 11 13  1  0
 13 14  1  0
 13 15  1  0
  1  2  2  0
  2  3  1  0
  3  4  2  0
  4  5  1  0
  5  6  2  0
  6  1  1  0
M  END

$$$$
