No_3766-gen_results/8p0m/2024-11-26-14-13-15/
     RDKit          3D

 27 30  0  0  0  0  0  0  0  0999 V2000
  -28.0162   -0.8135   28.8779 C   0  0  0  0  0  0  0  0  0  0  0  0
  -27.0636   -0.1190   28.6079 C   0  0  0  0  0  0  0  0  0  0  0  0
  -25.7647   -0.3897   29.0360 C   0  0  0  0  0  0  0  0  0  0  0  0
  -25.5296   -1.5302   29.9014 C   0  0  0  0  0  0  0  0  0  0  0  0
  -26.6888   -2.2893   30.1810 C   0  0  0  0  0  0  0  0  0  0  0  0
  -27.8727   -1.9508   29.7373 C   0  0  0  0  0  0  0  0  0  0  0  0
  -24.5491    0.4100   28.7341 C   0  0  0  0  0  0  0  0  0  0  0  0
  -24.4789    1.1871   27.6843 C   0  0  0  0  0  0  0  0  0  0  0  0
  -23.3857    1.8609   27.3612 C   0  0  0  0  0  0  0  0  0  0  0  0
  -22.1453    1.7224   28.0030 C   0  0  0  0  0  0  0  0  0  0  0  0
  -23.3290    0.1820   29.4685 C   0  0  0  0  0  0  0  0  0  0  0  0
  -22.1297    0.8607   29.0762 C   0  0  0  0  0  0  0  0  0  0  0  0
  -29.0365   -2.7861   30.1610 C   0  0  0  0  0  0  0  0  0  0  0  0
  -30.1910   -2.3194   30.1647 N   0  0  0  0  0  0  0  0  0  0  0  0
  -28.8334   -3.9996   30.5066 O   0  0  0  0  0  0  0  0  0  0  0  0
  -31.3875   -3.1021   30.5271 C   0  0  0  0  0  0  0  0  0  0  0  0
  -32.3974   -2.5284   30.7906 C   0  0  0  0  0  0  0  0  0  0  0  0
  -32.6394   -1.4269   30.1685 C   0  0  0  0  0  0  0  0  0  0  0  0
  -33.8706   -0.6111   30.4051 C   0  0  0  0  0  0  0  0  0  0  0  0
  -33.9976    0.6650   29.8550 C   0  0  0  0  0  0  0  0  0  0  0  0
  -32.9700    1.1316   28.9943 C   0  0  0  0  0  0  0  0  0  0  0  0
  -31.8470    0.4082   28.7295 C   0  0  0  0  0  0  0  0  0  0  0  0
  -31.7362   -0.8283   29.3473 C   0  0  0  0  0  0  0  0  0  0  0  0
  -30.4403   -1.3886   29.3512 N   0  0  0  0  0  0  0  0  0  0  0  0
  -23.4068    2.9717   25.9904 Cl  0  0  0  0  0  0  0  0  0  0  0  0
  -35.2565    1.4274   30.0221 C   0  0  0  0  0  0  0  0  0  0  0  0
  -35.7239    1.4873   31.1291 N   0  0  0  0  0  0  0  0  0  0  0  0
  3  7  1  0
  6 13  1  0
 13 14  1  0
 13 15  2  0
 14 16  1  0
 16 17  1  0
 14 24  1  0
  9 25  1  0
 20 26  1  0
 26 27  3  0
 17 18  1  0
 23 24  1  0
  7  8  2  0
  8  9  1  0
  9 10  2  0
 10 12  1  0
 12 11  2  0
 11  7  1  0
  1  2  2  0
  2  3  1  0
  3  4  2  0
  4  5  1  0
  5  6  2  0
  6  1  1  0
 18 19  2  0
 19 20  1  0
 20 21  2  0
 21 22  1  0
 22 23  2  0
 23 18  1  0
M  END

$$$$
