No_3255-gen_results/8p0m/2024-11-26-14-13-15/
     RDKit          3D

 14 15  0  0  0  0  0  0  0  0999 V2000
  -28.0162   -0.8135   28.8779 C   0  0  0  0  0  0  0  0  0  0  0  0
  -28.4690   -0.7850   29.8287 C   0  0  0  0  0  0  0  0  0  0  0  0
  -26.5042   -0.7777   28.8766 C   0  0  0  0  0  0  0  0  0  0  0  0
  -25.9500    0.1157   29.4052 C   0  0  0  0  0  0  0  0  0  0  0  0
  -27.9964    0.1190   30.9527 C   0  0  0  0  0  0  0  0  0  0  0  0
  -26.6037    0.4647   30.8030 C   0  0  0  0  0  0  0  0  0  0  0  0
  -29.8344   -1.0426   30.0554 O   0  0  0  0  0  0  0  0  0  0  0  0
  -30.1176   -2.2790   30.4707 C   0  0  0  0  0  0  0  0  0  0  0  0
  -31.0664   -2.4187   31.4474 C   0  0  0  0  0  0  0  0  0  0  0  0
  -31.8126   -1.4823   31.7844 C   0  0  0  0  0  0  0  0  0  0  0  0
  -32.7650   -1.5727   32.8827 C   0  0  0  0  0  0  0  0  0  0  0  0
  -32.9491   -2.8017   33.4319 C   0  0  0  0  0  0  0  0  0  0  0  0
  -31.1814   -3.7049   32.1878 C   0  0  0  0  0  0  0  0  0  0  0  0
  -32.1251   -3.8522   33.1401 C   0  0  0  0  0  0  0  0  0  0  0  0
  2  7  1  0
  7  8  1  0
  8  9  1  0
  1  2  2  0
  2  5  1  0
  5  6  2  0
  6  4  1  0
  4  3  2  0
  3  1  1  0
  9 10  2  0
 10 11  1  0
 11 12  2  0
 12 14  1  0
 14 13  2  0
 13  9  1  0
M  END

$$$$
