No_3765-gen_results/8p0m/2024-11-26-14-13-15/
     RDKit          3D

 15 16  0  0  0  0  0  0  0  0999 V2000
  -28.0162   -0.8135   28.8779 C   0  0  0  0  0  0  0  0  0  0  0  0
  -27.0636   -0.1189   28.6079 C   0  0  0  0  0  0  0  0  0  0  0  0
  -27.0010    0.6913   27.4910 C   0  0  0  0  0  0  0  0  0  0  0  0
  -25.8548    1.4825   27.0830 C   0  0  0  0  0  0  0  0  0  0  0  0
  -24.6901    1.4526   27.8807 C   0  0  0  0  0  0  0  0  0  0  0  0
  -24.7379    0.6010   29.0416 C   0  0  0  0  0  0  0  0  0  0  0  0
  -25.8234   -0.1688   29.3887 C   0  0  0  0  0  0  0  0  0  0  0  0
  -28.7520   -0.4585   30.1411 C   0  0  0  0  0  0  0  0  0  0  0  0
  -29.8322   -1.2942   30.5903 C   0  0  0  0  0  0  0  0  0  0  0  0
  -29.8522   -2.4986   30.1368 C   0  0  0  0  0  0  0  0  0  0  0  0
  -28.8769   -3.1546   29.5166 C   0  0  0  0  0  0  0  0  0  0  0  0
  -27.8121   -2.4112   29.0387 C   0  0  0  0  0  0  0  0  0  0  0  0
  -23.5121    2.2262   27.5530 C   0  0  0  0  0  0  0  0  0  0  0  0
  -22.4056    2.1455   28.3824 C   0  0  0  0  0  0  0  0  0  0  0  0
  -22.4542    1.1450   29.3962 C   0  0  0  0  0  0  0  0  0  0  0  0
  1  2  1  0
  5 13  1  0
 13 14  2  3
 14 15  1  0
  2  3  2  0
  3  4  1  0
  4  5  2  0
  5  6  1  0
  6  7  2  0
  7  2  1  0
  1  8  2  0
  8  9  1  0
  9 10  2  0
 10 11  1  0
 11 12  2  0
 12  1  1  0
M  END

$$$$
