No_360-gen_results/8p0m/2024-11-26-14-13-15/
     RDKit          3D

 13 14  0  0  0  0  0  0  0  0999 V2000
  -28.0162   -0.8135   28.8779 C   0  0  0  0  0  0  0  0  0  0  0  0
  -28.4690   -0.7850   29.8287 C   0  0  0  0  0  0  0  0  0  0  0  0
  -27.0871    0.2903   28.6377 C   0  0  0  0  0  0  0  0  0  0  0  0
  -26.2516    0.4114   27.4223 C   0  0  0  0  0  0  0  0  0  0  0  0
  -29.4309   -1.9307   30.2714 C   0  0  0  0  0  0  0  0  0  0  0  0
  -28.2721    0.2103   30.9866 C   0  0  0  0  0  0  0  0  0  0  0  0
  -27.4384    1.2352   30.7769 C   0  0  0  0  0  0  0  0  0  0  0  0
  -26.7524    1.2946   29.5985 C   0  0  0  0  0  0  0  0  0  0  0  0
  -25.2022    1.0449   27.2092 C   0  0  0  0  0  0  0  0  0  0  0  0
  -24.9157    2.0643   28.2550 C   0  0  0  0  0  0  0  0  0  0  0  0
  -25.5831    2.1382   29.4206 C   0  0  0  0  0  0  0  0  0  0  0  0
  -28.9765   -3.0371   30.5982 O   0  0  0  0  0  0  0  0  0  0  0  0
  -30.6568   -1.7464   30.3158 O   0  0  0  0  0  0  0  0  0  0  0  0
  2  5  1  0
  5 12  2  0
  5 13  1  0
  3  4  2  0
  4  9  1  0
  9 10  2  0
 10 11  1  0
 11  8  2  0
  1  2  2  0
  2  6  1  0
  6  7  2  0
  7  8  1  0
  8  3  1  0
  3  1  1  0
M  END

$$$$
