No_3168-gen_results/8p0m/2024-11-26-14-13-15/
     RDKit          3D

 22 24  0  0  0  0  0  0  0  0999 V2000
  -28.0162   -0.8135   28.8779 C   0  0  0  0  0  0  0  0  0  0  0  0
  -27.0636   -0.1190   28.6079 C   0  0  0  0  0  0  0  0  0  0  0  0
  -27.0010    0.6913   27.4910 C   0  0  0  0  0  0  0  0  0  0  0  0
  -28.1373    0.7363   26.6350 C   0  0  0  0  0  0  0  0  0  0  0  0
  -29.2360    0.0765   27.0690 C   0  0  0  0  0  0  0  0  0  0  0  0
  -29.2177   -0.6429   28.1747 C   0  0  0  0  0  0  0  0  0  0  0  0
  -27.7872   -1.5838   30.0230 O   0  0  0  0  0  0  0  0  0  0  0  0
  -30.6246    0.1606   26.0938 Cl  0  0  0  0  0  0  0  0  0  0  0  0
  -25.8749    1.3742   27.1185 F   0  0  0  0  0  0  0  0  0  0  0  0
  -25.6496   -0.1743   29.3846 C   0  0  0  0  0  0  0  0  0  0  0  0
  -25.4341    0.6087   30.4296 C   0  0  0  0  0  0  0  0  0  0  0  0
  -26.0202    1.5965   30.8368 C   0  0  0  0  0  0  0  0  0  0  0  0
  -25.5451    2.4340   31.9307 C   0  0  0  0  0  0  0  0  0  0  0  0
  -26.2973    3.4082   32.5974 C   0  0  0  0  0  0  0  0  0  0  0  0
  -27.5240    3.7688   32.0111 C   0  0  0  0  0  0  0  0  0  0  0  0
  -28.0100    3.0413   30.9271 C   0  0  0  0  0  0  0  0  0  0  0  0
  -27.3194    2.0286   30.3911 C   0  0  0  0  0  0  0  0  0  0  0  0
  -24.8398   -1.2503   28.9477 C   0  0  0  0  0  0  0  0  0  0  0  0
  -23.5725   -1.3784   29.4970 C   0  0  0  0  0  0  0  0  0  0  0  0
  -23.1874   -0.5532   30.5399 C   0  0  0  0  0  0  0  0  0  0  0  0
  -24.0239    0.4111   31.0180 C   0  0  0  0  0  0  0  0  0  0  0  0
  -28.7359   -1.6251   31.1102 C   0  0  0  0  0  0  0  0  0  0  0  0
  1  7  1  0
  5  8  1  0
  3  9  1  0
  2 10  1  0
 11 12  1  0
  7 22  1  0
 12 13  2  0
 13 14  1  0
 14 15  2  0
 15 16  1  0
 16 17  2  0
 17 12  1  0
  1  2  2  0
  2  3  1  0
  3  4  2  0
  4  5  1  0
  5  6  2  0
  6  1  1  0
 10 11  2  0
 11 21  1  0
 21 20  2  0
 20 19  1  0
 19 18  2  0
 18 10  1  0
M  END

$$$$
