No_3461-gen_results/8p0m/2024-11-26-14-13-15/
     RDKit          3D

 35 37  0  0  0  0  0  0  0  0999 V2000
  -28.0162   -0.8135   28.8779 C   0  0  0  0  0  0  0  0  0  0  0  0
  -27.0636   -0.1190   28.6079 C   0  0  0  0  0  0  0  0  0  0  0  0
  -27.0010    0.6913   27.4910 C   0  0  0  0  0  0  0  0  0  0  0  0
  -25.8548    1.4825   27.0830 C   0  0  0  0  0  0  0  0  0  0  0  0
  -24.6901    1.4526   27.8807 C   0  0  0  0  0  0  0  0  0  0  0  0
  -24.7379    0.6010   29.0416 C   0  0  0  0  0  0  0  0  0  0  0  0
  -25.8234   -0.1688   29.3887 C   0  0  0  0  0  0  0  0  0  0  0  0
  -29.1483   -0.3188   28.7297 O   0  0  0  0  0  0  0  0  0  0  0  0
  -27.9049   -1.9207   29.6045 O   0  0  0  0  0  0  0  0  0  0  0  0
  -23.5194    2.2057   27.5787 C   0  0  0  0  0  0  0  0  0  0  0  0
  -23.6008    2.9532   26.7190 F   0  0  0  0  0  0  0  0  0  0  0  0
  -22.4340    1.3276   27.2351 F   0  0  0  0  0  0  0  0  0  0  0  0
  -23.0947    2.8629   28.7038 F   0  0  0  0  0  0  0  0  0  0  0  0
  -30.3128   -0.7067   29.5208 C   0  0  0  0  0  0  0  0  0  0  0  0
  -31.4887   -0.8108   29.0349 C   0  0  0  0  0  0  0  0  0  0  0  0
  -31.7191   -0.1621   28.0420 O   0  0  0  0  0  0  0  0  0  0  0  0
  -32.2411   -1.9786   29.2630 N   0  0  0  0  0  0  0  0  0  0  0  0
  -33.4295   -2.2864   28.5329 C   0  0  0  0  0  0  0  0  0  0  0  0
  -31.9310   -2.8736   30.3894 C   0  0  0  0  0  0  0  0  0  0  0  0
  -31.2511   -3.9079   30.0608 C   0  0  0  0  0  0  0  0  0  0  0  0
  -31.0997   -4.3691   29.0607 O   0  0  0  0  0  0  0  0  0  0  0  0
  -30.5738   -4.7034   31.1638 N   0  0  0  0  0  0  0  0  0  0  0  0
  -29.7265   -5.8420   30.9663 C   0  0  0  0  0  0  0  0  0  0  0  0
  -30.7133   -4.1696   32.5185 C   0  0  0  0  0  0  0  0  0  0  0  0
  -29.7544   -3.3267   32.9750 C   0  0  0  0  0  0  0  0  0  0  0  0
  -29.8603   -2.8995   34.3471 C   0  0  0  0  0  0  0  0  0  0  0  0
  -30.7218   -3.4419   35.0219 C   0  0  0  0  0  0  0  0  0  0  0  0
  -31.6548   -4.3703   34.6241 C   0  0  0  0  0  0  0  0  0  0  0  0
  -31.6171   -4.7864   33.2780 C   0  0  0  0  0  0  0  0  0  0  0  0
  -34.5014   -2.4690   29.3872 C   0  0  0  0  0  0  0  0  0  0  0  0
  -34.7417   -1.8796   30.5258 C   0  0  0  0  0  0  0  0  0  0  0  0
  -35.8813   -2.1803   31.3756 C   0  0  0  0  0  0  0  0  0  0  0  0
  -36.7735   -3.1129   30.8547 C   0  0  0  0  0  0  0  0  0  0  0  0
  -36.5620   -3.7096   29.6346 C   0  0  0  0  0  0  0  0  0  0  0  0
  -35.4294   -3.4197   28.8951 C   0  0  0  0  0  0  0  0  0  0  0  0
  1  2  1  0
  1  8  1  0
  1  9  2  0
  5 10  1  0
 10 11  1  0
 10 12  1  0
 10 13  1  0
  8 14  1  0
 14 15  1  0
 15 16  2  0
 15 17  1  0
 17 18  1  0
 17 19  1  0
 19 20  1  0
 20 21  2  0
 20 22  1  0
 22 23  1  0
 22 24  1  0
 18 30  1  0
  2  3  2  0
  3  4  1  0
  4  5  2  0
  5  6  1  0
  6  7  2  0
  7  2  1  0
 24 25  2  0
 25 26  1  0
 26 27  2  0
 27 28  1  0
 28 29  2  0
 29 24  1  0
 30 31  2  0
 31 32  1  0
 32 33  2  0
 33 34  1  0
 34 35  2  0
 35 30  1  0
M  END

$$$$
