No_3647-gen_results/8p0m/2024-11-26-14-13-15/
     RDKit          3D

 21 22  0  0  0  0  0  0  0  0999 V2000
  -28.0162   -0.8135   28.8779 C   0  0  0  0  0  0  0  0  0  0  0  0
  -28.4690   -0.7850   29.8287 C   0  0  0  0  0  0  0  0  0  0  0  0
  -26.5042   -0.7777   28.8766 C   0  0  0  0  0  0  0  0  0  0  0  0
  -25.8103   -0.8531   30.1028 C   0  0  0  0  0  0  0  0  0  0  0  0
  -27.9906   -0.8916   31.2257 C   0  0  0  0  0  0  0  0  0  0  0  0
  -26.6042   -0.8676   31.2652 C   0  0  0  0  0  0  0  0  0  0  0  0
  -24.3894   -0.8049   30.1638 C   0  0  0  0  0  0  0  0  0  0  0  0
  -23.7660   -0.9500   31.0679 C   0  0  0  0  0  0  0  0  0  0  0  0
  -23.6669   -0.5949   28.8837 C   0  0  0  0  0  0  0  0  0  0  0  0
  -22.2646   -0.4068   28.9326 C   0  0  0  0  0  0  0  0  0  0  0  0
  -22.2701   -0.8431   31.2960 C   0  0  0  0  0  0  0  0  0  0  0  0
  -21.5958   -0.5414   30.1031 C   0  0  0  0  0  0  0  0  0  0  0  0
  -30.0892   -0.7796   29.8440 C   0  0  0  0  0  0  0  0  0  0  0  0
  -30.6985    0.2902   30.2610 N   0  0  0  0  0  0  0  0  0  0  0  0
  -30.2018    1.2614   30.6106 C   0  0  0  0  0  0  0  0  0  0  0  0
  -30.2943    2.4408   30.7944 C   0  0  0  0  0  0  0  0  0  0  0  0
  -31.6293    3.0177   30.5704 C   0  0  0  0  0  0  0  0  0  0  0  0
  -31.9500    4.3363   30.7246 C   0  0  0  0  0  0  0  0  0  0  0  0
  -33.2525    4.8074   30.5191 C   0  0  0  0  0  0  0  0  0  0  0  0
  -34.2028    3.8595   30.0865 C   0  0  0  0  0  0  0  0  0  0  0  0
  -33.8719    2.5560   29.9042 C   0  0  0  0  0  0  0  0  0  0  0  0
  4  7  1  0
  2 13  1  0
 13 14  1  0
 14 15  1  0
 15 16  2  3
 16 17  1  0
 17 18  2  3
 18 19  1  0
 19 20  2  3
 20 21  1  0
  7  8  2  0
  8 11  1  0
 11 12  2  0
 12 10  1  0
 10  9  2  0
  9  7  1  0
  1  2  2  0
  2  5  1  0
  5  6  2  0
  6  4  1  0
  4  3  2  0
  3  1  1  0
M  END

$$$$
