No_3115-gen_results/8p0m/2024-11-26-14-13-15/
     RDKit          3D

 14 15  0  0  0  0  0  0  0  0999 V2000
  -28.0162   -0.8135   28.8779 C   0  0  0  0  0  0  0  0  0  0  0  0
  -28.4690   -0.7850   29.8287 C   0  0  0  0  0  0  0  0  0  0  0  0
  -26.5455   -0.8762   28.8500 C   0  0  0  0  0  0  0  0  0  0  0  0
  -25.8041   -1.0324   30.0571 C   0  0  0  0  0  0  0  0  0  0  0  0
  -27.9437   -0.9869   31.2075 C   0  0  0  0  0  0  0  0  0  0  0  0
  -26.5825   -1.0386   31.2231 C   0  0  0  0  0  0  0  0  0  0  0  0
  -29.9659   -0.7667   30.0780 N   0  0  0  0  0  0  0  0  0  0  0  0
  -30.6257   -1.8500   30.2199 C   0  0  0  0  0  0  0  0  0  0  0  0
  -30.4201   -2.8509   30.4686 C   0  0  0  0  0  0  0  0  0  0  0  0
  -31.2633   -4.0794   30.5571 C   0  0  0  0  0  0  0  0  0  0  0  0
  -30.8981   -5.4090   30.7416 C   0  0  0  0  0  0  0  0  0  0  0  0
  -29.5508   -5.5857   31.0256 C   0  0  0  0  0  0  0  0  0  0  0  0
  -28.5786   -4.6403   30.9468 C   0  0  0  0  0  0  0  0  0  0  0  0
  -28.9223   -3.4316   30.7222 C   0  0  0  0  0  0  0  0  0  0  0  0
  2  7  1  0
  7  8  1  0
  8  9  1  0
  9 10  2  0
 10 11  1  0
 11 12  2  0
 12 13  1  0
 13 14  2  0
 14  9  1  0
  1  2  2  0
  2  5  1  0
  5  6  2  0
  6  4  1  0
  4  3  2  0
  3  1  1  0
M  END

$$$$
