No_3637-gen_results/8p0m/2024-11-26-14-13-15/
     RDKit          3D

 24 27  0  0  0  0  0  0  0  0999 V2000
  -28.0162   -0.8135   28.8779 C   0  0  0  0  0  0  0  0  0  0  0  0
  -28.4690   -0.7850   29.8287 C   0  0  0  0  0  0  0  0  0  0  0  0
  -27.1356    0.2359   28.5352 C   0  0  0  0  0  0  0  0  0  0  0  0
  -26.8745    1.2825   29.3982 C   0  0  0  0  0  0  0  0  0  0  0  0
  -27.5070    1.2380   30.6295 C   0  0  0  0  0  0  0  0  0  0  0  0
  -28.3269    0.1637   30.9240 C   0  0  0  0  0  0  0  0  0  0  0  0
  -26.4110    0.3070   27.2192 C   0  0  0  0  0  0  0  0  0  0  0  0
  -25.6218    1.4685   26.9657 C   0  0  0  0  0  0  0  0  0  0  0  0
  -24.6222    1.4841   26.1826 C   0  0  0  0  0  0  0  0  0  0  0  0
  -23.7507    2.7452   26.1118 C   0  0  0  0  0  0  0  0  0  0  0  0
  -24.1488    3.8497   26.9086 C   0  0  0  0  0  0  0  0  0  0  0  0
  -25.5358    2.8667   27.7387 C   0  0  0  0  0  0  0  0  0  0  0  0
  -26.1532    3.4811   28.7192 C   0  0  0  0  0  0  0  0  0  0  0  0
  -26.0608    2.6030   29.1913 C   0  0  0  0  0  0  0  0  0  0  0  0
  -27.3768    3.9890   28.2266 C   0  0  0  0  0  0  0  0  0  0  0  0
  -28.2106    4.5157   28.7408 C   0  0  0  0  0  0  0  0  0  0  0  0
  -27.7302    3.6988   26.7760 C   0  0  0  0  0  0  0  0  0  0  0  0
  -29.5558    4.8564   28.3975 C   0  0  0  0  0  0  0  0  0  0  0  0
  -28.9969    4.0530   26.2847 C   0  0  0  0  0  0  0  0  0  0  0  0
  -29.8643    4.6642   27.0791 C   0  0  0  0  0  0  0  0  0  0  0  0
  -24.9661    2.5450   30.4204 C   0  0  0  0  0  0  0  0  0  0  0  0
  -25.0555    1.8194   31.2867 O   0  0  0  0  0  0  0  0  0  0  0  0
  -26.0760   -0.6932   26.6659 O   0  0  0  0  0  0  0  0  0  0  0  0
  -23.8300    2.9980   30.0503 O   0  0  0  0  0  0  0  0  0  0  0  0
  3  7  1  0
  7  8  1  0
  8  9  2  0
  9 10  1  0
 10 11  2  0
  8 12  1  0
 11 12  1  0
 12 13  1  0
  4 14  1  0
 13 14  1  0
 13 15  1  0
 14 21  1  0
 21 22  1  0
  7 23  2  0
 21 24  2  0
  1  2  2  0
  2  6  1  0
  6  5  2  0
  5  4  1  0
  4  3  2  0
  3  1  1  0
 15 16  2  0
 16 18  1  0
 18 20  2  0
 20 19  1  0
 19 17  2  0
 17 15  1  0
M  END

$$$$
