No_3473-gen_results/8p0m/2024-11-26-14-13-15/
     RDKit          3D

 13 14  0  0  0  0  0  0  0  0999 V2000
  -28.0162   -0.8135   28.8779 C   0  0  0  0  0  0  0  0  0  0  0  0
  -27.0636   -0.1190   28.6079 C   0  0  0  0  0  0  0  0  0  0  0  0
  -26.9287    1.1713   29.0083 C   0  0  0  0  0  0  0  0  0  0  0  0
  -27.9560    1.7411   29.7840 C   0  0  0  0  0  0  0  0  0  0  0  0
  -29.0569   -0.3271   29.7466 C   0  0  0  0  0  0  0  0  0  0  0  0
  -28.9828    0.9722   30.1516 C   0  0  0  0  0  0  0  0  0  0  0  0
  -25.8907   -0.6263   27.7857 C   0  0  0  0  0  0  0  0  0  0  0  0
  -24.7182   -1.0610   28.6129 C   0  0  0  0  0  0  0  0  0  0  0  0
  -24.6426   -2.2493   29.0885 C   0  0  0  0  0  0  0  0  0  0  0  0
  -23.6411   -0.1372   28.7805 C   0  0  0  0  0  0  0  0  0  0  0  0
  -22.4762   -0.6276   29.4929 C   0  0  0  0  0  0  0  0  0  0  0  0
  -23.4469   -2.7483   29.7207 C   0  0  0  0  0  0  0  0  0  0  0  0
  -22.4212   -1.8727   29.9506 C   0  0  0  0  0  0  0  0  0  0  0  0
  2  7  1  0
  7  8  1  0
  1  2  2  0
  2  3  1  0
  3  4  2  0
  4  6  1  0
  6  5  2  0
  5  1  1  0
  8  9  2  0
  9 12  1  0
 12 13  2  0
 13 11  1  0
 11 10  2  0
 10  8  1  0
M  END

$$$$
