No_3005-gen_results/8p0m/2024-11-26-14-13-15/
     RDKit          3D

 22 24  0  0  0  0  0  0  0  0999 V2000
  -28.0162   -0.8135   28.8779 C   0  0  0  0  0  0  0  0  0  0  0  0
  -27.0636   -0.1189   28.6079 C   0  0  0  0  0  0  0  0  0  0  0  0
  -25.7647   -0.3897   29.0360 C   0  0  0  0  0  0  0  0  0  0  0  0
  -24.5516    0.4058   28.7646 C   0  0  0  0  0  0  0  0  0  0  0  0
  -23.2300    0.1178   29.2575 C   0  0  0  0  0  0  0  0  0  0  0  0
  -22.1393    0.9427   28.9224 C   0  0  0  0  0  0  0  0  0  0  0  0
  -28.1527   -1.3406   30.0768 C   0  0  0  0  0  0  0  0  0  0  0  0
  -26.9134   -1.7801   30.7559 C   0  0  0  0  0  0  0  0  0  0  0  0
  -25.6477   -1.2144   30.2938 C   0  0  0  0  0  0  0  0  0  0  0  0
  -22.2199    1.8665   27.8387 C   0  0  0  0  0  0  0  0  0  0  0  0
  -24.5674    1.4382   27.7343 C   0  0  0  0  0  0  0  0  0  0  0  0
  -23.4292    2.1257   27.3414 C   0  0  0  0  0  0  0  0  0  0  0  0
  -29.3311   -2.0985   30.5732 C   0  0  0  0  0  0  0  0  0  0  0  0
  -29.5125   -3.1891   30.8009 O   0  0  0  0  0  0  0  0  0  0  0  0
  -30.3956   -1.2800   30.7664 O   0  0  0  0  0  0  0  0  0  0  0  0
  -23.6349    3.2790   26.0681 Cl  0  0  0  0  0  0  0  0  0  0  0  0
  -30.4158   -0.1331   30.8495 C   0  0  0  0  0  0  0  0  0  0  0  0
  -31.0481    0.5026   29.9311 C   0  0  0  0  0  0  0  0  0  0  0  0
  -30.9889    1.9870   29.8700 C   0  0  0  0  0  0  0  0  0  0  0  0
  -30.2935    2.6565   30.8821 C   0  0  0  0  0  0  0  0  0  0  0  0
  -29.6701    1.9161   31.8829 C   0  0  0  0  0  0  0  0  0  0  0  0
  -29.6651    0.5974   31.8410 C   0  0  0  0  0  0  0  0  0  0  0  0
  3  4  1  0
  7 13  1  0
 13 14  2  0
 13 15  1  0
 12 16  1  0
 15 17  1  0
 17 18  2  0
 18 19  1  0
 19 20  2  0
 20 21  1  0
 21 22  2  0
 22 17  1  0
  1  2  2  0
  2  3  1  0
  3  9  2  0
  9  8  1  0
  8  7  2  0
  7  1  1  0
  4  5  2  0
  5  6  1  0
  6 10  2  0
 10 12  1  0
 12 11  2  0
 11  4  1  0
M  END

$$$$
