No_3912-gen_results/8p0m/2024-11-26-14-13-15/
     RDKit          3D

 16 17  0  0  0  0  0  0  0  0999 V2000
  -28.0162   -0.8135   28.8779 C   0  0  0  0  0  0  0  0  0  0  0  0
  -28.4690   -0.7850   29.8287 C   0  0  0  0  0  0  0  0  0  0  0  0
  -26.5042   -0.7777   28.8766 C   0  0  0  0  0  0  0  0  0  0  0  0
  -25.8103   -0.8531   30.1028 C   0  0  0  0  0  0  0  0  0  0  0  0
  -27.9906   -0.8916   31.2257 C   0  0  0  0  0  0  0  0  0  0  0  0
  -26.6042   -0.8676   31.2652 C   0  0  0  0  0  0  0  0  0  0  0  0
  -24.3894   -0.8050   30.1639 C   0  0  0  0  0  0  0  0  0  0  0  0
  -23.8172    0.4762   29.9118 C   0  0  0  0  0  0  0  0  0  0  0  0
  -24.1955    1.5984   30.1917 C   0  0  0  0  0  0  0  0  0  0  0  0
  -25.4059    1.7758   30.9280 C   0  0  0  0  0  0  0  0  0  0  0  0
  -25.8155    3.1571   31.2756 C   0  0  0  0  0  0  0  0  0  0  0  0
  -26.7081    3.4152   32.2501 C   0  0  0  0  0  0  0  0  0  0  0  0
  -27.1750    4.6855   32.4676 C   0  0  0  0  0  0  0  0  0  0  0  0
  -26.7207    5.7554   31.6699 C   0  0  0  0  0  0  0  0  0  0  0  0
  -25.8456    5.5022   30.6830 C   0  0  0  0  0  0  0  0  0  0  0  0
  -25.3779    4.2133   30.4438 C   0  0  0  0  0  0  0  0  0  0  0  0
  4  7  1  0
  7  8  1  0
  8  9  2  3
  9 10  1  0
 10 11  1  0
 11 12  2  0
 12 13  1  0
 13 14  2  0
 14 15  1  0
 15 16  2  0
 16 11  1  0
  1  2  2  0
  2  5  1  0
  5  6  2  0
  6  4  1  0
  4  3  2  0
  3  1  1  0
M  END

$$$$
