No_3162-gen_results/8p0m/2024-11-26-14-13-15/
     RDKit          3D

 12 12  0  0  0  0  0  0  0  0999 V2000
  -28.1229   -1.3353   28.4874 O   0  0  0  0  0  0  0  0  0  0  0  0
  -28.5208   -0.4363   29.0779 C   0  0  0  0  0  0  0  0  0  0  0  0
  -27.7860    0.1607   30.0148 N   0  0  0  0  0  0  0  0  0  0  0  0
  -29.7574   -0.2611   29.1680 F   0  0  0  0  0  0  0  0  0  0  0  0
  -28.1274    1.0321   30.9522 C   0  0  0  0  0  0  0  0  0  0  0  0
  -26.3965   -0.3578   30.1728 C   0  0  0  0  0  0  0  0  0  0  0  0
  -25.5024    0.5892   29.7239 C   0  0  0  0  0  0  0  0  0  0  0  0
  -25.4411    1.0691   28.5137 C   0  0  0  0  0  0  0  0  0  0  0  0
  -24.4332    1.9752   28.1165 C   0  0  0  0  0  0  0  0  0  0  0  0
  -23.2303    2.0405   28.8627 C   0  0  0  0  0  0  0  0  0  0  0  0
  -23.1965    1.4402   30.0985 C   0  0  0  0  0  0  0  0  0  0  0  0
  -24.2855    0.6856   30.6319 C   0  0  0  0  0  0  0  0  0  0  0  0
  1  2  2  0
  2  3  1  0
  2  4  1  0
  3  5  1  0
  3  6  1  0
  6  7  1  0
  7  8  2  0
  8  9  1  0
  9 10  2  0
 10 11  1  0
 11 12  2  0
 12  7  1  0
M  END

$$$$
