No_3936-gen_results/8p0m/2024-11-26-14-13-15/
     RDKit          3D

 19 20  0  0  0  0  0  0  0  0999 V2000
  -28.0162   -0.8135   28.8779 C   0  0  0  0  0  0  0  0  0  0  0  0
  -28.4690   -0.7850   29.8287 C   0  0  0  0  0  0  0  0  0  0  0  0
  -27.1356    0.2359   28.5352 C   0  0  0  0  0  0  0  0  0  0  0  0
  -26.3351    0.2900   27.2835 C   0  0  0  0  0  0  0  0  0  0  0  0
  -29.3807   -1.9134   30.3549 C   0  0  0  0  0  0  0  0  0  0  0  0
  -28.2059    0.3924   30.8190 C   0  0  0  0  0  0  0  0  0  0  0  0
  -26.6818    1.3524   29.3966 C   0  0  0  0  0  0  0  0  0  0  0  0
  -27.3948    1.3448   30.6004 C   0  0  0  0  0  0  0  0  0  0  0  0
  -25.2059    0.7322   27.0258 C   0  0  0  0  0  0  0  0  0  0  0  0
  -24.7121    1.7034   28.0155 C   0  0  0  0  0  0  0  0  0  0  0  0
  -23.4148    2.4026   27.8278 C   0  0  0  0  0  0  0  0  0  0  0  0
  -25.4268    1.9451   29.2313 C   0  0  0  0  0  0  0  0  0  0  0  0
  -22.9264    2.4988   26.6474 O   0  0  0  0  0  0  0  0  0  0  0  0
  -28.9966   -3.0836   30.4748 O   0  0  0  0  0  0  0  0  0  0  0  0
  -30.6114   -1.6450   30.7087 N   0  0  0  0  0  0  0  0  0  0  0  0
  -31.2537   -0.3706   30.6497 C   0  0  0  0  0  0  0  0  0  0  0  0
  -32.5860   -0.4871   30.9028 C   0  0  0  0  0  0  0  0  0  0  0  0
  -31.4777   -2.5342   31.4253 C   0  0  0  0  0  0  0  0  0  0  0  0
  -33.4696    0.5284   30.7757 C   0  0  0  0  0  0  0  0  0  0  0  0
  2  5  1  0
 10 11  1  0
 11 13  2  0
  5 14  2  0
  5 15  1  0
 15 16  1  0
 16 17  2  3
 15 18  1  0
 17 19  1  0
  3  4  2  0
  4  9  1  0
  9 10  2  0
 10 12  1  0
 12  7  2  0
  1  2  2  0
  2  6  1  0
  6  8  2  0
  8  7  1  0
  7  3  1  0
  3  1  1  0
M  END

$$$$
