No_3150-gen_results/8p0m/2024-11-26-14-13-15/
     RDKit          3D

 14 13  0  0  0  0  0  0  0  0999 V2000
  -28.1229   -1.3353   28.4874 O   0  0  0  0  0  0  0  0  0  0  0  0
  -27.4806   -0.4044   28.7094 C   0  0  0  0  0  0  0  0  0  0  0  0
  -26.3804   -0.0867   27.9394 C   0  0  0  0  0  0  0  0  0  0  0  0
  -27.8993    0.6459   29.6320 N   0  0  0  0  0  0  0  0  0  0  0  0
  -25.1243   -0.5319   28.3714 C   0  0  0  0  0  0  0  0  0  0  0  0
  -24.3832    0.1011   29.3620 C   0  0  0  0  0  0  0  0  0  0  0  0
  -24.7160    1.3454   29.7556 C   0  0  0  0  0  0  0  0  0  0  0  0
  -28.9891    0.3355   30.4716 C   0  0  0  0  0  0  0  0  0  0  0  0
  -23.9228    1.9979   30.7598 C   0  0  0  0  0  0  0  0  0  0  0  0
  -24.3130    1.8934   31.8449 C   0  0  0  0  0  0  0  0  0  0  0  0
  -25.4215    2.1895   32.4437 C   0  0  0  0  0  0  0  0  0  0  0  0
  -26.4418    2.4794   31.3904 C   0  0  0  0  0  0  0  0  0  0  0  0
  -26.1155    2.6567   30.2560 C   0  0  0  0  0  0  0  0  0  0  0  0
  -26.4600    3.3069   29.0330 C   0  0  0  0  0  0  0  0  0  0  0  0
  1  2  2  0
  2  3  1  0
  2  4  1  0
  3  5  1  0
  5  6  2  3
  6  7  1  0
  4  8  1  0
  7  9  2  3
  9 10  1  0
 10 11  2  3
 11 12  1  0
 12 13  2  3
 13 14  1  0
M  END

$$$$
