No_3281-gen_results/8p0m/2024-11-26-14-13-15/
     RDKit          3D

 35 38  0  0  0  0  0  0  0  0999 V2000
  -28.0162   -0.8135   28.8779 C   0  0  0  0  0  0  0  0  0  0  0  0
  -28.4690   -0.7850   29.8287 C   0  0  0  0  0  0  0  0  0  0  0  0
  -28.1960    0.3478   28.0550 C   0  0  0  0  0  0  0  0  0  0  0  0
  -29.0191    1.3501   28.3782 C   0  0  0  0  0  0  0  0  0  0  0  0
  -28.3170   -1.9812   30.8560 C   0  0  0  0  0  0  0  0  0  0  0  0
  -29.5950    1.2859   29.6049 C   0  0  0  0  0  0  0  0  0  0  0  0
  -29.3465    0.2093   30.3749 C   0  0  0  0  0  0  0  0  0  0  0  0
  -28.1267   -3.1188   30.3757 N   0  0  0  0  0  0  0  0  0  0  0  0
  -27.0027   -3.4826   29.7808 C   0  0  0  0  0  0  0  0  0  0  0  0
  -29.1386   -4.1853   30.3329 C   0  0  0  0  0  0  0  0  0  0  0  0
  -25.9366   -2.6844   29.7993 N   0  0  0  0  0  0  0  0  0  0  0  0
  -24.7270   -3.1381   29.2750 C   0  0  0  0  0  0  0  0  0  0  0  0
  -24.6838   -4.3837   28.9197 N   0  0  0  0  0  0  0  0  0  0  0  0
  -26.6302   -4.8419   29.6771 C   0  0  0  0  0  0  0  0  0  0  0  0
  -25.4854   -5.2587   29.1522 C   0  0  0  0  0  0  0  0  0  0  0  0
  -29.6164   -4.4621   31.6738 C   0  0  0  0  0  0  0  0  0  0  0  0
  -31.0240   -5.0385   31.6291 Br  0  0  0  0  0  0  0  0  0  0  0  0
  -23.7403   -2.2013   29.0088 N   0  0  0  0  0  0  0  0  0  0  0  0
  -23.8977   -0.9426   28.7249 C   0  0  0  0  0  0  0  0  0  0  0  0
  -22.8363   -0.0157   28.9233 C   0  0  0  0  0  0  0  0  0  0  0  0
  -22.9273    1.3184   28.4820 C   0  0  0  0  0  0  0  0  0  0  0  0
  -24.1110    1.7923   27.8600 C   0  0  0  0  0  0  0  0  0  0  0  0
  -25.1066    0.8496   27.6904 C   0  0  0  0  0  0  0  0  0  0  0  0
  -24.9763   -0.4639   28.0512 C   0  0  0  0  0  0  0  0  0  0  0  0
  -24.2360    3.1764   27.4402 C   0  0  0  0  0  0  0  0  0  0  0  0
  -25.0493    4.0263   28.1816 C   0  0  0  0  0  0  0  0  0  0  0  0
  -25.6214    3.7125   29.3998 C   0  0  0  0  0  0  0  0  0  0  0  0
  -26.4299    4.6616   30.0684 C   0  0  0  0  0  0  0  0  0  0  0  0
  -27.0317    4.3528   31.3388 C   0  0  0  0  0  0  0  0  0  0  0  0
  -26.7828    3.0624   31.8427 C   0  0  0  0  0  0  0  0  0  0  0  0
  -25.9940    2.1430   31.2419 C   0  0  0  0  0  0  0  0  0  0  0  0
  -25.4080    2.4963   30.0005 C   0  0  0  0  0  0  0  0  0  0  0  0
  -25.7665    0.8544   31.8702 C   0  0  0  0  0  0  0  0  0  0  0  0
  -25.2532    0.0001   31.1196 F   0  0  0  0  0  0  0  0  0  0  0  0
  -24.8779    1.0223   32.9294 F   0  0  0  0  0  0  0  0  0  0  0  0
  2  5  1  0
  5  8  1  0
  8  9  1  0
  8 10  1  0
 10 16  1  0
 16 17  1  0
 12 18  1  0
 18 19  1  0
 22 25  1  0
 25 26  1  0
 26 27  1  0
 31 33  1  0
 33 34  1  0
 33 35  1  0
 27 28  2  0
 28 29  1  0
 29 30  2  0
 30 31  1  0
 31 32  2  0
 32 27  1  0
  9 11  2  0
 11 12  1  0
 12 13  2  0
 13 15  1  0
 15 14  2  0
 14  9  1  0
 19 20  2  0
 20 21  1  0
 21 22  2  0
 22 23  1  0
 23 24  2  0
 24 19  1  0
  1  2  2  0
  2  7  1  0
  7  6  2  0
  6  4  1  0
  4  3  2  0
  3  1  1  0
M  END

$$$$
