No_3173-gen_results/8p0m/2024-11-26-14-13-15/
     RDKit          3D

 11 11  0  0  0  0  0  0  0  0999 V2000
  -28.0162   -0.8135   28.8779 C   0  0  0  0  0  0  0  0  0  0  0  0
  -27.0636   -0.1189   28.6079 C   0  0  0  0  0  0  0  0  0  0  0  0
  -27.0010    0.6913   27.4910 C   0  0  0  0  0  0  0  0  0  0  0  0
  -28.1373    0.7363   26.6350 C   0  0  0  0  0  0  0  0  0  0  0  0
  -29.2360    0.0765   27.0690 C   0  0  0  0  0  0  0  0  0  0  0  0
  -29.2177   -0.6429   28.1747 C   0  0  0  0  0  0  0  0  0  0  0  0
  -30.3423    0.1617   26.2790 O   0  0  0  0  0  0  0  0  0  0  0  0
  -25.5437   -0.2201   29.5373 Cl  0  0  0  0  0  0  0  0  0  0  0  0
  -28.0366   -1.7061   30.1338 C   0  0  0  0  0  0  0  0  0  0  0  0
  -28.2657   -1.3383   31.1695 O   0  0  0  0  0  0  0  0  0  0  0  0
  -27.6798   -2.9611   29.8999 O   0  0  0  0  0  0  0  0  0  0  0  0
  5  7  1  0
  2  8  1  0
  1  9  1  0
  9 10  1  0
  9 11  2  0
  1  2  2  0
  2  3  1  0
  3  4  2  0
  4  5  1  0
  5  6  2  0
  6  1  1  0
M  END

$$$$
