No_3710-gen_results/8p0m/2024-11-26-14-13-15/
     RDKit          3D

 18 21  0  0  0  0  0  0  0  0999 V2000
  -28.1493   -0.8198   28.9079 Cl  0  0  0  0  0  0  0  0  0  0  0  0
  -27.8339    0.4961   29.0598 C   0  0  0  0  0  0  0  0  0  0  0  0
  -27.6022    1.0128   30.2974 C   0  0  0  0  0  0  0  0  0  0  0  0
  -27.1699    2.3964   30.5338 C   0  0  0  0  0  0  0  0  0  0  0  0
  -26.9133    3.1828   29.3680 C   0  0  0  0  0  0  0  0  0  0  0  0
  -26.4454    4.5053   29.4808 C   0  0  0  0  0  0  0  0  0  0  0  0
  -26.1618    4.9962   30.8041 C   0  0  0  0  0  0  0  0  0  0  0  0
  -26.3580    4.1920   31.9306 C   0  0  0  0  0  0  0  0  0  0  0  0
  -26.8159    2.9100   31.7920 C   0  0  0  0  0  0  0  0  0  0  0  0
  -27.6214    1.4101   27.9165 C   0  0  0  0  0  0  0  0  0  0  0  0
  -27.1438    2.7333   28.0856 C   0  0  0  0  0  0  0  0  0  0  0  0
  -26.1094    5.4387   28.4223 C   0  0  0  0  0  0  0  0  0  0  0  0
  -25.5478    4.9475   27.2155 C   0  0  0  0  0  0  0  0  0  0  0  0
  -25.8788    3.8601   26.4322 C   0  0  0  0  0  0  0  0  0  0  0  0
  -26.3333    2.7732   27.0113 C   0  0  0  0  0  0  0  0  0  0  0  0
  -26.5743    1.7276   25.9785 C   0  0  0  0  0  0  0  0  0  0  0  0
  -26.0312    1.2330   24.9365 C   0  0  0  0  0  0  0  0  0  0  0  0
  -27.4949    0.7631   26.7467 C   0  0  0  0  0  0  0  0  0  0  0  0
  1  2  1  0
  6 12  1  0
 12 13  1  0
 13 14  2  0
 11 15  1  0
 14 15  1  0
 15 16  1  0
 16 17  1  0
 10 18  1  0
 16 18  1  0
  2  3  2  0
  3  4  1  0
  5 11  1  0
 11 10  2  0
 10  2  1  0
  4  5  2  0
  5  6  1  0
  6  7  2  0
  7  8  1  0
  8  9  2  0
  9  4  1  0
M  END

$$$$
