No_345-gen_results/8p0m/2024-11-26-14-13-15/
     RDKit          3D

 17 18  0  0  0  0  0  0  0  0999 V2000
  -28.0162   -0.8135   28.8779 C   0  0  0  0  0  0  0  0  0  0  0  0
  -27.0636   -0.1189   28.6079 C   0  0  0  0  0  0  0  0  0  0  0  0
  -25.7923   -0.4302   29.0761 C   0  0  0  0  0  0  0  0  0  0  0  0
  -25.5756   -1.5654   29.9363 C   0  0  0  0  0  0  0  0  0  0  0  0
  -26.7354   -2.3004   30.2173 C   0  0  0  0  0  0  0  0  0  0  0  0
  -27.9184   -1.9537   29.7629 C   0  0  0  0  0  0  0  0  0  0  0  0
  -27.1229    1.0229   27.8500 O   0  0  0  0  0  0  0  0  0  0  0  0
  -26.9669    2.2204   28.1879 C   0  0  0  0  0  0  0  0  0  0  0  0
  -26.5323    3.0870   27.3718 C   0  0  0  0  0  0  0  0  0  0  0  0
  -26.0668    2.7879   26.0579 C   0  0  0  0  0  0  0  0  0  0  0  0
  -27.2703    2.5921   29.5720 C   0  0  0  0  0  0  0  0  0  0  0  0
  -27.1009    3.9367   29.8824 C   0  0  0  0  0  0  0  0  0  0  0  0
  -26.2429    4.5058   27.7889 C   0  0  0  0  0  0  0  0  0  0  0  0
  -26.5811    4.8646   29.0463 C   0  0  0  0  0  0  0  0  0  0  0  0
  -26.3537    6.2696   29.5005 C   0  0  0  0  0  0  0  0  0  0  0  0
  -25.9457    6.5063   30.5757 O   0  0  0  0  0  0  0  0  0  0  0  0
  -26.4946    7.2036   28.6139 O   0  0  0  0  0  0  0  0  0  0  0  0
  2  7  1  0
  7  8  1  0
  9 10  1  0
 14 15  1  0
 15 16  1  0
 15 17  2  0
  1  2  2  0
  2  3  1  0
  3  4  2  0
  4  5  1  0
  5  6  2  0
  6  1  1  0
  8  9  2  0
  9 13  1  0
 13 14  2  0
 14 12  1  0
 12 11  2  0
 11  8  1  0
M  END

$$$$
