No_3678-gen_results/8p0m/2024-11-26-14-13-15/
     RDKit          3D

 23 25  0  0  0  0  0  0  0  0999 V2000
  -28.0162   -0.8135   28.8779 C   0  0  0  0  0  0  0  0  0  0  0  0
  -27.0636   -0.1190   28.6079 C   0  0  0  0  0  0  0  0  0  0  0  0
  -25.7647   -0.3897   29.0360 C   0  0  0  0  0  0  0  0  0  0  0  0
  -25.5296   -1.5302   29.9014 C   0  0  0  0  0  0  0  0  0  0  0  0
  -26.6888   -2.2893   30.1810 C   0  0  0  0  0  0  0  0  0  0  0  0
  -27.8727   -1.9508   29.7373 C   0  0  0  0  0  0  0  0  0  0  0  0
  -24.3819    0.5593   28.6789 Cl  0  0  0  0  0  0  0  0  0  0  0  0
  -29.0263   -2.8156   30.1581 C   0  0  0  0  0  0  0  0  0  0  0  0
  -30.2057   -2.2721   30.2644 N   0  0  0  0  0  0  0  0  0  0  0  0
  -28.8635   -4.0272   30.4461 O   0  0  0  0  0  0  0  0  0  0  0  0
  -31.3783   -3.0558   30.6349 C   0  0  0  0  0  0  0  0  0  0  0  0
  -32.4378   -2.7266   29.9728 C   0  0  0  0  0  0  0  0  0  0  0  0
  -33.1791   -3.2429   29.3682 C   0  0  0  0  0  0  0  0  0  0  0  0
  -34.3521   -2.7726   28.5277 C   0  0  0  0  0  0  0  0  0  0  0  0
  -34.5320   -1.3959   28.5438 C   0  0  0  0  0  0  0  0  0  0  0  0
  -33.6834   -0.6034   29.2131 C   0  0  0  0  0  0  0  0  0  0  0  0
  -32.6122   -1.1250   29.9013 C   0  0  0  0  0  0  0  0  0  0  0  0
  -33.8800    0.8760   29.2081 C   0  0  0  0  0  0  0  0  0  0  0  0
  -33.4458    1.8188   29.1257 C   0  0  0  0  0  0  0  0  0  0  0  0
  -33.9436    3.1609   29.2205 C   0  0  0  0  0  0  0  0  0  0  0  0
  -35.3123    3.2267   29.3122 C   0  0  0  0  0  0  0  0  0  0  0  0
  -36.0257    2.1082   29.3916 C   0  0  0  0  0  0  0  0  0  0  0  0
  -35.4628    0.8952   29.3885 C   0  0  0  0  0  0  0  0  0  0  0  0
  3  7  1  0
  6  8  1  0
  8  9  1  0
  8 10  2  0
  9 11  1  0
 11 12  1  0
 16 18  1  0
 12 13  2  0
 13 14  1  0
 14 15  2  0
 15 16  1  0
 16 17  2  0
 17 12  1  0
  1  2  2  0
  2  3  1  0
  3  4  2  0
  4  5  1  0
  5  6  2  0
  6  1  1  0
 18 19  2  0
 19 20  1  0
 20 21  2  0
 21 22  1  0
 22 23  2  0
 23 18  1  0
M  END

$$$$
