No_3960-gen_results/8p0m/2024-11-26-14-13-15/
     RDKit          3D

 26 28  0  0  0  0  0  0  0  0999 V2000
  -28.0162   -0.8135   28.8779 C   0  0  0  0  0  0  0  0  0  0  0  0
  -27.0636   -0.1190   28.6079 C   0  0  0  0  0  0  0  0  0  0  0  0
  -25.7647   -0.3897   29.0360 C   0  0  0  0  0  0  0  0  0  0  0  0
  -24.5516    0.4058   28.7646 C   0  0  0  0  0  0  0  0  0  0  0  0
  -24.6957    1.4480   27.7988 C   0  0  0  0  0  0  0  0  0  0  0  0
  -23.5821    2.2165   27.4626 C   0  0  0  0  0  0  0  0  0  0  0  0
  -22.3295    1.8427   27.9661 C   0  0  0  0  0  0  0  0  0  0  0  0
  -22.1809    0.8284   28.8814 C   0  0  0  0  0  0  0  0  0  0  0  0
  -23.3190    0.0774   29.2471 C   0  0  0  0  0  0  0  0  0  0  0  0
  -27.8976   -1.8938   29.8574 C   0  0  0  0  0  0  0  0  0  0  0  0
  -26.6550   -2.3404   30.2745 C   0  0  0  0  0  0  0  0  0  0  0  0
  -25.5323   -1.5588   29.9128 C   0  0  0  0  0  0  0  0  0  0  0  0
  -29.0612   -2.7220   30.2437 C   0  0  0  0  0  0  0  0  0  0  0  0
  -28.9730   -3.9294   30.2753 O   0  0  0  0  0  0  0  0  0  0  0  0
  -30.1309   -2.1619   30.6014 O   0  0  0  0  0  0  0  0  0  0  0  0
  -23.6793    3.1674   26.5620 F   0  0  0  0  0  0  0  0  0  0  0  0
  -31.3041   -2.8472   30.8379 C   0  0  0  0  0  0  0  0  0  0  0  0
  -32.1275   -3.0687   29.7252 C   0  0  0  0  0  0  0  0  0  0  0  0
  -33.3772   -3.2753   29.6775 Cl  0  0  0  0  0  0  0  0  0  0  0  0
  -31.7367   -1.9663   28.8633 F   0  0  0  0  0  0  0  0  0  0  0  0
  -31.4133   -4.1247   29.0170 F   0  0  0  0  0  0  0  0  0  0  0  0
  -31.0690   -3.8925   31.7786 N   0  0  0  0  0  0  0  0  0  0  0  0
  -31.3857   -3.9061   33.0075 C   0  0  0  0  0  0  0  0  0  0  0  0
  -31.0152   -5.0923   33.7668 C   0  0  0  0  0  0  0  0  0  0  0  0
  -30.3835   -5.9899   32.8211 C   0  0  0  0  0  0  0  0  0  0  0  0
  -30.3987   -5.1340   31.4555 C   0  0  0  0  0  0  0  0  0  0  0  0
  3  4  1  0
 10 13  1  0
 13 14  2  0
 13 15  1  0
  6 16  1  0
 15 17  1  0
 17 18  1  0
 18 19  1  0
 18 20  1  0
 18 21  1  0
 17 22  1  0
 22 23  1  0
 23 24  2  0
 24 25  1  0
 22 26  1  0
 25 26  1  0
  1  2  2  0
  2  3  1  0
  3 12  2  0
 12 11  1  0
 11 10  2  0
 10  1  1  0
  4  5  2  0
  5  6  1  0
  6  7  2  0
  7  8  1  0
  8  9  2  0
  9  4  1  0
M  END

$$$$
