No_399-gen_results/8p0m/2024-11-26-14-13-15/
     RDKit          3D

 19 21  0  0  0  0  0  0  0  0999 V2000
  -28.0162   -0.8135   28.8779 C   0  0  0  0  0  0  0  0  0  0  0  0
  -28.4690   -0.7850   29.8287 C   0  0  0  0  0  0  0  0  0  0  0  0
  -28.1816    0.4277   28.1134 C   0  0  0  0  0  0  0  0  0  0  0  0
  -27.4498    0.6435   26.8500 C   0  0  0  0  0  0  0  0  0  0  0  0
  -26.1815    0.0357   26.7145 C   0  0  0  0  0  0  0  0  0  0  0  0
  -25.2987    0.1871   27.5499 C   0  0  0  0  0  0  0  0  0  0  0  0
  -23.9032    0.2113   27.2890 C   0  0  0  0  0  0  0  0  0  0  0  0
  -23.0352    0.1096   28.5071 C   0  0  0  0  0  0  0  0  0  0  0  0
  -23.6163   -0.1343   29.7558 C   0  0  0  0  0  0  0  0  0  0  0  0
  -25.4033   -0.1633   29.0646 C   0  0  0  0  0  0  0  0  0  0  0  0
  -29.5205    0.0783   30.3375 C   0  0  0  0  0  0  0  0  0  0  0  0
  -29.1428    1.3007   28.4903 C   0  0  0  0  0  0  0  0  0  0  0  0
  -29.7789    1.1472   29.6411 C   0  0  0  0  0  0  0  0  0  0  0  0
  -28.0759    1.4117   25.8511 C   0  0  0  0  0  0  0  0  0  0  0  0
  -29.3162    0.9753   25.3230 C   0  0  0  0  0  0  0  0  0  0  0  0
  -29.8491    1.6796   24.3821 C   0  0  0  0  0  0  0  0  0  0  0  0
  -27.5060    2.5735   25.4675 C   0  0  0  0  0  0  0  0  0  0  0  0
  -28.1242    3.3970   24.5286 C   0  0  0  0  0  0  0  0  0  0  0  0
  -29.3204    2.9490   23.9941 C   0  0  0  0  0  0  0  0  0  0  0  0
  3  4  1  0
  4  5  1  0
  5  6  2  3
  6  7  1  0
  7  8  2  0
  8  9  1  0
  6 10  1  0
  9 10  2  0
  4 14  1  0
  1  2  2  0
  2 11  1  0
 11 13  2  0
 13 12  1  0
 12  3  2  0
  3  1  1  0
 14 15  2  0
 15 16  1  0
 16 19  2  0
 19 18  1  0
 18 17  2  0
 17 14  1  0
M  END

$$$$
