No_3907-gen_results/8p0m/2024-11-26-14-13-15/
     RDKit          3D

 17 19  0  0  0  0  0  0  0  0999 V2000
  -28.0162   -0.8135   28.8779 C   0  0  0  0  0  0  0  0  0  0  0  0
  -27.0636   -0.1189   28.6079 C   0  0  0  0  0  0  0  0  0  0  0  0
  -26.8756    1.1325   28.9134 C   0  0  0  0  0  0  0  0  0  0  0  0
  -27.9014    1.8066   29.6436 C   0  0  0  0  0  0  0  0  0  0  0  0
  -29.0458   -0.2316   29.7181 C   0  0  0  0  0  0  0  0  0  0  0  0
  -28.9402    1.0517   30.0597 C   0  0  0  0  0  0  0  0  0  0  0  0
  -30.3294   -1.2509   30.1909 Cl  0  0  0  0  0  0  0  0  0  0  0  0
  -25.6528    1.9343   28.4399 C   0  0  0  0  0  0  0  0  0  0  0  0
  -24.9134    1.6968   27.6747 C   0  0  0  0  0  0  0  0  0  0  0  0
  -23.7483    2.1093   27.3418 C   0  0  0  0  0  0  0  0  0  0  0  0
  -22.5351    1.7679   27.2520 C   0  0  0  0  0  0  0  0  0  0  0  0
  -22.2207    0.5819   28.0585 C   0  0  0  0  0  0  0  0  0  0  0  0
  -20.9269    0.1664   28.4204 C   0  0  0  0  0  0  0  0  0  0  0  0
  -23.3218   -0.2628   28.5057 C   0  0  0  0  0  0  0  0  0  0  0  0
  -24.5776    0.2250   28.1675 C   0  0  0  0  0  0  0  0  0  0  0  0
  -25.7551   -0.6878   28.1278 N   0  0  0  0  0  0  0  0  0  0  0  0
  -20.6791   -0.9316   29.0055 O   0  0  0  0  0  0  0  0  0  0  0  0
  5  7  1  0
 13 17  2  0
 13 12  1  0
  9 10  1  0
 10 11  2  0
 11 12  1  0
 12 14  2  0
 14 15  1  0
  1  2  2  0
  3  4  2  0
  4  6  1  0
  6  5  2  0
  5  1  1  0
  2  3  1  0
  3  8  1  0
  8  9  2  0
  9 15  1  0
 15 16  2  0
 16  2  1  0
M  END

$$$$
