No_3550-gen_results/8p0m/2024-11-26-14-13-15/
     RDKit          3D

 21 23  0  0  0  0  0  0  0  0999 V2000
  -28.0162   -0.8135   28.8779 C   0  0  0  0  0  0  0  0  0  0  0  0
  -27.0636   -0.1189   28.6079 C   0  0  0  0  0  0  0  0  0  0  0  0
  -25.7647   -0.3897   29.0360 C   0  0  0  0  0  0  0  0  0  0  0  0
  -25.5296   -1.5302   29.9014 C   0  0  0  0  0  0  0  0  0  0  0  0
  -26.6888   -2.2893   30.1810 C   0  0  0  0  0  0  0  0  0  0  0  0
  -27.8727   -1.9508   29.7373 C   0  0  0  0  0  0  0  0  0  0  0  0
  -24.5491    0.4100   28.7341 C   0  0  0  0  0  0  0  0  0  0  0  0
  -23.3309    0.0437   29.0569 C   0  0  0  0  0  0  0  0  0  0  0  0
  -22.1994    0.8236   28.7067 C   0  0  0  0  0  0  0  0  0  0  0  0
  -22.3657    1.8184   27.6957 C   0  0  0  0  0  0  0  0  0  0  0  0
  -24.6193    1.4577   27.7557 C   0  0  0  0  0  0  0  0  0  0  0  0
  -23.5641    2.1491   27.3161 C   0  0  0  0  0  0  0  0  0  0  0  0
  -28.9636   -2.6960   30.1049 O   0  0  0  0  0  0  0  0  0  0  0  0
  -28.8171   -3.9503   30.6428 C   0  0  0  0  0  0  0  0  0  0  0  0
  -29.8202   -4.2102   31.6549 C   0  0  0  0  0  0  0  0  0  0  0  0
  -30.2050   -3.2610   32.3389 C   0  0  0  0  0  0  0  0  0  0  0  0
  -30.9398   -3.5513   33.4092 N   0  0  0  0  0  0  0  0  0  0  0  0
  -28.0200   -4.7506   30.1217 O   0  0  0  0  0  0  0  0  0  0  0  0
  -31.2949   -4.7653   33.7035 C   0  0  0  0  0  0  0  0  0  0  0  0
  -30.0589   -5.5481   32.1436 C   0  0  0  0  0  0  0  0  0  0  0  0
  -30.8578   -5.8264   33.1093 C   0  0  0  0  0  0  0  0  0  0  0  0
  3  7  1  0
  6 13  1  0
 13 14  1  0
 14 15  1  0
 14 18  2  0
  7  8  2  0
  8  9  1  0
  9 10  2  0
 10 12  1  0
 12 11  2  0
 11  7  1  0
  1  2  2  0
  2  3  1  0
  3  4  2  0
  4  5  1  0
  5  6  2  0
  6  1  1  0
 15 16  2  0
 16 17  1  0
 17 19  2  0
 19 21  1  0
 21 20  2  0
 20 15  1  0
M  END

$$$$
