No_3813-gen_results/8p0m/2024-11-26-14-13-15/
     RDKit          3D

 18 19  0  0  0  0  0  0  0  0999 V2000
  -28.0162   -0.8135   28.8779 C   0  0  0  0  0  0  0  0  0  0  0  0
  -28.4690   -0.7850   29.8287 C   0  0  0  0  0  0  0  0  0  0  0  0
  -28.1960    0.3478   28.0550 C   0  0  0  0  0  0  0  0  0  0  0  0
  -29.0191    1.3501   28.3782 C   0  0  0  0  0  0  0  0  0  0  0  0
  -29.4107    0.1803   30.3782 C   0  0  0  0  0  0  0  0  0  0  0  0
  -29.6059    1.2495   29.6193 C   0  0  0  0  0  0  0  0  0  0  0  0
  -27.4597    0.3802   26.7091 C   0  0  0  0  0  0  0  0  0  0  0  0
  -26.0094    0.3317   26.7236 C   0  0  0  0  0  0  0  0  0  0  0  0
  -25.2570    1.3161   27.3387 C   0  0  0  0  0  0  0  0  0  0  0  0
  -23.8757    1.1200   27.5504 C   0  0  0  0  0  0  0  0  0  0  0  0
  -23.0019    2.2258   27.5778 C   0  0  0  0  0  0  0  0  0  0  0  0
  -23.5650    3.4752   27.5329 C   0  0  0  0  0  0  0  0  0  0  0  0
  -25.7443    2.3299   28.1241 C   0  0  0  0  0  0  0  0  0  0  0  0
  -24.9164    3.6160   27.8798 C   0  0  0  0  0  0  0  0  0  0  0  0
  -28.1270    0.6181   25.5542 C   0  0  0  0  0  0  0  0  0  0  0  0
  -28.8314    1.6949   25.2998 C   0  0  0  0  0  0  0  0  0  0  0  0
  -29.5500    1.8612   24.0869 C   0  0  0  0  0  0  0  0  0  0  0  0
  -29.5708    0.7847   23.2075 C   0  0  0  0  0  0  0  0  0  0  0  0
  3  7  1  0
  7  8  1  0
  8  9  1  0
  7 15  1  0
 15 16  2  3
 16 17  1  0
 17 18  2  0
  1  2  2  0
  2  5  1  0
  5  6  2  0
  6  4  1  0
  4  3  2  0
  3  1  1  0
  9 10  2  0
 10 11  1  0
 11 12  2  0
 12 14  1  0
 14 13  2  0
 13  9  1  0
M  END

$$$$
