No_3826-gen_results/8p0m/2024-11-26-14-13-15/
     RDKit          3D

 10 10  0  0  0  0  0  0  0  0999 V2000
  -28.1229   -1.3353   28.4874 O   0  0  0  0  0  0  0  0  0  0  0  0
  -28.5208   -0.4363   29.0779 C   0  0  0  0  0  0  0  0  0  0  0  0
  -29.9664    0.3062   29.2138 Br  0  0  0  0  0  0  0  0  0  0  0  0
  -27.5567   -0.0058   30.0974 N   0  0  0  0  0  0  0  0  0  0  0  0
  -27.5604    1.0875   30.8665 C   0  0  0  0  0  0  0  0  0  0  0  0
  -26.8175    1.0230   31.8778 C   0  0  0  0  0  0  0  0  0  0  0  0
  -25.6065    0.1764   32.0419 C   0  0  0  0  0  0  0  0  0  0  0  0
  -25.5689   -0.8410   31.0891 C   0  0  0  0  0  0  0  0  0  0  0  0
  -26.5220   -1.0122   30.2070 C   0  0  0  0  0  0  0  0  0  0  0  0
  -26.5031   -2.2995   29.1516 Cl  0  0  0  0  0  0  0  0  0  0  0  0
  1  2  2  0
  2  3  1  0
  2  4  1  0
  4  5  1  0
  6  7  1  0
  4  9  1  0
  8  9  1  0
  9 10  1  0
  5  6  1  0
  7  8  1  0
M  END

$$$$
