No_3703-gen_results/8p0m/2024-11-26-14-13-15/
     RDKit          3D

 30 32  0  0  0  0  0  0  0  0999 V2000
  -28.0162   -0.8135   28.8779 C   0  0  0  0  0  0  0  0  0  0  0  0
  -27.0636   -0.1190   28.6079 C   0  0  0  0  0  0  0  0  0  0  0  0
  -25.7923   -0.4302   29.0761 C   0  0  0  0  0  0  0  0  0  0  0  0
  -25.5756   -1.5654   29.9363 C   0  0  0  0  0  0  0  0  0  0  0  0
  -26.7354   -2.3004   30.2173 C   0  0  0  0  0  0  0  0  0  0  0  0
  -27.9184   -1.9537   29.7629 C   0  0  0  0  0  0  0  0  0  0  0  0
  -29.0732   -2.7835   30.1783 C   0  0  0  0  0  0  0  0  0  0  0  0
  -29.0022   -3.9850   30.2347 O   0  0  0  0  0  0  0  0  0  0  0  0
  -30.1809   -2.1900   30.4596 O   0  0  0  0  0  0  0  0  0  0  0  0
  -27.1197    0.9971   27.8655 F   0  0  0  0  0  0  0  0  0  0  0  0
  -24.5273    0.3488   28.7361 C   0  0  0  0  0  0  0  0  0  0  0  0
  -23.3316   -0.0628   29.2273 C   0  0  0  0  0  0  0  0  0  0  0  0
  -22.1431    0.6933   28.7856 C   0  0  0  0  0  0  0  0  0  0  0  0
  -22.1781    1.5994   27.7783 C   0  0  0  0  0  0  0  0  0  0  0  0
  -23.4490    1.9308   27.2240 C   0  0  0  0  0  0  0  0  0  0  0  0
  -24.5761    1.3204   27.7282 C   0  0  0  0  0  0  0  0  0  0  0  0
  -23.5086    2.9226   26.3661 F   0  0  0  0  0  0  0  0  0  0  0  0
  -31.1248   -2.6532   31.1405 C   0  0  0  0  0  0  0  0  0  0  0  0
  -31.1346   -2.6122   32.4554 C   0  0  0  0  0  0  0  0  0  0  0  0
  -30.6714   -1.3767   32.8947 C   0  0  0  0  0  0  0  0  0  0  0  0
  -31.1289   -0.2227   32.5156 C   0  0  0  0  0  0  0  0  0  0  0  0
  -30.5972    1.0385   32.9329 C   0  0  0  0  0  0  0  0  0  0  0  0
  -29.5622    1.0475   33.8807 C   0  0  0  0  0  0  0  0  0  0  0  0
  -29.0748   -0.1733   34.3953 C   0  0  0  0  0  0  0  0  0  0  0  0
  -29.6009   -1.3149   33.7938 C   0  0  0  0  0  0  0  0  0  0  0  0
  -31.4773   -3.9986   30.5157 C   0  0  0  0  0  0  0  0  0  0  0  0
  -32.3826   -4.5151   30.8664 C   0  0  0  0  0  0  0  0  0  0  0  0
  -32.9093   -5.4124   30.6460 C   0  0  0  0  0  0  0  0  0  0  0  0
  -34.1264   -6.0138   31.2912 C   0  0  0  0  0  0  0  0  0  0  0  0
  -34.7117   -7.1954   30.9753 C   0  0  0  0  0  0  0  0  0  0  0  0
  6  7  1  0
  7  8  2  0
  7  9  1  0
  2 10  1  0
  3 11  1  0
 15 17  1  0
  9 18  1  0
 18 19  1  0
 19 20  1  0
 18 26  1  0
 26 27  2  3
 27 28  1  0
 28 29  2  3
 29 30  1  0
 11 12  2  0
 12 13  1  0
 13 14  2  0
 14 15  1  0
 15 16  2  0
 16 11  1  0
  1  2  2  0
  2  3  1  0
  3  4  2  0
  4  5  1  0
  5  6  2  0
  6  1  1  0
 20 21  2  0
 21 22  1  0
 22 23  2  0
 23 24  1  0
 24 25  2  0
 25 20  1  0
M  END

$$$$
