No_326-gen_results/8p0m/2024-11-26-14-13-15/
     RDKit          3D

  9  9  0  0  0  0  0  0  0  0999 V2000
  -28.0162   -0.8135   28.8779 C   0  0  0  0  0  0  0  0  0  0  0  0
  -27.0636   -0.1190   28.6079 C   0  0  0  0  0  0  0  0  0  0  0  0
  -25.7923   -0.4302   29.0761 C   0  0  0  0  0  0  0  0  0  0  0  0
  -25.5756   -1.5654   29.9363 C   0  0  0  0  0  0  0  0  0  0  0  0
  -26.5354   -2.2259   30.1442 C   0  0  0  0  0  0  0  0  0  0  0  0
  -27.8232   -1.9824   29.7414 C   0  0  0  0  0  0  0  0  0  0  0  0
  -27.1877    1.3102   27.6629 Cl  0  0  0  0  0  0  0  0  0  0  0  0
  -29.1048   -2.9985   30.2360 Cl  0  0  0  0  0  0  0  0  0  0  0  0
  -24.3519    0.5745   28.6614 Cl  0  0  0  0  0  0  0  0  0  0  0  0
  2  7  1  0
  6  8  1  0
  3  9  1  0
  1  2  2  0
  2  3  1  0
  3  4  2  0
  4  5  1  0
  5  6  2  0
  6  1  1  0
M  END

$$$$
