No_3747-gen_results/8p0m/2024-11-26-14-13-15/
     RDKit          3D

 35 38  0  0  0  0  0  0  0  0999 V2000
  -28.0162   -0.8135   28.8779 C   0  0  0  0  0  0  0  0  0  0  0  0
  -27.0636   -0.1190   28.6079 C   0  0  0  0  0  0  0  0  0  0  0  0
  -27.0010    0.6913   27.4910 C   0  0  0  0  0  0  0  0  0  0  0  0
  -28.1373    0.7363   26.6350 C   0  0  0  0  0  0  0  0  0  0  0  0
  -29.2360    0.0765   27.0690 C   0  0  0  0  0  0  0  0  0  0  0  0
  -29.2177   -0.6429   28.1747 C   0  0  0  0  0  0  0  0  0  0  0  0
  -30.2199    0.1288   26.1814 F   0  0  0  0  0  0  0  0  0  0  0  0
  -25.9004   -0.1528   29.3791 F   0  0  0  0  0  0  0  0  0  0  0  0
  -28.0537   -1.6011   30.0519 O   0  0  0  0  0  0  0  0  0  0  0  0
  -27.9864    1.7328   25.2383 Cl  0  0  0  0  0  0  0  0  0  0  0  0
  -25.6927    1.4242   27.0994 C   0  0  0  0  0  0  0  0  0  0  0  0
  -24.6698    1.0085   26.7943 C   0  0  0  0  0  0  0  0  0  0  0  0
  -23.4606    1.8202   26.6543 C   0  0  0  0  0  0  0  0  0  0  0  0
  -23.6963    3.1858   26.7947 C   0  0  0  0  0  0  0  0  0  0  0  0
  -25.8504    2.9124   27.2008 C   0  0  0  0  0  0  0  0  0  0  0  0
  -24.8350    3.7198   27.0194 C   0  0  0  0  0  0  0  0  0  0  0  0
  -27.3404   -1.5989   30.9765 C   0  0  0  0  0  0  0  0  0  0  0  0
  -27.9371   -1.7789   32.2698 C   0  0  0  0  0  0  0  0  0  0  0  0
  -28.9337   -0.8659   32.4768 N   0  0  0  0  0  0  0  0  0  0  0  0
  -29.0245    0.3010   32.1927 C   0  0  0  0  0  0  0  0  0  0  0  0
  -30.2524    1.0474   32.4448 C   0  0  0  0  0  0  0  0  0  0  0  0
  -30.4650    2.3463   32.0788 C   0  0  0  0  0  0  0  0  0  0  0  0
  -29.4374    3.0268   31.3108 C   0  0  0  0  0  0  0  0  0  0  0  0
  -28.2461    2.3178   30.9926 C   0  0  0  0  0  0  0  0  0  0  0  0
  -28.0571    1.0695   31.4119 C   0  0  0  0  0  0  0  0  0  0  0  0
  -29.5578   -1.1485   33.8558 C   0  0  0  0  0  0  0  0  0  0  0  0
  -29.7219   -2.4078   34.1644 C   0  0  0  0  0  0  0  0  0  0  0  0
  -30.9421   -2.7353   34.3843 C   0  0  0  0  0  0  0  0  0  0  0  0
  -31.2610   -4.1276   34.2592 C   0  0  0  0  0  0  0  0  0  0  0  0
  -30.4905   -4.8093   33.5458 C   0  0  0  0  0  0  0  0  0  0  0  0
  -29.1666   -4.5264   33.1329 C   0  0  0  0  0  0  0  0  0  0  0  0
  -28.8713   -3.2084   33.2831 C   0  0  0  0  0  0  0  0  0  0  0  0
  -27.5870   -3.2080   33.4814 O   0  0  0  0  0  0  0  0  0  0  0  0
  -27.1638   -1.0434   32.5304 O   0  0  0  0  0  0  0  0  0  0  0  0
  -27.3419   -2.4706   34.5983 C   0  0  0  0  0  0  0  0  0  0  0  0
  5  7  1  0
  2  8  1  0
  1  9  1  0
  4 10  1  0
  3 11  1  0
  9 17  1  0
 17 18  2  3
 18 19  1  0
 19 20  1  0
 19 26  1  0
 26 27  1  0
 32 33  1  0
 18 34  1  0
 33 35  1  0
  1  2  2  0
  2  3  1  0
  3  4  2  0
  4  5  1  0
  5  6  2  0
  6  1  1  0
 27 28  2  0
 28 29  1  0
 29 30  2  0
 30 31  1  0
 31 32  2  0
 32 27  1  0
 11 12  2  0
 12 13  1  0
 13 14  2  0
 14 16  1  0
 16 15  2  0
 15 11  1  0
 20 21  2  0
 21 22  1  0
 22 23  2  0
 23 24  1  0
 24 25  2  0
 25 20  1  0
M  END

$$$$
