No_3853-gen_results/8p0m/2024-11-26-14-13-15/
     RDKit          3D

 30 32  0  0  0  0  0  0  0  0999 V2000
  -28.1229   -1.3353   28.4874 O   0  0  0  0  0  0  0  0  0  0  0  0
  -28.5208   -0.4363   29.0779 C   0  0  0  0  0  0  0  0  0  0  0  0
  -28.5894    0.5916   28.9464 C   0  0  0  0  0  0  0  0  0  0  0  0
  -29.1246   -0.9399   30.4266 N   0  0  0  0  0  0  0  0  0  0  0  0
  -29.2955    1.6366   29.4337 C   0  0  0  0  0  0  0  0  0  0  0  0
  -29.7997    0.0136   31.1591 C   0  0  0  0  0  0  0  0  0  0  0  0
  -29.8824    1.2875   30.7463 C   0  0  0  0  0  0  0  0  0  0  0  0
  -27.9295    1.0222   27.5316 C   0  0  0  0  0  0  0  0  0  0  0  0
  -26.9947    2.1089   27.5742 C   0  0  0  0  0  0  0  0  0  0  0  0
  -26.2282    2.3917   26.4961 C   0  0  0  0  0  0  0  0  0  0  0  0
  -26.2137    1.5145   25.3761 C   0  0  0  0  0  0  0  0  0  0  0  0
  -27.0317    0.4441   25.3722 C   0  0  0  0  0  0  0  0  0  0  0  0
  -27.7925    0.1197   26.4889 C   0  0  0  0  0  0  0  0  0  0  0  0
  -28.9758   -2.3413   30.8515 C   0  0  0  0  0  0  0  0  0  0  0  0
  -29.8984   -2.8708   31.6425 C   0  0  0  0  0  0  0  0  0  0  0  0
  -31.0975   -3.1817   31.0196 C   0  0  0  0  0  0  0  0  0  0  0  0
  -31.2304   -3.1012   29.7229 C   0  0  0  0  0  0  0  0  0  0  0  0
  -31.5922   -2.4579   29.0335 C   0  0  0  0  0  0  0  0  0  0  0  0
  -31.7882   -2.4775   27.5504 C   0  0  0  0  0  0  0  0  0  0  0  0
  -31.8006   -3.7643   27.1551 N   0  0  0  0  0  0  0  0  0  0  0  0
  -31.2290   -4.5535   28.9850 C   0  0  0  0  0  0  0  0  0  0  0  0
  -31.4901   -4.7423   27.7528 C   0  0  0  0  0  0  0  0  0  0  0  0
  -32.3360   -3.3465   31.8189 C   0  0  0  0  0  0  0  0  0  0  0  0
  -33.1816   -2.5238   31.9236 C   0  0  0  0  0  0  0  0  0  0  0  0
  -33.0508   -1.1133   31.6445 C   0  0  0  0  0  0  0  0  0  0  0  0
  -34.1126   -0.1465   31.6704 C   0  0  0  0  0  0  0  0  0  0  0  0
  -33.8671    1.1734   31.5282 C   0  0  0  0  0  0  0  0  0  0  0  0
  -34.7925    2.0863   31.3540 C   0  0  0  0  0  0  0  0  0  0  0  0
  -36.1288    1.6918   31.3800 C   0  0  0  0  0  0  0  0  0  0  0  0
  -36.4136    0.3565   31.5080 C   0  0  0  0  0  0  0  0  0  0  0  0
  1  2  2  0
  2  3  1  0
  2  4  1  0
  4  6  1  0
  5  7  1  0
  3  8  1  0
  4 14  1  0
 14 15  1  0
 15 16  1  0
 16 17  1  0
 16 23  1  0
 23 24  1  0
 24 25  1  0
 25 26  2  3
 26 27  1  0
 27 28  1  0
 28 29  2  3
 29 30  1  0
  3  5  1  0
  7  6  1  0
 17 18  2  0
 18 19  1  0
 19 20  2  0
 20 22  1  0
 22 21  2  0
 21 17  1  0
  8  9  2  0
  9 10  1  0
 10 11  2  0
 11 12  1  0
 12 13  2  0
 13  8  1  0
M  END

$$$$
