No_3301-gen_results/8p0m/2024-11-26-14-13-15/
     RDKit          3D

 16 17  0  0  0  0  0  0  0  0999 V2000
  -28.0162   -0.8135   28.8779 C   0  0  0  0  0  0  0  0  0  0  0  0
  -28.4690   -0.7850   29.8287 C   0  0  0  0  0  0  0  0  0  0  0  0
  -26.5455   -0.8762   28.8500 C   0  0  0  0  0  0  0  0  0  0  0  0
  -25.6825   -0.7773   27.6829 C   0  0  0  0  0  0  0  0  0  0  0  0
  -28.0261   -0.9156   30.9273 C   0  0  0  0  0  0  0  0  0  0  0  0
  -26.6223   -0.9928   31.2166 C   0  0  0  0  0  0  0  0  0  0  0  0
  -25.8198   -0.9885   30.1081 C   0  0  0  0  0  0  0  0  0  0  0  0
  -25.1878    0.5655   27.3385 C   0  0  0  0  0  0  0  0  0  0  0  0
  -23.9572    0.8566   27.8049 C   0  0  0  0  0  0  0  0  0  0  0  0
  -23.1817    0.2387   28.7659 C   0  0  0  0  0  0  0  0  0  0  0  0
  -21.8576    0.5364   29.0585 C   0  0  0  0  0  0  0  0  0  0  0  0
  -21.2086    1.4745   28.2439 C   0  0  0  0  0  0  0  0  0  0  0  0
  -23.0822    1.6797   26.9196 C   0  0  0  0  0  0  0  0  0  0  0  0
  -21.8286    2.0426   27.1989 C   0  0  0  0  0  0  0  0  0  0  0  0
  -25.9571    1.4386   26.5963 C   0  0  0  0  0  0  0  0  0  0  0  0
  -26.3362    2.5142   27.1002 C   0  0  0  0  0  0  0  0  0  0  0  0
  3  4  1  0
  4  8  1  0
  8  9  1  0
  8 15  1  0
 15 16  1  0
  1  2  2  0
  2  5  1  0
  5  6  2  0
  6  7  1  0
  7  3  2  0
  3  1  1  0
  9 10  2  0
 10 11  1  0
 11 12  2  0
 12 14  1  0
 14 13  2  0
 13  9  1  0
M  END

$$$$
