No_3401-gen_results/8p0m/2024-11-26-14-13-15/
     RDKit          3D

 11 11  0  0  0  0  0  0  0  0999 V2000
  -28.0162   -0.8135   28.8779 C   0  0  0  0  0  0  0  0  0  0  0  0
  -27.0636   -0.1190   28.6079 C   0  0  0  0  0  0  0  0  0  0  0  0
  -25.8176   -0.3427   29.0488 N   0  0  0  0  0  0  0  0  0  0  0  0
  -24.6506    0.4444   28.7649 C   0  0  0  0  0  0  0  0  0  0  0  0
  -23.3389    0.1171   29.2584 C   0  0  0  0  0  0  0  0  0  0  0  0
  -22.2334    0.8466   28.9290 C   0  0  0  0  0  0  0  0  0  0  0  0
  -22.3371    1.8263   27.9142 C   0  0  0  0  0  0  0  0  0  0  0  0
  -24.6644    1.4788   27.8137 C   0  0  0  0  0  0  0  0  0  0  0  0
  -23.5572    2.1665   27.4300 C   0  0  0  0  0  0  0  0  0  0  0  0
  -27.7918   -1.8016   29.9674 C   0  0  0  0  0  0  0  0  0  0  0  0
  -26.5666   -2.1901   30.3878 C   0  0  0  0  0  0  0  0  0  0  0  0
  1  2  1  0
  2  3  2  3
  3  4  1  0
  1 10  2  3
 10 11  1  0
  4  5  2  0
  5  6  1  0
  6  7  2  0
  7  9  1  0
  9  8  2  0
  8  4  1  0
M  END

$$$$
