No_3645-gen_results/8p0m/2024-11-26-14-13-15/
     RDKit          3D

 17 18  0  0  0  0  0  0  0  0999 V2000
  -28.0162   -0.8135   28.8779 C   0  0  0  0  0  0  0  0  0  0  0  0
  -27.0636   -0.1189   28.6079 C   0  0  0  0  0  0  0  0  0  0  0  0
  -26.9849    0.5973   27.5218 N   0  0  0  0  0  0  0  0  0  0  0  0
  -27.9930   -1.5759   30.1509 C   0  0  0  0  0  0  0  0  0  0  0  0
  -26.8106   -1.6889   30.8356 C   0  0  0  0  0  0  0  0  0  0  0  0
  -25.6676   -1.0633   30.4296 C   0  0  0  0  0  0  0  0  0  0  0  0
  -25.7501   -0.2429   29.2785 C   0  0  0  0  0  0  0  0  0  0  0  0
  -27.9486    1.1848   26.9881 C   0  0  0  0  0  0  0  0  0  0  0  0
  -29.0904    1.1992   27.5182 C   0  0  0  0  0  0  0  0  0  0  0  0
  -30.1375    1.7640   26.7873 C   0  0  0  0  0  0  0  0  0  0  0  0
  -29.9113    2.3608   25.5474 C   0  0  0  0  0  0  0  0  0  0  0  0
  -27.7234    1.8061   25.6702 C   0  0  0  0  0  0  0  0  0  0  0  0
  -28.6869    2.3844   24.9632 C   0  0  0  0  0  0  0  0  0  0  0  0
  -29.2202   -2.2956   30.5673 C   0  0  0  0  0  0  0  0  0  0  0  0
  -29.2629   -3.4871   30.6250 O   0  0  0  0  0  0  0  0  0  0  0  0
  -30.2627   -1.6253   30.8502 O   0  0  0  0  0  0  0  0  0  0  0  0
  -26.3422    1.7369   25.1396 C   0  0  0  0  0  0  0  0  0  0  0  0
  3  8  1  0
  4 14  1  0
 14 15  2  0
 14 16  1  0
 12 17  1  0
  3  2  1  0
  1  2  2  0
  2  7  1  0
  7  6  2  0
  6  5  1  0
  5  4  2  0
  4  1  1  0
  8  9  2  0
  9 10  1  0
 10 11  2  0
 11 13  1  0
 13 12  2  0
 12  8  1  0
M  END

$$$$
