No_3331-gen_results/8p0m/2024-11-26-14-13-15/
     RDKit          3D

 27 28  0  0  0  0  0  0  0  0999 V2000
  -28.0162   -0.8135   28.8779 C   0  0  0  0  0  0  0  0  0  0  0  0
  -28.4690   -0.7850   29.8287 C   0  0  0  0  0  0  0  0  0  0  0  0
  -28.1816    0.4277   28.1134 C   0  0  0  0  0  0  0  0  0  0  0  0
  -28.9841    1.4155   28.5154 C   0  0  0  0  0  0  0  0  0  0  0  0
  -29.3802    0.1384   30.4612 C   0  0  0  0  0  0  0  0  0  0  0  0
  -29.5415    1.2736   29.7242 C   0  0  0  0  0  0  0  0  0  0  0  0
  -27.4452    0.4872   26.7726 C   0  0  0  0  0  0  0  0  0  0  0  0
  -28.1098    0.2408   25.8110 F   0  0  0  0  0  0  0  0  0  0  0  0
  -26.3477   -0.3394   26.8154 F   0  0  0  0  0  0  0  0  0  0  0  0
  -26.9057    1.7585   26.5489 F   0  0  0  0  0  0  0  0  0  0  0  0
  -30.4662    2.3490   30.2248 C   0  0  0  0  0  0  0  0  0  0  0  0
  -31.2433    2.8779   29.6676 O   0  0  0  0  0  0  0  0  0  0  0  0
  -30.1729    2.6631   31.5389 O   0  0  0  0  0  0  0  0  0  0  0  0
  -28.2594   -2.1508   30.7537 C   0  0  0  0  0  0  0  0  0  0  0  0
  -28.2300   -2.2994   31.7981 O   0  0  0  0  0  0  0  0  0  0  0  0
  -27.7099   -3.0988   29.9794 O   0  0  0  0  0  0  0  0  0  0  0  0
  -27.9714   -4.4592   30.3905 C   0  0  0  0  0  0  0  0  0  0  0  0
  -29.3815   -4.8352   30.2789 C   0  0  0  0  0  0  0  0  0  0  0  0
  -29.9479   -4.6279   29.2590 O   0  0  0  0  0  0  0  0  0  0  0  0
  -30.0247   -5.0654   31.4061 N   0  0  0  0  0  0  0  0  0  0  0  0
  -31.4540   -5.4245   31.4081 C   0  0  0  0  0  0  0  0  0  0  0  0
  -32.0118   -5.6533   32.3332 C   0  0  0  0  0  0  0  0  0  0  0  0
  -33.4481   -5.9791   32.3888 C   0  0  0  0  0  0  0  0  0  0  0  0
  -34.0854   -6.0060   31.1406 C   0  0  0  0  0  0  0  0  0  0  0  0
  -33.3541   -5.7509   29.9935 C   0  0  0  0  0  0  0  0  0  0  0  0
  -32.0456   -5.4295   30.0810 C   0  0  0  0  0  0  0  0  0  0  0  0
  -35.3828   -6.2862   31.0269 F   0  0  0  0  0  0  0  0  0  0  0  0
  3  7  1  0
  7  8  1  0
  7  9  1  0
  7 10  1  0
  6 11  1  0
 11 12  2  0
 11 13  1  0
  2 14  1  0
 14 15  2  0
 14 16  1  0
 16 17  1  0
 17 18  1  0
 18 19  2  0
 18 20  1  0
 20 21  1  0
 24 27  1  0
  1  2  2  0
  2  5  1  0
  5  6  2  0
  6  4  1  0
  4  3  2  0
  3  1  1  0
 21 22  2  0
 22 23  1  0
 23 24  2  0
 24 25  1  0
 25 26  2  0
 26 21  1  0
M  END

$$$$
