No_3385-gen_results/8p0m/2024-11-26-14-13-15/
     RDKit          3D

 15 15  0  0  0  0  0  0  0  0999 V2000
  -28.0162   -0.8135   28.8779 C   0  0  0  0  0  0  0  0  0  0  0  0
  -27.0636   -0.1190   28.6079 C   0  0  0  0  0  0  0  0  0  0  0  0
  -26.9716    0.7139   27.5060 C   0  0  0  0  0  0  0  0  0  0  0  0
  -28.1053    0.7744   26.6421 C   0  0  0  0  0  0  0  0  0  0  0  0
  -29.2008    0.1044   27.0527 C   0  0  0  0  0  0  0  0  0  0  0  0
  -29.2096   -0.6029   28.1853 C   0  0  0  0  0  0  0  0  0  0  0  0
  -30.3749    0.2232   26.1670 C   0  0  0  0  0  0  0  0  0  0  0  0
  -30.8691    1.3093   26.1623 F   0  0  0  0  0  0  0  0  0  0  0  0
  -31.3210   -0.6661   26.6592 F   0  0  0  0  0  0  0  0  0  0  0  0
  -30.0991   -0.2178   24.9185 F   0  0  0  0  0  0  0  0  0  0  0  0
  -25.6771    1.4104   27.1153 C   0  0  0  0  0  0  0  0  0  0  0  0
  -24.6606    0.9031   27.4038 O   0  0  0  0  0  0  0  0  0  0  0  0
  -25.7480    2.5681   26.4270 N   0  0  0  0  0  0  0  0  0  0  0  0
  -24.5747    3.3393   26.1078 C   0  0  0  0  0  0  0  0  0  0  0  0
  -26.9919    3.2358   26.0388 C   0  0  0  0  0  0  0  0  0  0  0  0
  5  7  1  0
  7  8  1  0
  7  9  1  0
  7 10  1  0
  3 11  1  0
 11 12  2  0
 11 13  1  0
 13 14  1  0
 13 15  1  0
  1  2  2  0
  2  3  1  0
  3  4  2  0
  4  5  1  0
  5  6  2  0
  6  1  1  0
M  END

$$$$
