No_3636-gen_results/8p0m/2024-11-26-14-13-15/
     RDKit          3D

 18 18  0  0  0  0  0  0  0  0999 V2000
  -28.0727   -1.2542   28.5316 F   0  0  0  0  0  0  0  0  0  0  0  0
  -27.3591   -0.3792   28.7224 C   0  0  0  0  0  0  0  0  0  0  0  0
  -26.3323   -0.6441   29.4520 C   0  0  0  0  0  0  0  0  0  0  0  0
  -25.2562    0.3203   29.7818 C   0  0  0  0  0  0  0  0  0  0  0  0
  -25.4242    1.6275   29.2026 C   0  0  0  0  0  0  0  0  0  0  0  0
  -26.5263    1.8254   28.4032 C   0  0  0  0  0  0  0  0  0  0  0  0
  -27.4513    0.8601   28.1355 C   0  0  0  0  0  0  0  0  0  0  0  0
  -28.7231    1.2293   27.1156 Cl  0  0  0  0  0  0  0  0  0  0  0  0
  -24.2454    2.7844   29.5879 Cl  0  0  0  0  0  0  0  0  0  0  0  0
  -26.0653   -1.8325   30.0866 O   0  0  0  0  0  0  0  0  0  0  0  0
  -24.8822   -2.4935   29.8108 C   0  0  0  0  0  0  0  0  0  0  0  0
  -25.0602   -3.7943   29.1260 C   0  0  0  0  0  0  0  0  0  0  0  0
  -23.8948   -4.3563   28.6165 C   0  0  0  0  0  0  0  0  0  0  0  0
  -24.1426   -5.4444   28.0436 F   0  0  0  0  0  0  0  0  0  0  0  0
  -22.8329   -3.7500   28.5290 F   0  0  0  0  0  0  0  0  0  0  0  0
  -23.8919    0.0397   30.8054 Cl  0  0  0  0  0  0  0  0  0  0  0  0
  -26.8590    3.4576   27.8414 Cl  0  0  0  0  0  0  0  0  0  0  0  0
  -26.1929   -4.2323   29.1083 F   0  0  0  0  0  0  0  0  0  0  0  0
  1  2  1  0
  7  8  1  0
  5  9  1  0
  3 10  1  0
 10 11  1  0
 11 12  1  0
 12 13  2  3
 13 14  1  0
 13 15  1  0
  4 16  1  0
  6 17  1  0
 12 18  1  0
  2  3  2  0
  3  4  1  0
  4  5  2  0
  5  6  1  0
  6  7  2  0
  7  2  1  0
M  END

$$$$
