No_3705-gen_results/8p0m/2024-11-26-14-13-15/
     RDKit          3D

 14 14  0  0  0  0  0  0  0  0999 V2000
  -28.0162   -0.8135   28.8779 C   0  0  0  0  0  0  0  0  0  0  0  0
  -28.4690   -0.7850   29.8287 C   0  0  0  0  0  0  0  0  0  0  0  0
  -28.1816    0.4277   28.1134 C   0  0  0  0  0  0  0  0  0  0  0  0
  -27.4498    0.6435   26.8500 C   0  0  0  0  0  0  0  0  0  0  0  0
  -26.1815    0.0357   26.7145 C   0  0  0  0  0  0  0  0  0  0  0  0
  -25.7800   -0.9326   27.6938 C   0  0  0  0  0  0  0  0  0  0  0  0
  -26.5568   -1.2134   28.7413 C   0  0  0  0  0  0  0  0  0  0  0  0
  -29.6101   -0.2783   30.1938 N   0  0  0  0  0  0  0  0  0  0  0  0
  -28.2441   -1.9032   30.7503 O   0  0  0  0  0  0  0  0  0  0  0  0
  -30.4977   -0.5751   31.3388 C   0  0  0  0  0  0  0  0  0  0  0  0
  -25.2993    0.3244   25.5922 C   0  0  0  0  0  0  0  0  0  0  0  0
  -24.5765    1.3650   25.3349 N   0  0  0  0  0  0  0  0  0  0  0  0
  -23.7722    1.9181   26.3235 C   0  0  0  0  0  0  0  0  0  0  0  0
  -24.3010    2.2414   27.5952 C   0  0  0  0  0  0  0  0  0  0  0  0
  1  2  1  0
  2  8  1  0
  2  9  2  0
  8 10  1  0
  5 11  1  0
 11 12  1  0
 12 13  1  0
 13 14  3  0
  1  3  2  0
  3  4  1  0
  4  5  2  0
  5  6  1  0
  6  7  2  0
  7  1  1  0
M  END

$$$$
