No_3799-gen_results/8p0m/2024-11-26-14-13-15/
     RDKit          3D

 29 31  0  0  0  0  0  0  0  0999 V2000
  -28.0162   -0.8135   28.8779 C   0  0  0  0  0  0  0  0  0  0  0  0
  -27.0636   -0.1190   28.6079 C   0  0  0  0  0  0  0  0  0  0  0  0
  -26.8756    1.1325   28.9134 C   0  0  0  0  0  0  0  0  0  0  0  0
  -25.6883    1.9515   28.5672 C   0  0  0  0  0  0  0  0  0  0  0  0
  -24.6394    1.2834   27.8753 C   0  0  0  0  0  0  0  0  0  0  0  0
  -24.8068   -0.0513   27.6040 C   0  0  0  0  0  0  0  0  0  0  0  0
  -25.9019   -0.7670   27.9511 C   0  0  0  0  0  0  0  0  0  0  0  0
  -29.2125   -0.1153   29.1222 C   0  0  0  0  0  0  0  0  0  0  0  0
  -30.3508   -0.8179   29.5782 C   0  0  0  0  0  0  0  0  0  0  0  0
  -23.3380    1.7591   27.6165 C   0  0  0  0  0  0  0  0  0  0  0  0
  -22.9571    2.6025   26.8770 N   0  0  0  0  0  0  0  0  0  0  0  0
  -22.2046    1.2804   28.5098 C   0  0  0  0  0  0  0  0  0  0  0  0
  -30.1893   -2.1134   30.0460 C   0  0  0  0  0  0  0  0  0  0  0  0
  -28.9616   -2.7463   30.1309 C   0  0  0  0  0  0  0  0  0  0  0  0
  -27.8638   -2.0962   29.6228 C   0  0  0  0  0  0  0  0  0  0  0  0
  -20.9803    1.6552   28.0066 N   0  0  0  0  0  0  0  0  0  0  0  0
  -22.3343    0.4202   29.4554 N   0  0  0  0  0  0  0  0  0  0  0  0
  -21.5421    2.4133   26.8095 N   0  0  0  0  0  0  0  0  0  0  0  0
  -31.5656   -0.2929   29.5883 O   0  0  0  0  0  0  0  0  0  0  0  0
  -32.2341   -0.1269   28.5673 C   0  0  0  0  0  0  0  0  0  0  0  0
  -25.5310    3.3315   28.9202 C   0  0  0  0  0  0  0  0  0  0  0  0
  -25.8971    4.2001   28.1287 O   0  0  0  0  0  0  0  0  0  0  0  0
  -25.0894    3.6022   30.1548 O   0  0  0  0  0  0  0  0  0  0  0  0
  -31.8396    0.7009   27.6064 C   0  0  0  0  0  0  0  0  0  0  0  0
  -31.9309    1.8893   27.9639 F   0  0  0  0  0  0  0  0  0  0  0  0
  -30.5469    0.4701   27.3189 F   0  0  0  0  0  0  0  0  0  0  0  0
  -32.6512    0.6395   26.4898 F   0  0  0  0  0  0  0  0  0  0  0  0
  -33.4901    0.2786   29.0290 F   0  0  0  0  0  0  0  0  0  0  0  0
  -32.4358   -1.3921   28.0472 F   0  0  0  0  0  0  0  0  0  0  0  0
  5 10  1  0
 10 11  2  0
 10 12  1  0
 12 16  1  0
 12 17  1  0
 11 18  1  0
 16 18  2  0
  9 19  1  0
 19 20  1  0
  4 21  1  0
 21 22  2  0
 21 23  1  0
 20 24  1  0
 24 25  1  0
 24 26  1  0
 24 27  1  0
 20 28  1  0
 20 29  1  0
  1  2  1  0
  1  8  2  0
  8  9  1  0
  9 13  2  0
 13 14  1  0
 14 15  2  0
 15  1  1  0
  2  3  2  0
  3  4  1  0
  4  5  2  0
  5  6  1  0
  6  7  2  0
  7  2  1  0
M  END

$$$$
