No_396-gen_results/8p0m/2024-11-26-14-13-15/
     RDKit          3D

 21 22  0  0  0  0  0  0  0  0999 V2000
  -28.0162   -0.8135   28.8779 C   0  0  0  0  0  0  0  0  0  0  0  0
  -27.0636   -0.1189   28.6079 C   0  0  0  0  0  0  0  0  0  0  0  0
  -27.0010    0.6913   27.4910 C   0  0  0  0  0  0  0  0  0  0  0  0
  -25.8548    1.4825   27.0830 C   0  0  0  0  0  0  0  0  0  0  0  0
  -24.6901    1.4526   27.8807 C   0  0  0  0  0  0  0  0  0  0  0  0
  -24.7379    0.6010   29.0416 C   0  0  0  0  0  0  0  0  0  0  0  0
  -25.8234   -0.1688   29.3887 C   0  0  0  0  0  0  0  0  0  0  0  0
  -28.7125   -0.4634   30.1695 C   0  0  0  0  0  0  0  0  0  0  0  0
  -28.7790    0.6069   30.5305 C   0  0  0  0  0  0  0  0  0  0  0  0
  -29.5397    0.9594   31.8268 C   0  0  0  0  0  0  0  0  0  0  0  0
  -29.6193    2.2760   32.3511 C   0  0  0  0  0  0  0  0  0  0  0  0
  -28.9501    3.2764   31.5686 C   0  0  0  0  0  0  0  0  0  0  0  0
  -28.2153    2.9862   30.4383 C   0  0  0  0  0  0  0  0  0  0  0  0
  -28.1027    1.7267   29.9961 C   0  0  0  0  0  0  0  0  0  0  0  0
  -23.4449    2.1016   27.5147 C   0  0  0  0  0  0  0  0  0  0  0  0
  -22.2900    1.6372   27.9829 N   0  0  0  0  0  0  0  0  0  0  0  0
  -23.5076    3.0926   26.7179 O   0  0  0  0  0  0  0  0  0  0  0  0
  -27.4824    4.1560   29.8041 C   0  0  0  0  0  0  0  0  0  0  0  0
  -26.5632    4.6941   30.2782 N   0  0  0  0  0  0  0  0  0  0  0  0
  -27.8981    4.4564   28.6045 O   0  0  0  0  0  0  0  0  0  0  0  0
  -25.7699    5.7764   29.6469 C   0  0  0  0  0  0  0  0  0  0  0  0
  1  2  1  0
  1  8  1  0
  5 15  1  0
 15 16  1  0
 15 17  2  0
 13 18  1  0
 18 19  1  0
 18 20  2  0
 19 21  1  0
  8  9  1  0
  2  3  2  0
  3  4  1  0
  4  5  2  0
  5  6  1  0
  6  7  2  0
  7  2  1  0
  9 10  2  0
 10 11  1  0
 11 12  2  0
 12 13  1  0
 13 14  2  0
 14  9  1  0
M  END

$$$$
