No_3122-gen_results/8p0m/2024-11-26-14-13-15/
     RDKit          3D

 35 37  0  0  0  0  0  0  0  0999 V2000
  -28.0162   -0.8135   28.8779 C   0  0  0  0  0  0  0  0  0  0  0  0
  -28.4690   -0.7850   29.8287 C   0  0  0  0  0  0  0  0  0  0  0  0
  -26.5042   -0.7777   28.8766 C   0  0  0  0  0  0  0  0  0  0  0  0
  -25.8103   -0.8531   30.1028 C   0  0  0  0  0  0  0  0  0  0  0  0
  -27.9906   -0.8916   31.2257 C   0  0  0  0  0  0  0  0  0  0  0  0
  -26.6042   -0.8676   31.2652 C   0  0  0  0  0  0  0  0  0  0  0  0
  -24.5534   -0.7870   30.1406 F   0  0  0  0  0  0  0  0  0  0  0  0
  -30.0954   -0.8409   29.8497 C   0  0  0  0  0  0  0  0  0  0  0  0
  -30.5236   -0.4692   28.9258 O   0  0  0  0  0  0  0  0  0  0  0  0
  -30.7532   -0.9274   30.9769 O   0  0  0  0  0  0  0  0  0  0  0  0
  -25.5261   -0.7022   27.4656 Cl  0  0  0  0  0  0  0  0  0  0  0  0
  -31.9987   -1.4193   31.0041 C   0  0  0  0  0  0  0  0  0  0  0  0
  -32.4629   -1.7761   32.2479 C   0  0  0  0  0  0  0  0  0  0  0  0
  -33.6069   -2.1858   32.3984 O   0  0  0  0  0  0  0  0  0  0  0  0
  -31.6589   -1.7840   33.2887 O   0  0  0  0  0  0  0  0  0  0  0  0
  -32.6103   -1.5280   30.0013 O   0  0  0  0  0  0  0  0  0  0  0  0
  -31.4530   -0.8879   34.1411 C   0  0  0  0  0  0  0  0  0  0  0  0
  -30.2674   -1.0172   34.8760 C   0  0  0  0  0  0  0  0  0  0  0  0
  -30.0436   -0.6730   35.8388 C   0  0  0  0  0  0  0  0  0  0  0  0
  -30.8432    0.4343   36.4892 C   0  0  0  0  0  0  0  0  0  0  0  0
  -32.0572    0.6607   35.7751 C   0  0  0  0  0  0  0  0  0  0  0  0
  -32.3265   -0.0431   34.6316 C   0  0  0  0  0  0  0  0  0  0  0  0
  -33.0105    1.6666   36.3225 C   0  0  0  0  0  0  0  0  0  0  0  0
  -34.0889    1.7353   36.1457 C   0  0  0  0  0  0  0  0  0  0  0  0
  -35.0134    2.7537   36.6751 C   0  0  0  0  0  0  0  0  0  0  0  0
  -34.4312    3.6949   37.5123 C   0  0  0  0  0  0  0  0  0  0  0  0
  -33.1128    3.6580   37.7684 C   0  0  0  0  0  0  0  0  0  0  0  0
  -32.3419    2.6739   37.2051 C   0  0  0  0  0  0  0  0  0  0  0  0
  -32.3722    4.7917   38.8043 Cl  0  0  0  0  0  0  0  0  0  0  0  0
  -36.4228    2.7129   36.3384 C   0  0  0  0  0  0  0  0  0  0  0  0
  -36.7482    1.8146   35.6067 F   0  0  0  0  0  0  0  0  0  0  0  0
  -37.3794    2.7219   37.7524 S   0  0  0  0  0  0  0  0  0  0  0  0
  -36.6511    4.0385   35.5668 C   0  0  0  0  0  0  0  0  0  0  0  0
  -37.0853    1.7721   38.4911 O   0  0  0  0  0  0  0  0  0  0  0  0
  -37.2085    4.0719   38.3336 O   0  0  0  0  0  0  0  0  0  0  0  0
  4  7  1  0
  2  8  1  0
  8  9  2  0
  8 10  1  0
  3 11  1  0
 10 12  1  0
 12 13  1  0
 13 14  2  0
 13 15  1  0
 12 16  2  0
 15 17  1  0
 21 23  1  0
 27 29  1  0
 25 30  1  0
 30 31  1  0
 30 32  1  0
 30 33  1  0
 32 34  2  0
 32 35  2  0
 17 18  2  0
 18 19  1  0
 19 20  2  0
 20 21  1  0
 21 22  2  0
 22 17  1  0
 23 24  2  0
 24 25  1  0
 25 26  2  0
 26 27  1  0
 27 28  2  0
 28 23  1  0
  1  2  2  0
  2  5  1  0
  5  6  2  0
  6  4  1  0
  4  3  2  0
  3  1  1  0
M  END

$$$$
