No_3938-gen_results/8p0m/2024-11-26-14-13-15/
     RDKit          3D

 19 20  0  0  0  0  0  0  0  0999 V2000
  -28.0162   -0.8135   28.8779 C   0  0  0  0  0  0  0  0  0  0  0  0
  -27.0636   -0.1189   28.6079 C   0  0  0  0  0  0  0  0  0  0  0  0
  -26.8756    1.1325   28.9134 C   0  0  0  0  0  0  0  0  0  0  0  0
  -25.6883    1.9515   28.5672 C   0  0  0  0  0  0  0  0  0  0  0  0
  -24.6394    1.2834   27.8753 C   0  0  0  0  0  0  0  0  0  0  0  0
  -24.8068   -0.0513   27.6040 C   0  0  0  0  0  0  0  0  0  0  0  0
  -25.9019   -0.7670   27.9511 C   0  0  0  0  0  0  0  0  0  0  0  0
  -29.2158   -0.1185   29.1813 C   0  0  0  0  0  0  0  0  0  0  0  0
  -30.1606   -0.7081   29.8314 N   0  0  0  0  0  0  0  0  0  0  0  0
  -23.4208    1.9744   27.5040 C   0  0  0  0  0  0  0  0  0  0  0  0
  -23.0323    2.6861   26.7465 N   0  0  0  0  0  0  0  0  0  0  0  0
  -22.2701    1.5605   28.3765 N   0  0  0  0  0  0  0  0  0  0  0  0
  -21.1424    2.0299   27.7254 C   0  0  0  0  0  0  0  0  0  0  0  0
  -21.6531    2.5703   26.5657 C   0  0  0  0  0  0  0  0  0  0  0  0
  -29.9232   -1.6140   30.6796 C   0  0  0  0  0  0  0  0  0  0  0  0
  -28.7888   -2.4949   30.5092 C   0  0  0  0  0  0  0  0  0  0  0  0
  -27.7888   -1.9470   29.8747 C   0  0  0  0  0  0  0  0  0  0  0  0
  -26.5893   -2.5476   29.8923 O   0  0  0  0  0  0  0  0  0  0  0  0
  -27.2350   -1.5694   30.7013 F   0  0  0  0  0  0  0  0  0  0  0  0
  1  2  2  3
  2  3  1  0
  3  4  1  0
  4  5  1  0
  5  6  1  0
  2  7  1  0
  6  7  1  0
  1  8  1  0
  8  9  1  0
  5 10  1  0
 10 11  2  0
 10 12  1  0
 12 13  2  0
 11 14  1  0
 13 14  1  0
  9 15  1  0
 15 16  2  3
 16 17  1  0
 17 18  1  0
 17 19  1  0
M  END

$$$$
