No_3880-gen_results/8p0m/2024-11-26-14-13-15/
     RDKit          3D

 21 24  0  0  0  0  0  0  0  0999 V2000
  -28.0162   -0.8135   28.8779 C   0  0  0  0  0  0  0  0  0  0  0  0
  -28.4690   -0.7850   29.8287 C   0  0  0  0  0  0  0  0  0  0  0  0
  -26.5455   -0.8762   28.8500 C   0  0  0  0  0  0  0  0  0  0  0  0
  -25.8041   -1.0324   30.0571 C   0  0  0  0  0  0  0  0  0  0  0  0
  -26.5373   -1.0386   31.2171 C   0  0  0  0  0  0  0  0  0  0  0  0
  -27.8843   -0.9532   31.1862 C   0  0  0  0  0  0  0  0  0  0  0  0
  -24.3655   -1.1134   30.0483 C   0  0  0  0  0  0  0  0  0  0  0  0
  -23.7447   -1.3690   30.8125 C   0  0  0  0  0  0  0  0  0  0  0  0
  -22.2072   -1.2504   30.8577 C   0  0  0  0  0  0  0  0  0  0  0  0
  -21.6856   -0.8191   29.6527 C   0  0  0  0  0  0  0  0  0  0  0  0
  -23.7345   -0.6112   28.7797 C   0  0  0  0  0  0  0  0  0  0  0  0
  -22.4343   -0.4609   28.6549 C   0  0  0  0  0  0  0  0  0  0  0  0
  -29.9588   -0.6745   29.9048 N   0  0  0  0  0  0  0  0  0  0  0  0
  -30.7514   -1.4176   30.3847 C   0  0  0  0  0  0  0  0  0  0  0  0
  -30.4537   -2.4716   30.9898 C   0  0  0  0  0  0  0  0  0  0  0  0
  -30.5795   -3.5253   30.7855 C   0  0  0  0  0  0  0  0  0  0  0  0
  -30.0397   -4.7715   31.4432 C   0  0  0  0  0  0  0  0  0  0  0  0
  -29.3825   -4.5498   32.6163 C   0  0  0  0  0  0  0  0  0  0  0  0
  -29.2068   -3.3099   33.0826 C   0  0  0  0  0  0  0  0  0  0  0  0
  -29.6293   -2.2919   32.3408 C   0  0  0  0  0  0  0  0  0  0  0  0
  -28.1525   -1.5445   31.9160 C   0  0  0  0  0  0  0  0  0  0  0  0
  4  7  1  0
  2 13  1  0
 13 14  1  0
  6 21  1  0
 20 21  1  0
 14 15  1  0
  7  8  2  0
  8  9  1  0
  9 10  2  0
 10 12  1  0
 12 11  2  0
 11  7  1  0
  1  2  2  0
  2  6  1  0
  6  5  2  0
  5  4  1  0
  4  3  2  0
  3  1  1  0
 15 16  2  0
 16 17  1  0
 17 18  2  0
 18 19  1  0
 19 20  2  0
 20 15  1  0
M  END

$$$$
