No_3921-gen_results/8p0m/2024-11-26-14-13-15/
     RDKit          3D

 13 13  0  0  0  0  0  0  0  0999 V2000
  -28.0162   -0.8135   28.8779 C   0  0  0  0  0  0  0  0  0  0  0  0
  -28.4690   -0.7850   29.8287 C   0  0  0  0  0  0  0  0  0  0  0  0
  -27.1356    0.2359   28.5352 C   0  0  0  0  0  0  0  0  0  0  0  0
  -26.8745    1.2825   29.3982 C   0  0  0  0  0  0  0  0  0  0  0  0
  -28.3613    0.1987   30.9244 C   0  0  0  0  0  0  0  0  0  0  0  0
  -27.5277    1.2234   30.6356 C   0  0  0  0  0  0  0  0  0  0  0  0
  -26.3987    0.2949   27.2279 C   0  0  0  0  0  0  0  0  0  0  0  0
  -26.9306   -0.1351   26.3033 F   0  0  0  0  0  0  0  0  0  0  0  0
  -25.1364   -0.3183   27.4343 F   0  0  0  0  0  0  0  0  0  0  0  0
  -25.9214    1.5986   26.8889 F   0  0  0  0  0  0  0  0  0  0  0  0
  -29.4419   -1.8903   30.4607 C   0  0  0  0  0  0  0  0  0  0  0  0
  -29.5420   -2.3306   31.3671 O   0  0  0  0  0  0  0  0  0  0  0  0
  -30.1952   -2.3848   29.3830 O   0  0  0  0  0  0  0  0  0  0  0  0
  3  7  1  0
  7  8  1  0
  7  9  1  0
  7 10  1  0
  2 11  1  0
 11 12  2  0
 11 13  1  0
  1  2  2  0
  2  5  1  0
  5  6  2  0
  6  4  1  0
  4  3  2  0
  3  1  1  0
M  END

$$$$
