No_3377-gen_results/8p0m/2024-11-26-14-13-15/
     RDKit          3D

 16 16  0  0  0  0  0  0  0  0999 V2000
  -28.0162   -0.8135   28.8779 C   0  0  0  0  0  0  0  0  0  0  0  0
  -27.0636   -0.1189   28.6079 C   0  0  0  0  0  0  0  0  0  0  0  0
  -25.7923   -0.4302   29.0761 C   0  0  0  0  0  0  0  0  0  0  0  0
  -25.5756   -1.5654   29.9363 C   0  0  0  0  0  0  0  0  0  0  0  0
  -26.7354   -2.3004   30.2173 C   0  0  0  0  0  0  0  0  0  0  0  0
  -27.9184   -1.9537   29.7629 C   0  0  0  0  0  0  0  0  0  0  0  0
  -27.1057    1.1023   27.7593 C   0  0  0  0  0  0  0  0  0  0  0  0
  -26.7157    2.2350   27.9945 C   0  0  0  0  0  0  0  0  0  0  0  0
  -26.0688    2.4770   29.3567 C   0  0  0  0  0  0  0  0  0  0  0  0
  -25.4565    3.6146   29.3485 F   0  0  0  0  0  0  0  0  0  0  0  0
  -24.9884    1.5709   29.5720 F   0  0  0  0  0  0  0  0  0  0  0  0
  -26.9275    2.4477   30.3310 F   0  0  0  0  0  0  0  0  0  0  0  0
  -27.8941    0.8142   26.4311 C   0  0  0  0  0  0  0  0  0  0  0  0
  -27.4925    1.3691   25.6436 F   0  0  0  0  0  0  0  0  0  0  0  0
  -28.7327   -0.0652   26.3882 F   0  0  0  0  0  0  0  0  0  0  0  0
  -28.6621    1.7325   26.3518 F   0  0  0  0  0  0  0  0  0  0  0  0
  2  7  1  0
  7  8  2  3
  8  9  1  0
  9 10  1  0
  9 11  1  0
  9 12  1  0
  7 13  1  0
 13 14  1  0
 13 15  1  0
 13 16  1  0
  1  2  2  0
  2  3  1  0
  3  4  2  0
  4  5  1  0
  5  6  2  0
  6  1  1  0
M  END

$$$$
