No_336-gen_results/8p0m/2024-11-26-14-13-15/
     RDKit          3D

 14 15  0  0  0  0  0  0  0  0999 V2000
  -28.0162   -0.8135   28.8779 C   0  0  0  0  0  0  0  0  0  0  0  0
  -28.4690   -0.7850   29.8287 C   0  0  0  0  0  0  0  0  0  0  0  0
  -26.5455   -0.8762   28.8500 C   0  0  0  0  0  0  0  0  0  0  0  0
  -25.6825   -0.7773   27.6829 C   0  0  0  0  0  0  0  0  0  0  0  0
  -27.9181   -1.0034   31.1877 C   0  0  0  0  0  0  0  0  0  0  0  0
  -26.5308   -1.0794   31.2463 C   0  0  0  0  0  0  0  0  0  0  0  0
  -25.7798   -1.0462   30.0905 C   0  0  0  0  0  0  0  0  0  0  0  0
  -25.8976    0.2387   26.7449 C   0  0  0  0  0  0  0  0  0  0  0  0
  -25.6318    1.4984   27.0379 C   0  0  0  0  0  0  0  0  0  0  0  0
  -24.8915    1.8299   28.2575 C   0  0  0  0  0  0  0  0  0  0  0  0
  -24.6121    3.2215   28.5006 C   0  0  0  0  0  0  0  0  0  0  0  0
  -25.0213    4.1772   27.5294 C   0  0  0  0  0  0  0  0  0  0  0  0
  -25.6030    3.8239   26.3387 C   0  0  0  0  0  0  0  0  0  0  0  0
  -25.9215    2.4939   26.1337 C   0  0  0  0  0  0  0  0  0  0  0  0
  3  4  1  0
  4  8  1  0
  8  9  1  0
  9 10  2  0
 10 11  1  0
 11 12  2  0
 12 13  1  0
 13 14  2  0
 14  9  1  0
  1  2  2  0
  2  5  1  0
  5  6  2  0
  6  7  1  0
  7  3  2  0
  3  1  1  0
M  END

$$$$
