No_3093-gen_results/8p0m/2024-11-26-14-13-15/
     RDKit          3D

 10 11  0  0  0  0  0  0  0  0999 V2000
  -28.0162   -0.8135   28.8779 C   0  0  0  0  0  0  0  0  0  0  0  0
  -28.4690   -0.7850   29.8287 C   0  0  0  0  0  0  0  0  0  0  0  0
  -27.1356    0.2359   28.5352 C   0  0  0  0  0  0  0  0  0  0  0  0
  -26.8050    1.0509   29.2763 C   0  0  0  0  0  0  0  0  0  0  0  0
  -27.3158    1.1492   30.6054 C   0  0  0  0  0  0  0  0  0  0  0  0
  -28.1917    0.1430   30.9488 C   0  0  0  0  0  0  0  0  0  0  0  0
  -26.4831    0.2096   27.1281 C   0  0  0  0  0  0  0  0  0  0  0  0
  -25.1459    0.4400   27.0687 C   0  0  0  0  0  0  0  0  0  0  0  0
  -24.5533    1.3378   28.0204 C   0  0  0  0  0  0  0  0  0  0  0  0
  -25.3149    1.5247   29.2710 C   0  0  0  0  0  0  0  0  0  0  0  0
  4 10  2  0
 10  9  1  0
  9  8  2  0
  8  7  1  0
  7  3  2  0
  1  2  2  0
  2  6  1  0
  6  5  2  0
  5  4  1  0
  4  3  1  0
  3  1  1  0
M  END

$$$$
