No_3844-gen_results/8p0m/2024-11-26-14-13-15/
     RDKit          3D

 30 32  0  0  0  0  0  0  0  0999 V2000
  -28.0162   -0.8135   28.8779 C   0  0  0  0  0  0  0  0  0  0  0  0
  -27.0636   -0.1189   28.6079 C   0  0  0  0  0  0  0  0  0  0  0  0
  -25.7923   -0.4302   29.0761 C   0  0  0  0  0  0  0  0  0  0  0  0
  -25.5314   -1.5875   29.6105 C   0  0  0  0  0  0  0  0  0  0  0  0
  -26.6366   -2.4336   29.9654 C   0  0  0  0  0  0  0  0  0  0  0  0
  -27.8411   -2.0285   29.6196 C   0  0  0  0  0  0  0  0  0  0  0  0
  -26.9564    1.2066   27.8319 C   0  0  0  0  0  0  0  0  0  0  0  0
  -25.9832    1.7188   27.4112 C   0  0  0  0  0  0  0  0  0  0  0  0
  -24.6221    1.3104   27.9309 C   0  0  0  0  0  0  0  0  0  0  0  0
  -24.4477    0.5058   28.7021 C   0  0  0  0  0  0  0  0  0  0  0  0
  -23.5818    2.3934   27.6017 C   0  0  0  0  0  0  0  0  0  0  0  0
  -23.6053    3.0746   26.5256 O   0  0  0  0  0  0  0  0  0  0  0  0
  -22.3869    2.2677   28.1786 O   0  0  0  0  0  0  0  0  0  0  0  0
  -28.8982   -2.8202   29.9920 O   0  0  0  0  0  0  0  0  0  0  0  0
  -29.3023   -2.8265   31.3164 C   0  0  0  0  0  0  0  0  0  0  0  0
  -29.8250   -4.0921   31.6939 C   0  0  0  0  0  0  0  0  0  0  0  0
  -29.3913   -5.0988   31.1840 F   0  0  0  0  0  0  0  0  0  0  0  0
  -31.1728   -4.2013   31.7568 F   0  0  0  0  0  0  0  0  0  0  0  0
  -29.4239   -4.6751   32.9094 F   0  0  0  0  0  0  0  0  0  0  0  0
  -30.1128   -1.7929   31.5810 F   0  0  0  0  0  0  0  0  0  0  0  0
  -28.3750    1.5798   27.2799 C   0  0  0  0  0  0  0  0  0  0  0  0
  -29.0932    2.1367   27.9007 O   0  0  0  0  0  0  0  0  0  0  0  0
  -28.4115    1.4445   25.9605 O   0  0  0  0  0  0  0  0  0  0  0  0
  -29.5201    0.9055   25.3605 C   0  0  0  0  0  0  0  0  0  0  0  0
  -30.3775    0.6695   25.8312 C   0  0  0  0  0  0  0  0  0  0  0  0
  -31.5077   -0.1588   25.2165 C   0  0  0  0  0  0  0  0  0  0  0  0
  -31.2936   -0.4457   23.8609 C   0  0  0  0  0  0  0  0  0  0  0  0
  -29.1901    0.4752   23.9732 C   0  0  0  0  0  0  0  0  0  0  0  0
  -30.1166   -0.2066   23.2929 C   0  0  0  0  0  0  0  0  0  0  0  0
  -28.2018   -2.5714   32.1699 F   0  0  0  0  0  0  0  0  0  0  0  0
  9 11  1  0
 11 12  2  0
 11 13  1  0
  6 14  1  0
 14 15  1  0
 15 16  1  0
 16 17  1  0
 16 18  1  0
 16 19  1  0
 15 20  1  0
  7 21  1  0
 21 22  2  0
 21 23  1  0
 23 24  1  0
 15 30  1  0
  1  2  2  0
  3  4  2  0
  4  5  1  0
  5  6  2  0
  6  1  1  0
  2  3  1  0
  3 10  1  0
 10  9  2  0
  9  8  1  0
  8  7  2  0
  7  2  1  0
 24 25  2  0
 25 26  1  0
 26 27  2  0
 27 29  1  0
 29 28  2  0
 28 24  1  0
M  END

$$$$
