No_368-gen_results/8p0m/2024-11-26-14-13-15/
     RDKit          3D

 10  9  0  0  0  0  0  0  0  0999 V2000
  -28.0162   -0.8135   28.8779 C   0  0  0  0  0  0  0  0  0  0  0  0
  -27.0636   -0.1189   28.6079 C   0  0  0  0  0  0  0  0  0  0  0  0
  -27.0425    0.2440   27.4277 F   0  0  0  0  0  0  0  0  0  0  0  0
  -29.0070   -0.5324   28.2228 F   0  0  0  0  0  0  0  0  0  0  0  0
  -28.3547   -0.6248   30.2851 F   0  0  0  0  0  0  0  0  0  0  0  0
  -25.7408   -0.0436   29.3160 C   0  0  0  0  0  0  0  0  0  0  0  0
  -25.6004   -0.0576   30.4516 C   0  0  0  0  0  0  0  0  0  0  0  0
  -24.2584    0.1424   31.0966 C   0  0  0  0  0  0  0  0  0  0  0  0
  -23.1769    0.3078   30.2544 C   0  0  0  0  0  0  0  0  0  0  0  0
  -23.3587    0.3424   28.9024 C   0  0  0  0  0  0  0  0  0  0  0  0
  1  2  1  0
  2  3  1  0
  1  4  1  0
  1  5  1  0
  2  6  1  0
  6  7  2  3
  7  8  1  0
  8  9  2  3
  9 10  1  0
M  END

$$$$
