No_3394-gen_results/8p0m/2024-11-26-14-13-15/
     RDKit          3D

 27 30  0  0  0  0  0  0  0  0999 V2000
  -28.0162   -0.8135   28.8779 C   0  0  0  0  0  0  0  0  0  0  0  0
  -28.4690   -0.7850   29.8287 C   0  0  0  0  0  0  0  0  0  0  0  0
  -26.5455   -0.8762   28.8500 C   0  0  0  0  0  0  0  0  0  0  0  0
  -25.8974   -0.8267   29.8894 C   0  0  0  0  0  0  0  0  0  0  0  0
  -27.9129   -0.8385   31.1942 C   0  0  0  0  0  0  0  0  0  0  0  0
  -26.5519   -0.8324   31.1775 C   0  0  0  0  0  0  0  0  0  0  0  0
  -29.9348   -0.7809   29.9077 O   0  0  0  0  0  0  0  0  0  0  0  0
  -24.5420   -0.8301   29.9198 F   0  0  0  0  0  0  0  0  0  0  0  0
  -30.5913    0.3082   30.3202 C   0  0  0  0  0  0  0  0  0  0  0  0
  -31.7241    0.3526   30.1123 C   0  0  0  0  0  0  0  0  0  0  0  0
  -32.5184    1.5701   30.4794 C   0  0  0  0  0  0  0  0  0  0  0  0
  -31.8195    2.6130   31.1171 C   0  0  0  0  0  0  0  0  0  0  0  0
  -30.4666    2.4637   31.3262 C   0  0  0  0  0  0  0  0  0  0  0  0
  -29.7948    1.3648   30.9470 C   0  0  0  0  0  0  0  0  0  0  0  0
  -32.5038    3.6568   31.4915 F   0  0  0  0  0  0  0  0  0  0  0  0
  -29.6975    3.5563   31.9969 C   0  0  0  0  0  0  0  0  0  0  0  0
  -28.4471    3.4326   32.1403 N   0  0  0  0  0  0  0  0  0  0  0  0
  -27.6771    4.2288   32.9242 C   0  0  0  0  0  0  0  0  0  0  0  0
  -26.3631    3.7239   32.9794 C   0  0  0  0  0  0  0  0  0  0  0  0
  -26.3145    2.6430   32.0362 C   0  0  0  0  0  0  0  0  0  0  0  0
  -27.6077    2.4899   31.6201 C   0  0  0  0  0  0  0  0  0  0  0  0
  -28.3342    1.3416   31.1248 C   0  0  0  0  0  0  0  0  0  0  0  0
  -28.6185   -0.3710   32.1154 O   0  0  0  0  0  0  0  0  0  0  0  0
  -27.8569    1.8174   29.8567 O   0  0  0  0  0  0  0  0  0  0  0  0
  -27.0815    2.4587   29.1279 C   0  0  0  0  0  0  0  0  0  0  0  0
  -27.4999    3.6041   28.4342 C   0  0  0  0  0  0  0  0  0  0  0  0
  -26.6493    4.2777   27.6776 C   0  0  0  0  0  0  0  0  0  0  0  0
  2  7  1  0
  4  8  1  0
  7  9  1  0
 12 15  1  0
 13 16  1  0
 16 17  1  0
 17 18  1  0
 18 19  2  0
 19 20  1  0
 17 21  1  0
 20 21  1  0
 14 22  1  0
 21 22  1  0
  5 23  1  0
 22 24  1  0
 24 25  1  0
 25 26  2  3
 26 27  1  0
  9 10  2  0
 10 11  1  0
 11 12  2  0
 12 13  1  0
 13 14  2  0
 14  9  1  0
  1  2  2  0
  2  5  1  0
  5  6  2  0
  6  4  1  0
  4  3  2  0
  3  1  1  0
M  END

$$$$
