No_3141-gen_results/8p0m/2024-11-26-14-13-15/
     RDKit          3D

 24 26  0  0  0  0  0  0  0  0999 V2000
  -28.1493   -0.8198   28.9079 Cl  0  0  0  0  0  0  0  0  0  0  0  0
  -27.8339    0.4961   29.0598 C   0  0  0  0  0  0  0  0  0  0  0  0
  -27.8833    1.0376   30.1944 F   0  0  0  0  0  0  0  0  0  0  0  0
  -26.3797    0.7729   28.5385 C   0  0  0  0  0  0  0  0  0  0  0  0
  -28.6112    1.2493   28.2241 F   0  0  0  0  0  0  0  0  0  0  0  0
  -25.4126    0.2715   29.2941 C   0  0  0  0  0  0  0  0  0  0  0  0
  -24.3784    1.1101   29.8225 C   0  0  0  0  0  0  0  0  0  0  0  0
  -23.2357    0.4982   30.4525 C   0  0  0  0  0  0  0  0  0  0  0  0
  -23.2679   -0.8563   30.7026 C   0  0  0  0  0  0  0  0  0  0  0  0
  -24.2465   -1.6598   30.2098 C   0  0  0  0  0  0  0  0  0  0  0  0
  -25.2550   -1.1166   29.4470 C   0  0  0  0  0  0  0  0  0  0  0  0
  -26.0606    1.4549   27.3212 C   0  0  0  0  0  0  0  0  0  0  0  0
  -26.5236    1.1098   26.1010 C   0  0  0  0  0  0  0  0  0  0  0  0
  -27.3235    0.0224   25.7800 C   0  0  0  0  0  0  0  0  0  0  0  0
  -27.7289   -0.2163   24.4386 C   0  0  0  0  0  0  0  0  0  0  0  0
  -28.6823   -1.2123   24.1634 C   0  0  0  0  0  0  0  0  0  0  0  0
  -29.9851   -1.0735   24.6918 C   0  0  0  0  0  0  0  0  0  0  0  0
  -30.4132    0.1010   25.2451 C   0  0  0  0  0  0  0  0  0  0  0  0
  -31.3594    0.4707   25.2878 C   0  0  0  0  0  0  0  0  0  0  0  0
  -31.7937    1.7381   25.9467 C   0  0  0  0  0  0  0  0  0  0  0  0
  -30.8002    2.6376   26.2984 C   0  0  0  0  0  0  0  0  0  0  0  0
  -29.5028    2.3032   25.9297 C   0  0  0  0  0  0  0  0  0  0  0  0
  -29.2298    1.0250   25.4601 C   0  0  0  0  0  0  0  0  0  0  0  0
  -28.0281    0.8364   25.2003 N   0  0  0  0  0  0  0  0  0  0  0  0
  1  2  1  0
  2  3  1  0
  2  4  1  0
  2  5  1  0
  4  6  1  0
  4 12  1  0
 12 13  2  3
 13 14  1  0
 14 15  2  0
 15 16  1  0
 16 17  2  0
 17 18  1  0
 14 24  1  0
 23 24  1  0
 18 19  2  0
 19 20  1  0
 20 21  2  0
 21 22  1  0
 22 23  2  0
 23 18  1  0
  6  7  2  0
  7  8  1  0
  8  9  2  0
  9 10  1  0
 10 11  2  0
 11  6  1  0
M  END

$$$$
