No_3336-gen_results/8p0m/2024-11-26-14-13-15/
     RDKit          3D

 21 24  0  0  0  0  0  0  0  0999 V2000
  -28.0162   -0.8135   28.8779 C   0  0  0  0  0  0  0  0  0  0  0  0
  -28.4690   -0.7850   29.8287 C   0  0  0  0  0  0  0  0  0  0  0  0
  -27.0871    0.2903   28.6377 C   0  0  0  0  0  0  0  0  0  0  0  0
  -26.0238    0.3644   29.2526 C   0  0  0  0  0  0  0  0  0  0  0  0
  -29.4161   -1.9279   30.1751 C   0  0  0  0  0  0  0  0  0  0  0  0
  -26.2326    0.1422   30.7730 C   0  0  0  0  0  0  0  0  0  0  0  0
  -27.3914   -0.7532   31.0134 C   0  0  0  0  0  0  0  0  0  0  0  0
  -29.1634   -3.0010   30.3887 O   0  0  0  0  0  0  0  0  0  0  0  0
  -30.6966   -1.5324   30.2438 O   0  0  0  0  0  0  0  0  0  0  0  0
  -29.2795    0.5031   30.2031 C   0  0  0  0  0  0  0  0  0  0  0  0
  -29.4322    0.7871   31.3590 C   0  0  0  0  0  0  0  0  0  0  0  0
  -29.6981    1.7290   31.8522 C   0  0  0  0  0  0  0  0  0  0  0  0
  -29.9957    2.0813   33.3012 C   0  0  0  0  0  0  0  0  0  0  0  0
  -29.9557    0.9833   34.1819 C   0  0  0  0  0  0  0  0  0  0  0  0
  -29.6833   -0.2636   33.6675 C   0  0  0  0  0  0  0  0  0  0  0  0
  -29.4117   -0.4010   32.3717 C   0  0  0  0  0  0  0  0  0  0  0  0
  -28.0500   -0.5319   32.4204 C   0  0  0  0  0  0  0  0  0  0  0  0
  -26.6811    0.4515   27.0009 C   0  0  0  0  0  0  0  0  0  0  0  0
  -25.5029    0.9076   26.6857 C   0  0  0  0  0  0  0  0  0  0  0  0
  -24.4511    1.1100   27.6152 C   0  0  0  0  0  0  0  0  0  0  0  0
  -24.7235    0.8373   28.9357 C   0  0  0  0  0  0  0  0  0  0  0  0
  1  2  1  0
  1  3  1  0
  2  5  1  0
  4  6  1  0
  2  7  1  0
  6  7  1  0
  5  8  2  0
  5  9  1  0
  2 10  1  0
 10 11  1  0
  7 17  1  0
 16 17  1  0
 11 12  2  0
 12 13  1  0
 13 14  2  0
 14 15  1  0
 15 16  2  0
 16 11  1  0
  3 18  2  0
 18 19  1  0
 19 20  2  0
 20 21  1  0
 21  4  2  0
  4  3  1  0
M  END

$$$$
