No_3884-gen_results/8p0m/2024-11-26-14-13-15/
     RDKit          3D

 16 18  0  0  0  0  0  0  0  0999 V2000
  -28.0162   -0.8135   28.8779 C   0  0  0  0  0  0  0  0  0  0  0  0
  -28.4690   -0.7850   29.8287 C   0  0  0  0  0  0  0  0  0  0  0  0
  -26.5455   -0.8762   28.8500 C   0  0  0  0  0  0  0  0  0  0  0  0
  -25.8041   -1.0324   30.0571 C   0  0  0  0  0  0  0  0  0  0  0  0
  -27.9437   -0.9869   31.2075 C   0  0  0  0  0  0  0  0  0  0  0  0
  -24.4008   -1.0969   30.0965 C   0  0  0  0  0  0  0  0  0  0  0  0
  -26.5612   -1.0746   31.2270 C   0  0  0  0  0  0  0  0  0  0  0  0
  -23.7186    0.1121   29.8577 C   0  0  0  0  0  0  0  0  0  0  0  0
  -23.3042    0.5338   28.6704 C   0  0  0  0  0  0  0  0  0  0  0  0
  -22.6161    1.6994   28.4212 C   0  0  0  0  0  0  0  0  0  0  0  0
  -23.0462    2.3310   27.3355 C   0  0  0  0  0  0  0  0  0  0  0  0
  -23.8300    1.7136   26.2934 C   0  0  0  0  0  0  0  0  0  0  0  0
  -24.4168    0.5336   26.5570 C   0  0  0  0  0  0  0  0  0  0  0  0
  -24.2412   -0.0133   27.7200 C   0  0  0  0  0  0  0  0  0  0  0  0
  -25.6340   -0.4484   27.7638 C   0  0  0  0  0  0  0  0  0  0  0  0
  -26.1290   -0.7941   26.5541 O   0  0  0  0  0  0  0  0  0  0  0  0
  4  6  1  0
  6  8  1  0
  8  9  1  0
  3 15  1  0
 14 15  1  0
 15 16  2  0
  9 10  2  0
 10 11  1  0
 11 12  2  0
 12 13  1  0
 13 14  2  0
 14  9  1  0
  1  2  2  0
  2  5  1  0
  5  7  2  0
  7  4  1  0
  4  3  2  0
  3  1  1  0
M  END

$$$$
