No_3544-gen_results/8p0m/2024-11-26-14-13-15/
     RDKit          3D

 35 36  0  0  0  0  0  0  0  0999 V2000
  -28.0162   -0.8135   28.8779 C   0  0  0  0  0  0  0  0  0  0  0  0
  -27.0636   -0.1189   28.6079 C   0  0  0  0  0  0  0  0  0  0  0  0
  -25.7923   -0.4302   29.0761 C   0  0  0  0  0  0  0  0  0  0  0  0
  -25.5756   -1.5654   29.9363 C   0  0  0  0  0  0  0  0  0  0  0  0
  -26.7354   -2.3004   30.2173 C   0  0  0  0  0  0  0  0  0  0  0  0
  -27.9184   -1.9537   29.7629 C   0  0  0  0  0  0  0  0  0  0  0  0
  -29.0001   -2.7012   30.1151 O   0  0  0  0  0  0  0  0  0  0  0  0
  -24.6795    0.2962   28.8383 F   0  0  0  0  0  0  0  0  0  0  0  0
  -29.3688   -2.8298   31.4447 C   0  0  0  0  0  0  0  0  0  0  0  0
  -29.7517   -4.1390   31.7396 C   0  0  0  0  0  0  0  0  0  0  0  0
  -30.0088   -4.3981   33.0606 C   0  0  0  0  0  0  0  0  0  0  0  0
  -31.0651   -3.9729   33.5049 F   0  0  0  0  0  0  0  0  0  0  0  0
  -28.9726   -3.8650   33.8053 F   0  0  0  0  0  0  0  0  0  0  0  0
  -30.7564   -4.7060   30.8905 N   0  0  0  0  0  0  0  0  0  0  0  0
  -30.5306   -5.5331   29.8396 C   0  0  0  0  0  0  0  0  0  0  0  0
  -31.5404   -5.8678   29.0279 N   0  0  0  0  0  0  0  0  0  0  0  0
  -31.3298   -6.5229   27.8801 C   0  0  0  0  0  0  0  0  0  0  0  0
  -29.9366   -5.8024   33.2604 F   0  0  0  0  0  0  0  0  0  0  0  0
  -31.9939   -7.6415   27.6096 C   0  0  0  0  0  0  0  0  0  0  0  0
  -32.3966   -8.3042   28.5958 C   0  0  0  0  0  0  0  0  0  0  0  0
  -32.7556   -6.2879   29.4730 C   0  0  0  0  0  0  0  0  0  0  0  0
  -32.9785   -7.6336   29.6290 C   0  0  0  0  0  0  0  0  0  0  0  0
  -34.3576   -8.0789   29.9402 C   0  0  0  0  0  0  0  0  0  0  0  0
  -34.9673   -7.7929   30.8595 C   0  0  0  0  0  0  0  0  0  0  0  0
  -35.7519   -7.7357   31.5161 C   0  0  0  0  0  0  0  0  0  0  0  0
  -36.6980   -7.5944   32.4882 C   0  0  0  0  0  0  0  0  0  0  0  0
  -37.6908   -8.3665   32.5833 C   0  0  0  0  0  0  0  0  0  0  0  0
  -36.5524   -6.4385   33.4217 C   0  0  0  0  0  0  0  0  0  0  0  0
  -35.6755   -5.6973   33.5603 N   0  0  0  0  0  0  0  0  0  0  0  0
  -37.5111   -6.2925   34.3021 O   0  0  0  0  0  0  0  0  0  0  0  0
  -35.1581   -4.8488   33.7101 C   0  0  0  0  0  0  0  0  0  0  0  0
  -34.0715   -4.2249   32.9411 C   0  0  0  0  0  0  0  0  0  0  0  0
  -32.0861   -8.0246   30.9773 C   0  0  0  0  0  0  0  0  0  0  0  0
  -31.6444   -9.2992   31.0829 C   0  0  0  0  0  0  0  0  0  0  0  0
  -30.7519   -9.4462   32.2357 C   0  0  0  0  0  0  0  0  0  0  0  0
  6  7  1  0
  3  8  1  0
  7  9  1  0
  9 10  1  0
 10 11  1  0
 11 12  1  0
 11 13  1  0
 10 14  1  0
 14 15  1  0
 15 16  1  0
 16 17  1  0
 11 18  1  0
 19 20  1  0
 16 21  1  0
 20 22  1  0
 21 22  1  0
 22 23  1  0
 23 24  2  3
 24 25  1  0
 25 26  2  3
 26 27  1  0
 26 28  1  0
 28 29  1  0
 28 30  2  0
 29 31  1  0
 31 32  2  0
 22 33  1  0
 33 34  1  0
 34 35  1  0
 17 19  1  0
  1  2  2  0
  2  3  1  0
  3  4  2  0
  4  5  1  0
  5  6  2  0
  6  1  1  0
M  END

$$$$
