No_3664-gen_results/8p0m/2024-11-26-14-13-15/
     RDKit          3D

 21 22  0  0  0  0  0  0  0  0999 V2000
  -28.0162   -0.8135   28.8779 C   0  0  0  0  0  0  0  0  0  0  0  0
  -27.0636   -0.1189   28.6079 C   0  0  0  0  0  0  0  0  0  0  0  0
  -27.0010    0.6913   27.4910 C   0  0  0  0  0  0  0  0  0  0  0  0
  -25.8548    1.4825   27.0830 C   0  0  0  0  0  0  0  0  0  0  0  0
  -24.6901    1.4526   27.8807 C   0  0  0  0  0  0  0  0  0  0  0  0
  -24.7379    0.6010   29.0416 C   0  0  0  0  0  0  0  0  0  0  0  0
  -25.8234   -0.1688   29.3887 C   0  0  0  0  0  0  0  0  0  0  0  0
  -28.7568   -0.5479   30.0191 N   0  0  0  0  0  0  0  0  0  0  0  0
  -28.9317    0.3890   30.5031 C   0  0  0  0  0  0  0  0  0  0  0  0
  -29.3215    1.0528   31.2089 C   0  0  0  0  0  0  0  0  0  0  0  0
  -23.6003    2.1933   27.6098 N   0  0  0  0  0  0  0  0  0  0  0  0
  -23.4165    2.6588   26.3214 C   0  0  0  0  0  0  0  0  0  0  0  0
  -22.3559    2.0189   28.3045 C   0  0  0  0  0  0  0  0  0  0  0  0
  -29.3109   -1.8989   30.6093 C   0  0  0  0  0  0  0  0  0  0  0  0
  -30.1744    0.5118   32.3436 C   0  0  0  0  0  0  0  0  0  0  0  0
  -30.4253   -0.8610   32.5185 C   0  0  0  0  0  0  0  0  0  0  0  0
  -30.0563   -1.9077   31.8030 C   0  0  0  0  0  0  0  0  0  0  0  0
  -28.9771   -2.9444   30.0966 O   0  0  0  0  0  0  0  0  0  0  0  0
  -28.2611    0.8027   26.8279 C   0  0  0  0  0  0  0  0  0  0  0  0
  -29.1496    1.3651   27.2335 O   0  0  0  0  0  0  0  0  0  0  0  0
  -28.3366    0.0405   25.6398 O   0  0  0  0  0  0  0  0  0  0  0  0
  1  2  1  0
  1  8  1  0
  8  9  1  0
  9 10  3  0
  5 11  1  0
 11 12  1  0
 11 13  1  0
  8 14  1  0
 10 15  1  0
 15 16  2  0
 14 17  1  0
 16 17  1  0
 14 18  2  0
  3 19  1  0
 19 20  2  0
 19 21  1  0
  2  3  2  0
  3  4  1  0
  4  5  2  0
  5  6  1  0
  6  7  2  0
  7  2  1  0
M  END

$$$$
