No_3380-gen_results/8p0m/2024-11-26-14-13-15/
     RDKit          3D

 27 29  0  0  0  0  0  0  0  0999 V2000
  -28.0162   -0.8135   28.8779 C   0  0  0  0  0  0  0  0  0  0  0  0
  -27.0636   -0.1189   28.6079 C   0  0  0  0  0  0  0  0  0  0  0  0
  -26.9716    0.7139   27.5060 C   0  0  0  0  0  0  0  0  0  0  0  0
  -25.8206    1.4910   27.1160 C   0  0  0  0  0  0  0  0  0  0  0  0
  -24.6562    1.4242   27.9180 C   0  0  0  0  0  0  0  0  0  0  0  0
  -24.6847    0.5901   29.0659 C   0  0  0  0  0  0  0  0  0  0  0  0
  -25.8099   -0.1265   29.3338 C   0  0  0  0  0  0  0  0  0  0  0  0
  -28.6943   -0.4734   30.1587 C   0  0  0  0  0  0  0  0  0  0  0  0
  -29.7865   -1.3251   30.6371 C   0  0  0  0  0  0  0  0  0  0  0  0
  -23.4524    2.1889   27.6083 C   0  0  0  0  0  0  0  0  0  0  0  0
  -22.5786    2.2579   28.4957 O   0  0  0  0  0  0  0  0  0  0  0  0
  -23.3956    2.8281   26.4934 O   0  0  0  0  0  0  0  0  0  0  0  0
  -30.0019   -2.2923   30.0956 C   0  0  0  0  0  0  0  0  0  0  0  0
  -31.2004   -3.0454   30.5787 C   0  0  0  0  0  0  0  0  0  0  0  0
  -31.5495   -4.2765   29.9259 C   0  0  0  0  0  0  0  0  0  0  0  0
  -30.5908   -4.9419   29.1949 C   0  0  0  0  0  0  0  0  0  0  0  0
  -29.2848   -4.4735   29.1844 C   0  0  0  0  0  0  0  0  0  0  0  0
  -28.9513   -3.2411   29.7327 C   0  0  0  0  0  0  0  0  0  0  0  0
  -28.0013    0.7252   26.6904 F   0  0  0  0  0  0  0  0  0  0  0  0
  -28.4562    0.8265   30.8002 C   0  0  0  0  0  0  0  0  0  0  0  0
  -28.8967    0.9698   32.0376 C   0  0  0  0  0  0  0  0  0  0  0  0
  -29.9210    0.1532   32.5220 C   0  0  0  0  0  0  0  0  0  0  0  0
  -30.2704   -0.9162   31.8976 C   0  0  0  0  0  0  0  0  0  0  0  0
  -32.8683   -4.8813   30.0488 C   0  0  0  0  0  0  0  0  0  0  0  0
  -33.6569   -4.6483   30.9376 F   0  0  0  0  0  0  0  0  0  0  0  0
  -33.3724   -4.7548   28.9332 F   0  0  0  0  0  0  0  0  0  0  0  0
  -32.6234   -6.2470   30.2001 F   0  0  0  0  0  0  0  0  0  0  0  0
  1  8  1  0
  5 10  1  0
 10 11  2  0
 10 12  1  0
  3 19  1  0
 15 24  1  0
 24 25  1  0
 24 26  1  0
 24 27  1  0
  1  2  1  0
  9 13  1  0
  8  9  2  0
  9 23  1  0
 23 22  2  0
 22 21  1  0
 21 20  2  0
 20  8  1  0
  2  3  2  0
  3  4  1  0
  4  5  2  0
  5  6  1  0
  6  7  2  0
  7  2  1  0
 13 14  2  0
 14 15  1  0
 15 16  2  0
 16 17  1  0
 17 18  2  0
 18 13  1  0
M  END

$$$$
