No_377-gen_results/8p0m/2024-11-26-14-13-15/
     RDKit          3D

 31 34  0  0  0  0  0  0  0  0999 V2000
  -28.0162   -0.8135   28.8779 C   0  0  0  0  0  0  0  0  0  0  0  0
  -28.4690   -0.7850   29.8287 C   0  0  0  0  0  0  0  0  0  0  0  0
  -26.5455   -0.8762   28.8500 C   0  0  0  0  0  0  0  0  0  0  0  0
  -25.8041   -1.0324   30.0571 C   0  0  0  0  0  0  0  0  0  0  0  0
  -27.9437   -0.9869   31.2075 C   0  0  0  0  0  0  0  0  0  0  0  0
  -26.5825   -1.0386   31.2231 C   0  0  0  0  0  0  0  0  0  0  0  0
  -30.0279   -0.6588   29.6965 C   0  0  0  0  0  0  0  0  0  0  0  0
  -30.7763   -1.4156   30.1892 O   0  0  0  0  0  0  0  0  0  0  0  0
  -30.4492    0.3685   28.9711 N   0  0  0  0  0  0  0  0  0  0  0  0
  -29.6953    1.4012   28.3834 C   0  0  0  0  0  0  0  0  0  0  0  0
  -29.3178    2.3311   29.2089 C   0  0  0  0  0  0  0  0  0  0  0  0
  -29.1050    3.3360   29.0702 C   0  0  0  0  0  0  0  0  0  0  0  0
  -28.6911    4.3964   30.0879 C   0  0  0  0  0  0  0  0  0  0  0  0
  -28.3739    3.9347   31.3545 C   0  0  0  0  0  0  0  0  0  0  0  0
  -28.5578    2.5755   31.6091 C   0  0  0  0  0  0  0  0  0  0  0  0
  -28.9402    1.7619   30.6281 C   0  0  0  0  0  0  0  0  0  0  0  0
  -28.2192    2.1433   33.0093 C   0  0  0  0  0  0  0  0  0  0  0  0
  -26.9430    2.1277   33.4054 C   0  0  0  0  0  0  0  0  0  0  0  0
  -29.2797    1.5507   33.7544 C   0  0  0  0  0  0  0  0  0  0  0  0
  -28.9680    0.7033   34.7902 C   0  0  0  0  0  0  0  0  0  0  0  0
  -26.6141    1.4305   34.6040 C   0  0  0  0  0  0  0  0  0  0  0  0
  -27.5973    0.7458   35.3116 C   0  0  0  0  0  0  0  0  0  0  0  0
  -31.9157    0.4931   28.7667 C   0  0  0  0  0  0  0  0  0  0  0  0
  -25.5954   -0.7574   27.4226 Cl  0  0  0  0  0  0  0  0  0  0  0  0
  -32.6775    1.2474   29.5806 C   0  0  0  0  0  0  0  0  0  0  0  0
  -33.8731    1.4227   29.5267 C   0  0  0  0  0  0  0  0  0  0  0  0
  -34.5773    0.7407   28.5187 C   0  0  0  0  0  0  0  0  0  0  0  0
  -32.5358   -0.2428   27.7433 C   0  0  0  0  0  0  0  0  0  0  0  0
  -33.5560   -0.0724   27.5877 C   0  0  0  0  0  0  0  0  0  0  0  0
  -25.8638    2.7959   32.6823 C   0  0  0  0  0  0  0  0  0  0  0  0
  -25.4403    4.0998   32.9779 C   0  0  0  0  0  0  0  0  0  0  0  0
  2  7  1  0
  7  8  1  0
  7  9  1  0
  9 10  1  0
 10 11  1  0
 15 17  1  0
  9 23  1  0
  3 24  1  0
 18 30  1  0
 30 31  3  0
 11 12  2  0
 12 13  1  0
 13 14  2  0
 14 15  1  0
 15 16  2  0
 16 11  1  0
 23 25  2  0
 25 26  1  0
 26 27  2  0
 27 29  1  0
 29 28  2  0
 28 23  1  0
 17 18  2  0
 18 21  1  0
 21 22  2  0
 22 20  1  0
 20 19  2  0
 19 17  1  0
  1  2  2  0
  2  5  1  0
  5  6  2  0
  6  4  1  0
  4  3  2  0
  3  1  1  0
M  END

$$$$
