No_3266-gen_results/8p0m/2024-11-26-14-13-15/
     RDKit          3D

 16 17  0  0  0  0  0  0  0  0999 V2000
  -28.0162   -0.8135   28.8779 C   0  0  0  0  0  0  0  0  0  0  0  0
  -28.4690   -0.7850   29.8287 C   0  0  0  0  0  0  0  0  0  0  0  0
  -28.1816    0.4277   28.1134 C   0  0  0  0  0  0  0  0  0  0  0  0
  -28.9841    1.4155   28.5154 C   0  0  0  0  0  0  0  0  0  0  0  0
  -28.3375   -2.0481   30.7873 C   0  0  0  0  0  0  0  0  0  0  0  0
  -29.5615    1.2930   29.7416 C   0  0  0  0  0  0  0  0  0  0  0  0
  -29.3196    0.1647   30.4451 C   0  0  0  0  0  0  0  0  0  0  0  0
  -29.1342   -2.8864   30.7723 F   0  0  0  0  0  0  0  0  0  0  0  0
  -28.1362   -1.6801   32.0666 F   0  0  0  0  0  0  0  0  0  0  0  0
  -27.1068   -2.6499   30.4683 F   0  0  0  0  0  0  0  0  0  0  0  0
  -27.4490    0.4946   26.7288 C   0  0  0  0  0  0  0  0  0  0  0  0
  -28.1017    0.4468   25.6193 N   0  0  0  0  0  0  0  0  0  0  0  0
  -26.0075    0.5571   26.6802 C   0  0  0  0  0  0  0  0  0  0  0  0
  -25.5458    0.7625   25.3645 C   0  0  0  0  0  0  0  0  0  0  0  0
  -27.6166    0.4783   24.4249 C   0  0  0  0  0  0  0  0  0  0  0  0
  -26.2293    0.6002   24.2442 C   0  0  0  0  0  0  0  0  0  0  0  0
  2  5  1  0
  5  8  1  0
  5  9  1  0
  5 10  1  0
  3 11  1  0
 11 12  2  0
 12 15  1  0
 15 16  2  0
 16 14  1  0
 14 13  2  0
 13 11  1  0
  1  2  2  0
  2  7  1  0
  7  6  2  0
  6  4  1  0
  4  3  2  0
  3  1  1  0
M  END

$$$$
