No_3082-gen_results/8p0m/2024-11-26-14-13-15/
     RDKit          3D

 26 28  0  0  0  0  0  0  0  0999 V2000
  -28.0162   -0.8135   28.8779 C   0  0  0  0  0  0  0  0  0  0  0  0
  -27.0636   -0.1189   28.6079 C   0  0  0  0  0  0  0  0  0  0  0  0
  -26.9716    0.7139   27.5060 C   0  0  0  0  0  0  0  0  0  0  0  0
  -28.1053    0.7744   26.6421 C   0  0  0  0  0  0  0  0  0  0  0  0
  -29.2041    0.1179   27.0477 C   0  0  0  0  0  0  0  0  0  0  0  0
  -29.2127   -0.6088   28.1281 C   0  0  0  0  0  0  0  0  0  0  0  0
  -25.7106    1.4518   27.1380 C   0  0  0  0  0  0  0  0  0  0  0  0
  -25.2074    2.4128   27.9320 C   0  0  0  0  0  0  0  0  0  0  0  0
  -24.2878    2.8213   28.1828 C   0  0  0  0  0  0  0  0  0  0  0  0
  -23.0796    2.2449   27.3693 C   0  0  0  0  0  0  0  0  0  0  0  0
  -23.4280    1.2098   26.5252 C   0  0  0  0  0  0  0  0  0  0  0  0
  -24.6823    0.7243   26.4558 C   0  0  0  0  0  0  0  0  0  0  0  0
  -27.9730    1.8468   25.1145 Br  0  0  0  0  0  0  0  0  0  0  0  0
  -28.0857   -1.6947   30.1196 C   0  0  0  0  0  0  0  0  0  0  0  0
  -27.0959   -2.1799   30.4726 O   0  0  0  0  0  0  0  0  0  0  0  0
  -29.1719   -1.9236   30.6446 O   0  0  0  0  0  0  0  0  0  0  0  0
  -30.5150    0.2216   26.3445 C   0  0  0  0  0  0  0  0  0  0  0  0
  -31.3152    0.8084   26.5100 N   0  0  0  0  0  0  0  0  0  0  0  0
  -30.5251   -0.5664   25.2436 O   0  0  0  0  0  0  0  0  0  0  0  0
  -31.4661    1.7278   27.6632 C   0  0  0  0  0  0  0  0  0  0  0  0
  -32.0420    2.5116   28.1106 C   0  0  0  0  0  0  0  0  0  0  0  0
  -31.9530    3.2981   29.3167 C   0  0  0  0  0  0  0  0  0  0  0  0
  -30.8539    3.0314   30.1326 C   0  0  0  0  0  0  0  0  0  0  0  0
  -29.9716    2.0384   29.7488 C   0  0  0  0  0  0  0  0  0  0  0  0
  -30.2162    1.4694   28.6193 C   0  0  0  0  0  0  0  0  0  0  0  0
  -30.3543    0.4638   28.9657 F   0  0  0  0  0  0  0  0  0  0  0  0
  3  7  1  0
  4 13  1  0
  1 14  1  0
 14 15  2  0
 14 16  1  0
  5 17  1  0
 17 18  1  0
 17 19  2  0
 18 20  1  0
 25 26  1  0
 20 21  2  0
 21 22  1  0
 22 23  2  0
 23 24  1  0
 24 25  2  0
 25 20  1  0
  1  2  2  0
  2  3  1  0
  3  4  2  0
  4  5  1  0
  5  6  2  0
  6  1  1  0
  7  8  2  0
  8  9  1  0
  9 10  2  0
 10 11  1  0
 11 12  2  0
 12  7  1  0
M  END

$$$$
