No_3724-gen_results/8p0m/2024-11-26-14-13-15/
     RDKit          3D

 33 36  0  0  0  0  0  0  0  0999 V2000
  -28.0162   -0.8135   28.8779 C   0  0  0  0  0  0  0  0  0  0  0  0
  -28.4690   -0.7850   29.8287 C   0  0  0  0  0  0  0  0  0  0  0  0
  -28.1960    0.3478   28.0550 C   0  0  0  0  0  0  0  0  0  0  0  0
  -29.0191    1.3501   28.3782 C   0  0  0  0  0  0  0  0  0  0  0  0
  -29.4107    0.1803   30.3782 C   0  0  0  0  0  0  0  0  0  0  0  0
  -29.2236    2.4924   27.5425 C   0  0  0  0  0  0  0  0  0  0  0  0
  -29.5873    1.2242   29.6185 C   0  0  0  0  0  0  0  0  0  0  0  0
  -29.2305    2.7694   26.4507 C   0  0  0  0  0  0  0  0  0  0  0  0
  -28.9081    1.6236   25.5044 C   0  0  0  0  0  0  0  0  0  0  0  0
  -29.0432    1.7969   24.1266 C   0  0  0  0  0  0  0  0  0  0  0  0
  -29.4940    3.0563   23.6761 C   0  0  0  0  0  0  0  0  0  0  0  0
  -29.8940    4.0478   24.5033 C   0  0  0  0  0  0  0  0  0  0  0  0
  -29.7917    3.9303   25.8582 C   0  0  0  0  0  0  0  0  0  0  0  0
  -29.3827    3.7788   28.5004 C   0  0  0  0  0  0  0  0  0  0  0  0
  -28.4992    4.6415   28.5255 N   0  0  0  0  0  0  0  0  0  0  0  0
  -27.6467    4.8458   29.2189 C   0  0  0  0  0  0  0  0  0  0  0  0
  -27.6115    4.4528   30.3846 O   0  0  0  0  0  0  0  0  0  0  0  0
  -26.4417    5.7630   28.7434 C   0  0  0  0  0  0  0  0  0  0  0  0
  -25.1257    5.8981   29.2931 Cl  0  0  0  0  0  0  0  0  0  0  0  0
  -26.7971    6.5145   27.4887 C   0  0  0  0  0  0  0  0  0  0  0  0
  -27.0671    7.7175   27.6682 C   0  0  0  0  0  0  0  0  0  0  0  0
  -27.0401    8.4002   28.7683 C   0  0  0  0  0  0  0  0  0  0  0  0
  -27.4054    9.8449   28.8420 C   0  0  0  0  0  0  0  0  0  0  0  0
  -27.7961   10.3976   27.6164 C   0  0  0  0  0  0  0  0  0  0  0  0
  -27.8651    9.7806   26.4418 C   0  0  0  0  0  0  0  0  0  0  0  0
  -27.5145    8.3921   26.4164 C   0  0  0  0  0  0  0  0  0  0  0  0
  -28.2119   -2.2726   30.8976 Cl  0  0  0  0  0  0  0  0  0  0  0  0
  -30.8433    4.2943   28.4474 C   0  0  0  0  0  0  0  0  0  0  0  0
  -30.9539    5.5127   29.0083 C   0  0  0  0  0  0  0  0  0  0  0  0
  -32.2094    6.2061   28.8758 C   0  0  0  0  0  0  0  0  0  0  0  0
  -33.2424    5.5253   28.3056 C   0  0  0  0  0  0  0  0  0  0  0  0
  -33.0859    4.2744   27.7346 C   0  0  0  0  0  0  0  0  0  0  0  0
  -31.8323    3.6515   27.7919 C   0  0  0  0  0  0  0  0  0  0  0  0
  4  6  1  0
  6 14  1  0
 14 15  1  0
 15 16  1  0
 16 17  2  0
 16 18  1  0
 18 19  1  0
 18 20  1  0
  2 27  1  0
 14 28  1  0
  6  8  1  0
 20 21  1  0
 28 29  2  0
 29 30  1  0
 30 31  2  0
 31 32  1  0
 32 33  2  0
 33 28  1  0
 21 22  2  0
 22 23  1  0
 23 24  2  0
 24 25  1  0
 25 26  2  0
 26 21  1  0
  8  9  2  0
  9 10  1  0
 10 11  2  0
 11 12  1  0
 12 13  2  0
 13  8  1  0
  1  2  2  0
  2  5  1  0
  5  7  2  0
  7  4  1  0
  4  3  2  0
  3  1  1  0
M  END

$$$$
