No_3680-gen_results/8p0m/2024-11-26-14-13-15/
     RDKit          3D

 22 23  0  0  0  0  0  0  0  0999 V2000
  -28.0162   -0.8135   28.8779 C   0  0  0  0  0  0  0  0  0  0  0  0
  -27.0636   -0.1189   28.6079 C   0  0  0  0  0  0  0  0  0  0  0  0
  -25.7923   -0.4302   29.0761 C   0  0  0  0  0  0  0  0  0  0  0  0
  -25.5756   -1.5654   29.9363 C   0  0  0  0  0  0  0  0  0  0  0  0
  -26.7354   -2.3004   30.2173 C   0  0  0  0  0  0  0  0  0  0  0  0
  -27.9184   -1.9537   29.7629 C   0  0  0  0  0  0  0  0  0  0  0  0
  -27.1057    1.1023   27.7593 C   0  0  0  0  0  0  0  0  0  0  0  0
  -27.8576    1.5309   27.2156 C   0  0  0  0  0  0  0  0  0  0  0  0
  -27.8433    2.7213   26.2861 C   0  0  0  0  0  0  0  0  0  0  0  0
  -26.6217    3.3253   26.0566 C   0  0  0  0  0  0  0  0  0  0  0  0
  -25.4854    2.7960   26.6725 C   0  0  0  0  0  0  0  0  0  0  0  0
  -25.6222    1.7365   27.5193 C   0  0  0  0  0  0  0  0  0  0  0  0
  -24.1950    3.4456   26.4809 C   0  0  0  0  0  0  0  0  0  0  0  0
  -24.1329    4.6913   26.4395 F   0  0  0  0  0  0  0  0  0  0  0  0
  -23.3591    3.1691   27.5816 F   0  0  0  0  0  0  0  0  0  0  0  0
  -23.5223    2.8812   25.4488 F   0  0  0  0  0  0  0  0  0  0  0  0
  -28.9815   -2.7233   30.1298 O   0  0  0  0  0  0  0  0  0  0  0  0
  -30.1251   -2.1622   30.5084 C   0  0  0  0  0  0  0  0  0  0  0  0
  -31.1955   -2.8889   30.1083 C   0  0  0  0  0  0  0  0  0  0  0  0
  -31.2194   -4.1990   30.0931 C   0  0  0  0  0  0  0  0  0  0  0  0
  -30.4519   -4.8377   30.9626 C   0  0  0  0  0  0  0  0  0  0  0  0
  -30.3697   -6.3641   30.9861 C   0  0  0  0  0  0  0  0  0  0  0  0
  2  7  1  0
 11 13  1  0
 13 14  1  0
 13 15  1  0
 13 16  1  0
  6 17  1  0
 17 18  1  0
 18 19  1  0
 19 20  1  0
 20 21  2  3
 21 22  1  0
  1  2  2  0
  2  3  1  0
  3  4  2  0
  4  5  1  0
  5  6  2  0
  6  1  1  0
  7  8  2  0
  8  9  1  0
  9 10  2  0
 10 11  1  0
 11 12  2  0
 12  7  1  0
M  END

$$$$
