No_3055-gen_results/8p0m/2024-11-26-14-13-15/
     RDKit          3D

 13 13  0  0  0  0  0  0  0  0999 V2000
  -28.0162   -0.8135   28.8779 C   0  0  0  0  0  0  0  0  0  0  0  0
  -28.4690   -0.7850   29.8287 C   0  0  0  0  0  0  0  0  0  0  0  0
  -27.1356    0.2359   28.5352 C   0  0  0  0  0  0  0  0  0  0  0  0
  -26.8745    1.2825   29.3982 C   0  0  0  0  0  0  0  0  0  0  0  0
  -27.5070    1.2380   30.6295 C   0  0  0  0  0  0  0  0  0  0  0  0
  -28.3293    0.1745   30.9350 C   0  0  0  0  0  0  0  0  0  0  0  0
  -26.4077    0.3070   27.2259 C   0  0  0  0  0  0  0  0  0  0  0  0
  -25.4688    1.5820   26.7868 P   0  0  0  0  0  0  0  0  0  0  0  0
  -26.0649    2.4804   26.0414 O   0  0  0  0  0  0  0  0  0  0  0  0
  -24.0371    1.3279   26.7463 O   0  0  0  0  0  0  0  0  0  0  0  0
  -25.4000    2.4255   28.3367 O   0  0  0  0  0  0  0  0  0  0  0  0
  -23.2529    0.9419   27.8640 C   0  0  0  0  0  0  0  0  0  0  0  0
  -25.8243    2.6856   29.0383 Br  0  0  0  0  0  0  0  0  0  0  0  0
  3  7  1  0
  7  8  1  0
  8  9  2  0
  8 10  1  0
  8 11  1  0
 10 12  1  0
 11 13  1  0
  1  2  2  0
  2  6  1  0
  6  5  2  0
  5  4  1  0
  4  3  2  0
  3  1  1  0
M  END

$$$$
