No_3565-gen_results/8p0m/2024-11-26-14-13-15/
     RDKit          3D

 34 37  0  0  0  0  0  0  0  0999 V2000
  -28.0162   -0.8135   28.8779 C   0  0  0  0  0  0  0  0  0  0  0  0
  -28.4690   -0.7850   29.8287 C   0  0  0  0  0  0  0  0  0  0  0  0
  -27.1356    0.2359   28.5352 C   0  0  0  0  0  0  0  0  0  0  0  0
  -26.8745    1.2825   29.3982 C   0  0  0  0  0  0  0  0  0  0  0  0
  -25.9742    2.3797   29.0831 C   0  0  0  0  0  0  0  0  0  0  0  0
  -28.3915    0.1302   30.9603 C   0  0  0  0  0  0  0  0  0  0  0  0
  -27.5035    1.2424   30.6700 C   0  0  0  0  0  0  0  0  0  0  0  0
  -25.3913    2.5625   28.0344 C   0  0  0  0  0  0  0  0  0  0  0  0
  -24.5135    3.6871   27.7241 C   0  0  0  0  0  0  0  0  0  0  0  0
  -25.3934    1.5397   26.9757 C   0  0  0  0  0  0  0  0  0  0  0  0
  -26.3756    0.2724   27.2386 C   0  0  0  0  0  0  0  0  0  0  0  0
  -25.8259    3.4902   30.2063 C   0  0  0  0  0  0  0  0  0  0  0  0
  -26.0742    4.7297   29.8437 N   0  0  0  0  0  0  0  0  0  0  0  0
  -25.2818    5.3809   28.8577 C   0  0  0  0  0  0  0  0  0  0  0  0
  -24.9271    4.9232   27.7426 N   0  0  0  0  0  0  0  0  0  0  0  0
  -25.4186    6.7830   28.8860 N   0  0  0  0  0  0  0  0  0  0  0  0
  -24.7747    1.5401   25.9135 O   0  0  0  0  0  0  0  0  0  0  0  0
  -25.5417    7.4386   30.1200 C   0  0  0  0  0  0  0  0  0  0  0  0
  -25.8434    7.1570   31.0904 C   0  0  0  0  0  0  0  0  0  0  0  0
  -25.8767    7.9353   32.3203 C   0  0  0  0  0  0  0  0  0  0  0  0
  -25.5351    9.2371   32.1538 C   0  0  0  0  0  0  0  0  0  0  0  0
  -25.0449    8.8999   29.9716 C   0  0  0  0  0  0  0  0  0  0  0  0
  -25.0597    9.7406   31.0025 C   0  0  0  0  0  0  0  0  0  0  0  0
  -25.8657    7.3467   27.6992 C   0  0  0  0  0  0  0  0  0  0  0  0
  -29.3185   -1.9092   30.1937 O   0  0  0  0  0  0  0  0  0  0  0  0
  -28.8131   -3.1505   30.5502 C   0  0  0  0  0  0  0  0  0  0  0  0
  -29.6898   -4.2386   30.3385 C   0  0  0  0  0  0  0  0  0  0  0  0
  -30.7922   -4.0267   30.8105 O   0  0  0  0  0  0  0  0  0  0  0  0
  -31.8489   -4.4626   30.3264 C   0  0  0  0  0  0  0  0  0  0  0  0
  -31.8142   -4.6965   29.2670 C   0  0  0  0  0  0  0  0  0  0  0  0
  -32.8104   -4.8322   28.2986 C   0  0  0  0  0  0  0  0  0  0  0  0
  -32.8317   -4.5886   27.2628 C   0  0  0  0  0  0  0  0  0  0  0  0
  -32.3318   -4.0145   26.3994 C   0  0  0  0  0  0  0  0  0  0  0  0
  -31.5538   -2.9990   25.7767 C   0  0  0  0  0  0  0  0  0  0  0  0
  4  5  1  0
  8  9  1  0
  8 10  1  0
  3 11  1  0
 10 11  1  0
  5 12  1  0
 12 13  1  0
 13 14  1  0
  9 15  1  0
 14 15  2  0
 14 16  1  0
 10 17  2  0
 16 18  1  0
 16 24  1  0
  2 25  1  0
 25 26  1  0
 26 27  1  0
 27 28  1  0
 28 29  1  0
 29 30  2  3
 30 31  1  0
 31 32  2  3
 32 33  1  0
 33 34  2  0
  8  5  1  0
 18 19  2  0
 19 20  1  0
 20 21  2  0
 21 23  1  0
 23 22  2  0
 22 18  1  0
  1  2  2  0
  2  6  1  0
  6  7  2  0
  7  4  1  0
  4  3  2  0
  3  1  1  0
M  END

$$$$
