No_3462-gen_results/8p0m/2024-11-26-14-13-15/
     RDKit          3D

 34 37  0  0  0  0  0  0  0  0999 V2000
  -28.0162   -0.8135   28.8779 C   0  0  0  0  0  0  0  0  0  0  0  0
  -27.0636   -0.1189   28.6079 C   0  0  0  0  0  0  0  0  0  0  0  0
  -27.0010    0.6913   27.4910 C   0  0  0  0  0  0  0  0  0  0  0  0
  -28.1373    0.7363   26.6350 C   0  0  0  0  0  0  0  0  0  0  0  0
  -29.2360    0.0765   27.0690 C   0  0  0  0  0  0  0  0  0  0  0  0
  -29.2177   -0.6429   28.1747 C   0  0  0  0  0  0  0  0  0  0  0  0
  -30.4152    0.1590   26.1819 C   0  0  0  0  0  0  0  0  0  0  0  0
  -31.0087    1.1675   26.1229 O   0  0  0  0  0  0  0  0  0  0  0  0
  -30.7756   -0.9479   25.5445 O   0  0  0  0  0  0  0  0  0  0  0  0
  -25.7065   -0.1976   29.4220 C   0  0  0  0  0  0  0  0  0  0  0  0
  -25.5597   -0.7186   30.3285 C   0  0  0  0  0  0  0  0  0  0  0  0
  -24.2657   -0.8045   31.1015 C   0  0  0  0  0  0  0  0  0  0  0  0
  -23.1412   -0.2134   30.5031 C   0  0  0  0  0  0  0  0  0  0  0  0
  -23.3156    0.4410   29.2762 C   0  0  0  0  0  0  0  0  0  0  0  0
  -24.5969    0.4486   28.6219 C   0  0  0  0  0  0  0  0  0  0  0  0
  -22.1182    1.0182   28.6532 C   0  0  0  0  0  0  0  0  0  0  0  0
  -22.2752    1.7506   27.5070 N   0  0  0  0  0  0  0  0  0  0  0  0
  -20.9515    0.6895   28.9745 O   0  0  0  0  0  0  0  0  0  0  0  0
  -23.4286    2.3581   27.0346 C   0  0  0  0  0  0  0  0  0  0  0  0
  -23.5160    2.7722   25.6531 C   0  0  0  0  0  0  0  0  0  0  0  0
  -24.3439    2.9109   27.9590 C   0  0  0  0  0  0  0  0  0  0  0  0
  -25.2845    3.8924   27.4360 C   0  0  0  0  0  0  0  0  0  0  0  0
  -25.3118    4.2425   26.1671 C   0  0  0  0  0  0  0  0  0  0  0  0
  -24.4305    3.6920   25.2565 C   0  0  0  0  0  0  0  0  0  0  0  0
  -26.3075    4.3844   28.4450 C   0  0  0  0  0  0  0  0  0  0  0  0
  -26.2444    4.2142   29.5386 O   0  0  0  0  0  0  0  0  0  0  0  0
  -27.2600    5.0967   27.9063 O   0  0  0  0  0  0  0  0  0  0  0  0
  -28.5621    4.9879   28.4399 C   0  0  0  0  0  0  0  0  0  0  0  0
  -28.9043    4.7116   29.4488 C   0  0  0  0  0  0  0  0  0  0  0  0
  -29.7985    4.1600   29.9238 C   0  0  0  0  0  0  0  0  0  0  0  0
  -30.1824    3.8052   31.3115 C   0  0  0  0  0  0  0  0  0  0  0  0
  -29.2120    4.1113   32.2527 C   0  0  0  0  0  0  0  0  0  0  0  0
  -28.0339    4.6833   31.8789 C   0  0  0  0  0  0  0  0  0  0  0  0
  -27.8298    4.9747   30.6055 C   0  0  0  0  0  0  0  0  0  0  0  0
  5  7  1  0
  7  8  2  0
  7  9  1  0
  2 10  1  0
 14 16  1  0
 16 17  1  0
 16 18  2  0
 17 19  1  0
 22 25  1  0
 25 26  2  0
 25 27  1  0
 27 28  1  0
 28 29  1  0
 29 30  2  0
 30 31  1  0
 31 32  2  0
 32 33  1  0
 33 34  2  0
 34 29  1  0
  1  2  2  0
  2  3  1  0
  3  4  2  0
  4  5  1  0
  5  6  2  0
  6  1  1  0
 19 20  2  0
 20 24  1  0
 24 23  2  0
 23 22  1  0
 22 21  2  0
 21 19  1  0
 10 11  2  0
 11 12  1  0
 12 13  2  0
 13 14  1  0
 14 15  2  0
 15 10  1  0
M  END

$$$$
