No_363-gen_results/8p0m/2024-11-26-14-13-15/
     RDKit          3D

 20 21  0  0  0  0  0  0  0  0999 V2000
  -28.0162   -0.8135   28.8779 C   0  0  0  0  0  0  0  0  0  0  0  0
  -27.0636   -0.1189   28.6079 C   0  0  0  0  0  0  0  0  0  0  0  0
  -25.7647   -0.3897   29.0360 C   0  0  0  0  0  0  0  0  0  0  0  0
  -24.5517    0.4058   28.7646 C   0  0  0  0  0  0  0  0  0  0  0  0
  -23.2300    0.1178   29.2575 C   0  0  0  0  0  0  0  0  0  0  0  0
  -23.0942   -1.1309   29.8730 C   0  0  0  0  0  0  0  0  0  0  0  0
  -27.7980   -1.9341   29.8560 C   0  0  0  0  0  0  0  0  0  0  0  0
  -26.5420   -2.3268   30.2580 C   0  0  0  0  0  0  0  0  0  0  0  0
  -25.4514   -1.5516   29.9079 C   0  0  0  0  0  0  0  0  0  0  0  0
  -24.1562   -1.9097   30.2809 C   0  0  0  0  0  0  0  0  0  0  0  0
  -24.6450    1.6582   27.9464 C   0  0  0  0  0  0  0  0  0  0  0  0
  -25.0764    1.5785   26.6992 C   0  0  0  0  0  0  0  0  0  0  0  0
  -24.3307    2.9033   28.6159 C   0  0  0  0  0  0  0  0  0  0  0  0
  -24.7463    4.3028   27.6922 Cl  0  0  0  0  0  0  0  0  0  0  0  0
  -24.8294    3.0747   29.8395 O   0  0  0  0  0  0  0  0  0  0  0  0
  -28.9249   -2.6423   30.1534 O   0  0  0  0  0  0  0  0  0  0  0  0
  -29.9860   -2.0249   30.6939 C   0  0  0  0  0  0  0  0  0  0  0  0
  -30.5465   -2.7942   31.7028 C   0  0  0  0  0  0  0  0  0  0  0  0
  -29.9833   -3.9169   32.1023 C   0  0  0  0  0  0  0  0  0  0  0  0
  -29.4057   -4.6837   31.1559 C   0  0  0  0  0  0  0  0  0  0  0  0
  4 11  1  0
 11 12  1  0
 11 13  1  0
 13 14  1  0
 13 15  1  0
  7 16  1  0
 16 17  1  0
 17 18  1  0
 18 19  2  3
 19 20  1  0
  1  2  2  0
  2  3  1  0
  9  8  1  0
  8  7  2  0
  7  1  1  0
  3  4  2  0
  4  5  1  0
  5  6  2  0
  6 10  1  0
 10  9  2  0
  9  3  1  0
M  END

$$$$
