No_3572-gen_results/8p0m/2024-11-26-14-13-15/
     RDKit          3D

 24 26  0  0  0  0  0  0  0  0999 V2000
  -28.0162   -0.8135   28.8779 C   0  0  0  0  0  0  0  0  0  0  0  0
  -28.4690   -0.7850   29.8287 C   0  0  0  0  0  0  0  0  0  0  0  0
  -26.5042   -0.7777   28.8766 C   0  0  0  0  0  0  0  0  0  0  0  0
  -25.6540   -0.6597   27.7191 C   0  0  0  0  0  0  0  0  0  0  0  0
  -27.9180   -0.9374   31.1824 C   0  0  0  0  0  0  0  0  0  0  0  0
  -26.5424   -0.9399   31.2606 C   0  0  0  0  0  0  0  0  0  0  0  0
  -25.7832   -0.8935   30.1201 C   0  0  0  0  0  0  0  0  0  0  0  0
  -25.9259    0.2819   26.7445 C   0  0  0  0  0  0  0  0  0  0  0  0
  -25.6258    1.4719   26.8191 C   0  0  0  0  0  0  0  0  0  0  0  0
  -25.9389    2.3920   25.7413 C   0  0  0  0  0  0  0  0  0  0  0  0
  -26.7522    1.9284   24.7422 C   0  0  0  0  0  0  0  0  0  0  0  0
  -26.8691    0.1117   25.5806 C   0  0  0  0  0  0  0  0  0  0  0  0
  -27.1792    0.8098   24.6823 C   0  0  0  0  0  0  0  0  0  0  0  0
  -30.0556   -0.7389   29.8214 C   0  0  0  0  0  0  0  0  0  0  0  0
  -30.6328    0.1987   30.4643 O   0  0  0  0  0  0  0  0  0  0  0  0
  -30.6943   -1.7509   29.4841 O   0  0  0  0  0  0  0  0  0  0  0  0
  -24.6966   -1.4764   27.5920 O   0  0  0  0  0  0  0  0  0  0  0  0
  -28.1072    0.4297   23.6179 C   0  0  0  0  0  0  0  0  0  0  0  0
  -29.4573    0.1547   24.1345 C   0  0  0  0  0  0  0  0  0  0  0  0
  -30.3676    0.9922   24.1987 C   0  0  0  0  0  0  0  0  0  0  0  0
  -31.6887    0.6907   24.6811 C   0  0  0  0  0  0  0  0  0  0  0  0
  -31.9232   -0.6642   25.0341 C   0  0  0  0  0  0  0  0  0  0  0  0
  -30.9599   -1.6285   24.9276 C   0  0  0  0  0  0  0  0  0  0  0  0
  -29.7039   -1.2669   24.4881 C   0  0  0  0  0  0  0  0  0  0  0  0
  3  4  1  0
  4  8  1  0
  2 14  1  0
 14 15  1  0
 14 16  2  0
  4 17  2  0
 13 18  1  0
 18 19  1  0
  1  2  2  0
  2  5  1  0
  5  6  2  0
  6  7  1  0
  7  3  2  0
  3  1  1  0
 19 20  2  0
 20 21  1  0
 21 22  2  0
 22 23  1  0
 23 24  2  0
 24 19  1  0
  8  9  2  0
  9 10  1  0
 10 11  2  0
 11 13  1  0
 13 12  2  0
 12  8  1  0
M  END

$$$$
