No_3491-gen_results/8p0m/2024-11-26-14-13-15/
     RDKit          3D

 11 12  0  0  0  0  0  0  0  0999 V2000
  -28.1229   -1.3353   28.4874 O   0  0  0  0  0  0  0  0  0  0  0  0
  -27.0637   -0.8242   28.8687 C   0  0  0  0  0  0  0  0  0  0  0  0
  -26.0496   -0.9362   28.7578 C   0  0  0  0  0  0  0  0  0  0  0  0
  -24.8633   -0.1667   29.1259 C   0  0  0  0  0  0  0  0  0  0  0  0
  -25.1916    0.9807   29.8736 C   0  0  0  0  0  0  0  0  0  0  0  0
  -26.5062    1.2129   30.1128 C   0  0  0  0  0  0  0  0  0  0  0  0
  -27.4860    0.4548   29.7297 C   0  0  0  0  0  0  0  0  0  0  0  0
  -23.4596   -0.3952   28.9148 C   0  0  0  0  0  0  0  0  0  0  0  0
  -22.5473    0.6463   28.7226 C   0  0  0  0  0  0  0  0  0  0  0  0
  -23.0390    1.9080   29.2727 C   0  0  0  0  0  0  0  0  0  0  0  0
  -24.1902    2.0415   29.9525 C   0  0  0  0  0  0  0  0  0  0  0  0
  1  2  1  0
  2  3  2  0
  3  4  1  0
  5  6  1  0
  6  7  2  0
  7  2  1  0
  4  5  2  0
  5 11  1  0
 11 10  2  0
 10  9  1  0
  9  8  2  0
  8  4  1  0
M  END

$$$$
