No_3520-gen_results/8p0m/2024-11-26-14-13-15/
     RDKit          3D

 20 22  0  0  0  0  0  0  0  0999 V2000
  -28.0162   -0.8135   28.8779 C   0  0  0  0  0  0  0  0  0  0  0  0
  -27.0636   -0.1189   28.6079 C   0  0  0  0  0  0  0  0  0  0  0  0
  -25.7923   -0.4302   29.0761 C   0  0  0  0  0  0  0  0  0  0  0  0
  -25.5681   -1.2411   29.7572 C   0  0  0  0  0  0  0  0  0  0  0  0
  -26.6114   -2.1840   30.2439 C   0  0  0  0  0  0  0  0  0  0  0  0
  -27.8191   -1.9189   29.8034 C   0  0  0  0  0  0  0  0  0  0  0  0
  -28.9046   -2.8162   30.2637 C   0  0  0  0  0  0  0  0  0  0  0  0
  -28.6869   -4.1083   30.3623 N   0  0  0  0  0  0  0  0  0  0  0  0
  -29.7365   -4.9260   30.7305 C   0  0  0  0  0  0  0  0  0  0  0  0
  -30.9695   -4.4271   30.6769 C   0  0  0  0  0  0  0  0  0  0  0  0
  -30.1755   -2.4981   30.1659 C   0  0  0  0  0  0  0  0  0  0  0  0
  -31.2262   -3.1670   30.4660 C   0  0  0  0  0  0  0  0  0  0  0  0
  -24.6061    0.5347   28.5592 C   0  0  0  0  0  0  0  0  0  0  0  0
  -24.6296    1.3168   27.5084 C   0  0  0  0  0  0  0  0  0  0  0  0
  -25.3477    1.5668   26.6728 C   0  0  0  0  0  0  0  0  0  0  0  0
  -25.0126    2.4305   25.5581 C   0  0  0  0  0  0  0  0  0  0  0  0
  -23.8941    3.1760   25.8299 C   0  0  0  0  0  0  0  0  0  0  0  0
  -23.4016    2.2947   27.3353 C   0  0  0  0  0  0  0  0  0  0  0  0
  -23.2596   -0.1356   28.9647 C   0  0  0  0  0  0  0  0  0  0  0  0
  -22.7473    0.4670   30.1591 C   0  0  0  0  0  0  0  0  0  0  0  0
  6  7  1  0
  3 13  1  0
 13 14  1  0
 14 15  2  0
 15 16  1  0
 16 17  2  0
 14 18  1  0
 17 18  1  0
 13 19  1  0
 19 20  1  0
  7  8  2  0
  8  9  1  0
  9 10  2  0
 10 12  1  0
 12 11  2  0
 11  7  1  0
  1  2  2  0
  2  3  1  0
  3  4  2  0
  4  5  1  0
  5  6  2  0
  6  1  1  0
M  END

$$$$
