No_3253-gen_results/8p0m/2024-11-26-14-13-15/
     RDKit          3D

 14 14  0  0  0  0  0  0  0  0999 V2000
  -28.0162   -0.8135   28.8779 C   0  0  0  0  0  0  0  0  0  0  0  0
  -27.0636   -0.1189   28.6079 C   0  0  0  0  0  0  0  0  0  0  0  0
  -26.9716    0.7139   27.5060 C   0  0  0  0  0  0  0  0  0  0  0  0
  -28.1053    0.7744   26.6421 C   0  0  0  0  0  0  0  0  0  0  0  0
  -29.2041    0.1179   27.0477 C   0  0  0  0  0  0  0  0  0  0  0  0
  -30.3488    0.2568   26.2203 C   0  0  0  0  0  0  0  0  0  0  0  0
  -29.1817   -0.6758   28.1173 C   0  0  0  0  0  0  0  0  0  0  0  0
  -30.8575    1.2554   25.9148 N   0  0  0  0  0  0  0  0  0  0  0  0
  -30.9580   -0.8365   25.7742 O   0  0  0  0  0  0  0  0  0  0  0  0
  -32.0641    1.5235   25.0313 C   0  0  0  0  0  0  0  0  0  0  0  0
  -25.6869    1.4415   27.1380 C   0  0  0  0  0  0  0  0  0  0  0  0
  -24.5603    1.0333   27.7783 C   0  0  0  0  0  0  0  0  0  0  0  0
  -23.3968    1.8869   27.5833 C   0  0  0  0  0  0  0  0  0  0  0  0
  -22.2435    1.6298   28.3249 N   0  0  0  0  0  0  0  0  0  0  0  0
  5  6  1  0
  6  8  1  0
  6  9  2  0
  8 10  1  0
  3 11  1  0
 11 12  2  3
 12 13  1  0
 13 14  2  0
  1  2  2  0
  2  3  1  0
  3  4  2  0
  4  5  1  0
  5  7  2  0
  7  1  1  0
M  END

$$$$
