No_3341-gen_results/8p0m/2024-11-26-14-13-15/
     RDKit          3D

 28 31  0  0  0  0  0  0  0  0999 V2000
  -28.0162   -0.8135   28.8779 C   0  0  0  0  0  0  0  0  0  0  0  0
  -27.0636   -0.1190   28.6079 C   0  0  0  0  0  0  0  0  0  0  0  0
  -25.7647   -0.3897   29.0360 C   0  0  0  0  0  0  0  0  0  0  0  0
  -25.5296   -1.5302   29.9014 C   0  0  0  0  0  0  0  0  0  0  0  0
  -26.6888   -2.2893   30.1810 C   0  0  0  0  0  0  0  0  0  0  0  0
  -27.8727   -1.9508   29.7373 C   0  0  0  0  0  0  0  0  0  0  0  0
  -28.9304   -2.7298   30.1154 O   0  0  0  0  0  0  0  0  0  0  0  0
  -24.5394    0.4211   28.7421 C   0  0  0  0  0  0  0  0  0  0  0  0
  -24.5259    1.2743   27.7266 C   0  0  0  0  0  0  0  0  0  0  0  0
  -23.3174    1.9856   27.4033 C   0  0  0  0  0  0  0  0  0  0  0  0
  -22.1311    1.7374   28.0503 C   0  0  0  0  0  0  0  0  0  0  0  0
  -23.2983    0.1369   29.3770 C   0  0  0  0  0  0  0  0  0  0  0  0
  -22.1005    0.8185   29.0410 C   0  0  0  0  0  0  0  0  0  0  0  0
  -29.3117   -2.7524   31.4496 C   0  0  0  0  0  0  0  0  0  0  0  0
  -30.6853   -2.6172   31.6294 C   0  0  0  0  0  0  0  0  0  0  0  0
  -31.4162   -2.4476   30.8011 O   0  0  0  0  0  0  0  0  0  0  0  0
  -31.2009   -3.1225   32.8787 N   0  0  0  0  0  0  0  0  0  0  0  0
  -30.3628   -3.4550   34.0104 C   0  0  0  0  0  0  0  0  0  0  0  0
  -29.2051   -3.6078   33.6463 C   0  0  0  0  0  0  0  0  0  0  0  0
  -28.5447   -3.2619   32.4427 C   0  0  0  0  0  0  0  0  0  0  0  0
  -32.6428   -2.8441   33.1251 C   0  0  0  0  0  0  0  0  0  0  0  0
  -33.3795   -3.9156   32.7847 C   0  0  0  0  0  0  0  0  0  0  0  0
  -34.3411   -4.1366   33.2824 C   0  0  0  0  0  0  0  0  0  0  0  0
  -35.1961   -5.3373   33.0049 C   0  0  0  0  0  0  0  0  0  0  0  0
  -34.7561   -6.1487   31.9611 C   0  0  0  0  0  0  0  0  0  0  0  0
  -33.5775   -5.8393   31.2996 C   0  0  0  0  0  0  0  0  0  0  0  0
  -32.8414   -4.7095   31.7012 C   0  0  0  0  0  0  0  0  0  0  0  0
  -32.9240   -1.7989   33.6706 O   0  0  0  0  0  0  0  0  0  0  0  0
  6  7  1  0
  3  8  1  0
  7 14  1  0
 14 15  1  0
 15 16  2  0
 15 17  1  0
 17 18  1  0
 14 20  1  0
 19 20  1  0
 17 21  1  0
 21 22  1  0
 21 28  2  0
 19 18  1  0
  1  2  2  0
  2  3  1  0
  3  4  2  0
  4  5  1  0
  5  6  2  0
  6  1  1  0
 22 23  2  0
 23 24  1  0
 24 25  2  0
 25 26  1  0
 26 27  2  0
 27 22  1  0
  8  9  2  0
  9 10  1  0
 10 11  2  0
 11 13  1  0
 13 12  2  0
 12  8  1  0
M  END

$$$$
