No_3152-gen_results/8p0m/2024-11-26-14-13-15/
     RDKit          3D

 17 18  0  0  0  0  0  0  0  0999 V2000
  -28.0162   -0.8135   28.8779 C   0  0  0  0  0  0  0  0  0  0  0  0
  -28.4690   -0.7850   29.8287 C   0  0  0  0  0  0  0  0  0  0  0  0
  -28.1960    0.3478   28.0550 C   0  0  0  0  0  0  0  0  0  0  0  0
  -27.4421    0.5100   26.7946 C   0  0  0  0  0  0  0  0  0  0  0  0
  -27.8427    1.3330   25.8056 C   0  0  0  0  0  0  0  0  0  0  0  0
  -28.2558   -1.9271   30.8901 C   0  0  0  0  0  0  0  0  0  0  0  0
  -27.4492   -2.9641   30.4317 C   0  0  0  0  0  0  0  0  0  0  0  0
  -26.6412   -2.8044   29.3509 C   0  0  0  0  0  0  0  0  0  0  0  0
  -26.7826   -1.6363   28.6124 C   0  0  0  0  0  0  0  0  0  0  0  0
  -29.1386    1.1607   28.1452 O   0  0  0  0  0  0  0  0  0  0  0  0
  -25.4349   -3.9504   29.0317 Cl  0  0  0  0  0  0  0  0  0  0  0  0
  -25.9857    0.9240   27.0351 C   0  0  0  0  0  0  0  0  0  0  0  0
  -25.1974    1.3492   26.1552 C   0  0  0  0  0  0  0  0  0  0  0  0
  -23.8456    1.7279   26.4996 C   0  0  0  0  0  0  0  0  0  0  0  0
  -23.3443    1.3123   27.7161 C   0  0  0  0  0  0  0  0  0  0  0  0
  -24.0850    0.7048   28.6250 C   0  0  0  0  0  0  0  0  0  0  0  0
  -25.4203    0.4634   28.3241 C   0  0  0  0  0  0  0  0  0  0  0  0
  1  3  1  0
  3  4  1  0
  4  5  1  0
  3 10  2  0
  8 11  1  0
  4 12  1  0
 12 13  2  0
 13 14  1  0
 14 15  2  0
 15 16  1  0
 16 17  2  0
 17 12  1  0
  1  2  2  0
  2  6  1  0
  6  7  2  0
  7  8  1  0
  8  9  2  0
  9  1  1  0
M  END

$$$$
