No_3514-gen_results/8p0m/2024-11-26-14-13-15/
     RDKit          3D

 17 19  0  0  0  0  0  0  0  0999 V2000
  -28.0162   -0.8135   28.8779 C   0  0  0  0  0  0  0  0  0  0  0  0
  -27.0636   -0.1189   28.6079 C   0  0  0  0  0  0  0  0  0  0  0  0
  -27.0010    0.6913   27.4910 C   0  0  0  0  0  0  0  0  0  0  0  0
  -25.7770    1.0214   26.9135 C   0  0  0  0  0  0  0  0  0  0  0  0
  -24.5088    0.7364   27.5686 C   0  0  0  0  0  0  0  0  0  0  0  0
  -24.5930   -0.0361   28.7390 C   0  0  0  0  0  0  0  0  0  0  0  0
  -25.8114   -0.4771   29.1584 C   0  0  0  0  0  0  0  0  0  0  0  0
  -28.1069   -1.4831   30.2046 C   0  0  0  0  0  0  0  0  0  0  0  0
  -26.9076   -1.8560   30.8505 C   0  0  0  0  0  0  0  0  0  0  0  0
  -25.7217   -1.3535   30.3451 C   0  0  0  0  0  0  0  0  0  0  0  0
  -23.2428   -0.3061   29.3626 C   0  0  0  0  0  0  0  0  0  0  0  0
  -22.9931   -0.9075   30.1598 C   0  0  0  0  0  0  0  0  0  0  0  0
  -23.7116   -1.6774   31.2006 C   0  0  0  0  0  0  0  0  0  0  0  0
  -24.6197   -1.7135   31.1967 C   0  0  0  0  0  0  0  0  0  0  0  0
  -28.2099    1.0392   26.7183 C   0  0  0  0  0  0  0  0  0  0  0  0
  -29.0953    1.6467   27.3392 C   0  0  0  0  0  0  0  0  0  0  0  0
  -30.3410    2.0337   26.6490 C   0  0  0  0  0  0  0  0  0  0  0  0
  6 11  1  0
 11 12  2  0
 12 13  1  0
 10 14  1  0
 13 14  2  0
  3 15  1  0
 15 16  2  3
 16 17  1  0
  2  3  1  0
  3  4  2  0
  4  5  1  0
  5  6  2  0
  6  7  1  0
  1  2  2  0
  2  7  1  0
  7 10  2  0
 10  9  1  0
  9  8  2  0
  8  1  1  0
M  END

$$$$
