No_3437-gen_results/8p0m/2024-11-26-14-13-15/
     RDKit          3D

 16 17  0  0  0  0  0  0  0  0999 V2000
  -28.0162   -0.8135   28.8779 C   0  0  0  0  0  0  0  0  0  0  0  0
  -28.4690   -0.7850   29.8287 C   0  0  0  0  0  0  0  0  0  0  0  0
  -27.0871    0.2903   28.6377 C   0  0  0  0  0  0  0  0  0  0  0  0
  -26.8317    1.2487   29.5869 C   0  0  0  0  0  0  0  0  0  0  0  0
  -28.3914    0.0801   31.0065 C   0  0  0  0  0  0  0  0  0  0  0  0
  -27.4940    1.1521   30.7841 C   0  0  0  0  0  0  0  0  0  0  0  0
  -26.3172    0.3994   27.3653 C   0  0  0  0  0  0  0  0  0  0  0  0
  -25.4320    1.4867   27.2802 C   0  0  0  0  0  0  0  0  0  0  0  0
  -25.2642    2.4427   28.2693 C   0  0  0  0  0  0  0  0  0  0  0  0
  -25.9406    2.3223   29.4480 C   0  0  0  0  0  0  0  0  0  0  0  0
  -25.7166    3.2572   30.3821 O   0  0  0  0  0  0  0  0  0  0  0  0
  -24.5352    1.6240   25.7805 Cl  0  0  0  0  0  0  0  0  0  0  0  0
  -29.4292   -1.8015   30.3246 O   0  0  0  0  0  0  0  0  0  0  0  0
  -30.6541   -1.7141   30.1970 C   0  0  0  0  0  0  0  0  0  0  0  0
  -31.2838   -1.0633   29.5533 C   0  0  0  0  0  0  0  0  0  0  0  0
  -32.7333   -1.0881   29.4069 C   0  0  0  0  0  0  0  0  0  0  0  0
  3  7  1  0
  7  8  1  0
  4 10  1  0
  9 10  1  0
 10 11  2  0
  8 12  1  0
  2 13  1  0
 13 14  1  0
 14 15  2  3
 15 16  1  0
  8  9  1  0
  1  2  2  0
  2  5  1  0
  5  6  2  0
  6  4  1  0
  4  3  2  0
  3  1  1  0
M  END

$$$$
