No_3196-gen_results/8p0m/2024-11-26-14-13-15/
     RDKit          3D

 24 26  0  0  0  0  0  0  0  0999 V2000
  -28.0162   -0.8135   28.8779 C   0  0  0  0  0  0  0  0  0  0  0  0
  -27.0636   -0.1189   28.6079 C   0  0  0  0  0  0  0  0  0  0  0  0
  -25.8176   -0.3427   29.0488 N   0  0  0  0  0  0  0  0  0  0  0  0
  -24.6757    0.3814   28.7496 C   0  0  0  0  0  0  0  0  0  0  0  0
  -23.4276    0.0095   29.2601 C   0  0  0  0  0  0  0  0  0  0  0  0
  -22.2341    0.6752   28.9665 C   0  0  0  0  0  0  0  0  0  0  0  0
  -22.2074    1.6474   27.9672 C   0  0  0  0  0  0  0  0  0  0  0  0
  -23.4333    2.0438   27.4220 C   0  0  0  0  0  0  0  0  0  0  0  0
  -24.6468    1.3669   27.7395 C   0  0  0  0  0  0  0  0  0  0  0  0
  -28.4870   -0.6109   30.2271 C   0  0  0  0  0  0  0  0  0  0  0  0
  -29.5908   -1.0948   30.6466 N   0  0  0  0  0  0  0  0  0  0  0  0
  -25.5901   -1.5746   29.8032 C   0  0  0  0  0  0  0  0  0  0  0  0
  -29.9517   -1.3867   31.7936 C   0  0  0  0  0  0  0  0  0  0  0  0
  -29.1888   -0.8632   32.8757 C   0  0  0  0  0  0  0  0  0  0  0  0
  -27.8970   -0.3602   32.5396 C   0  0  0  0  0  0  0  0  0  0  0  0
  -27.5199   -0.3020   31.2655 C   0  0  0  0  0  0  0  0  0  0  0  0
  -30.6251   -1.5056   29.5734 C   0  0  0  0  0  0  0  0  0  0  0  0
  -31.8604   -1.0493   30.1459 F   0  0  0  0  0  0  0  0  0  0  0  0
  -30.6558   -2.8819   29.4203 O   0  0  0  0  0  0  0  0  0  0  0  0
  -27.1218    0.8822   27.7423 O   0  0  0  0  0  0  0  0  0  0  0  0
  -26.9840    0.1417   33.6096 C   0  0  0  0  0  0  0  0  0  0  0  0
  -25.7482    0.3896   33.2777 C   0  0  0  0  0  0  0  0  0  0  0  0
  -25.4333    0.6650   31.8737 C   0  0  0  0  0  0  0  0  0  0  0  0
  -26.2997    0.3188   30.9929 C   0  0  0  0  0  0  0  0  0  0  0  0
  1  2  1  0
  2  3  1  0
  3  4  1  0
  1 10  1  0
 10 11  1  0
  3 12  1  0
 11 13  1  0
 14 15  1  0
 10 16  1  0
 11 17  1  0
 17 18  1  0
 17 19  1  0
  2 20  2  0
 14 13  1  0
 15 16  2  0
 16 24  1  0
 24 23  2  0
 23 22  1  0
 22 21  2  0
 21 15  1  0
  4  5  2  0
  5  6  1  0
  6  7  2  0
  7  8  1  0
  8  9  2  0
  9  4  1  0
M  END

$$$$
