No_3352-gen_results/8p0m/2024-11-26-14-13-15/
     RDKit          3D

 23 25  0  0  0  0  0  0  0  0999 V2000
  -28.0162   -0.8135   28.8779 C   0  0  0  0  0  0  0  0  0  0  0  0
  -28.4690   -0.7850   29.8287 C   0  0  0  0  0  0  0  0  0  0  0  0
  -27.1356    0.2359   28.5352 C   0  0  0  0  0  0  0  0  0  0  0  0
  -26.8745    1.2825   29.3982 C   0  0  0  0  0  0  0  0  0  0  0  0
  -28.3613    0.1987   30.9244 C   0  0  0  0  0  0  0  0  0  0  0  0
  -27.5277    1.2234   30.6356 C   0  0  0  0  0  0  0  0  0  0  0  0
  -26.3987    0.2949   27.2279 C   0  0  0  0  0  0  0  0  0  0  0  0
  -25.0392    0.2356   27.3538 C   0  0  0  0  0  0  0  0  0  0  0  0
  -24.4371    0.0058   28.5831 C   0  0  0  0  0  0  0  0  0  0  0  0
  -22.9453    0.2645   28.6075 C   0  0  0  0  0  0  0  0  0  0  0  0
  -22.3356    1.0724   27.6438 C   0  0  0  0  0  0  0  0  0  0  0  0
  -23.0790    1.4980   26.5535 C   0  0  0  0  0  0  0  0  0  0  0  0
  -24.4034    1.1782   26.4115 C   0  0  0  0  0  0  0  0  0  0  0  0
  -27.0949    0.1881   26.0562 C   0  0  0  0  0  0  0  0  0  0  0  0
  -27.8375    1.2286   25.7352 N   0  0  0  0  0  0  0  0  0  0  0  0
  -28.0066    2.1921   26.2955 C   0  0  0  0  0  0  0  0  0  0  0  0
  -28.5246    1.0277   24.3834 C   0  0  0  0  0  0  0  0  0  0  0  0
  -28.9159    2.8343   26.6894 C   0  0  0  0  0  0  0  0  0  0  0  0
  -21.0717    1.4613   27.8274 O   0  0  0  0  0  0  0  0  0  0  0  0
  -29.9107    0.6866   24.5582 C   0  0  0  0  0  0  0  0  0  0  0  0
  -30.7249    1.8490   24.8727 C   0  0  0  0  0  0  0  0  0  0  0  0
  -30.3257    2.8668   25.9468 C   0  0  0  0  0  0  0  0  0  0  0  0
  -26.9083   -0.8456   25.4024 O   0  0  0  0  0  0  0  0  0  0  0  0
  3  7  1  0
  7 14  1  0
 14 15  1  0
 15 16  1  0
 15 17  1  0
 16 18  2  0
 11 19  1  0
 17 20  1  0
 20 21  1  0
 18 22  1  0
 21 22  2  0
 14 23  2  0
  7  8  1  0
  8  9  2  0
  9 10  1  0
 10 11  2  0
 11 12  1  0
 12 13  2  0
 13  8  1  0
  1  2  2  0
  2  5  1  0
  5  6  2  0
  6  4  1  0
  4  3  2  0
  3  1  1  0
M  END

$$$$
