No_35-gen_results/8p0m/2024-11-26-14-13-15/
     RDKit          3D

 22 23  0  0  0  0  0  0  0  0999 V2000
  -28.0162   -0.8135   28.8779 C   0  0  0  0  0  0  0  0  0  0  0  0
  -27.0636   -0.1189   28.6079 C   0  0  0  0  0  0  0  0  0  0  0  0
  -26.9287    1.1713   29.0083 C   0  0  0  0  0  0  0  0  0  0  0  0
  -25.7702    2.0341   28.6884 C   0  0  0  0  0  0  0  0  0  0  0  0
  -24.7141    1.4431   27.9188 C   0  0  0  0  0  0  0  0  0  0  0  0
  -24.8590    0.0783   27.5836 C   0  0  0  0  0  0  0  0  0  0  0  0
  -25.9647   -0.6606   27.9164 C   0  0  0  0  0  0  0  0  0  0  0  0
  -28.6995   -0.6441   30.0766 N   0  0  0  0  0  0  0  0  0  0  0  0
  -29.8035   -1.3645   30.5061 C   0  0  0  0  0  0  0  0  0  0  0  0
  -30.3770   -1.0468   31.7411 C   0  0  0  0  0  0  0  0  0  0  0  0
  -30.5835   -1.9343   29.7378 O   0  0  0  0  0  0  0  0  0  0  0  0
  -23.5391    2.1781   27.5627 C   0  0  0  0  0  0  0  0  0  0  0  0
  -22.6759    1.6597   27.1689 F   0  0  0  0  0  0  0  0  0  0  0  0
  -24.0260    3.1386   26.5721 F   0  0  0  0  0  0  0  0  0  0  0  0
  -23.1481    2.9889   28.6052 F   0  0  0  0  0  0  0  0  0  0  0  0
  -30.0030   -0.1538   32.5807 C   0  0  0  0  0  0  0  0  0  0  0  0
  -28.6470    0.3697   32.2908 C   0  0  0  0  0  0  0  0  0  0  0  0
  -28.0156    0.1628   31.0534 C   0  0  0  0  0  0  0  0  0  0  0  0
  -31.6742   -1.7588   32.0504 C   0  0  0  0  0  0  0  0  0  0  0  0
  -31.8529   -2.7876   31.8960 C   0  0  0  0  0  0  0  0  0  0  0  0
  -30.7886   -3.6975   31.5884 C   0  0  0  0  0  0  0  0  0  0  0  0
  -30.6268   -4.0080   30.1807 C   0  0  0  0  0  0  0  0  0  0  0  0
  1  2  1  0
  1  8  1  0
  8  9  1  0
  9 10  1  0
  9 11  2  0
  5 12  1  0
 12 13  1  0
 12 14  1  0
 12 15  1  0
 10 16  1  0
  8 18  1  0
 17 18  1  0
 10 19  1  0
 19 20  2  3
 20 21  1  0
 21 22  1  0
 16 17  1  0
  2  3  2  0
  3  4  1  0
  4  5  2  0
  5  6  1  0
  6  7  2  0
  7  2  1  0
M  END

$$$$
