No_3971-gen_results/8p0m/2024-11-26-14-13-15/
     RDKit          3D

 31 33  0  0  0  0  0  0  0  0999 V2000
  -28.0162   -0.8135   28.8779 C   0  0  0  0  0  0  0  0  0  0  0  0
  -28.4690   -0.7850   29.8287 C   0  0  0  0  0  0  0  0  0  0  0  0
  -26.5042   -0.7777   28.8766 C   0  0  0  0  0  0  0  0  0  0  0  0
  -25.9150   -0.6580   29.9230 C   0  0  0  0  0  0  0  0  0  0  0  0
  -27.9691   -0.7243   31.2047 C   0  0  0  0  0  0  0  0  0  0  0  0
  -26.5847   -0.6393   31.2062 C   0  0  0  0  0  0  0  0  0  0  0  0
  -29.9415   -0.8626   29.8704 O   0  0  0  0  0  0  0  0  0  0  0  0
  -30.6762    0.1229   30.3377 C   0  0  0  0  0  0  0  0  0  0  0  0
  -31.8323    0.0303   30.1708 C   0  0  0  0  0  0  0  0  0  0  0  0
  -32.7368    1.1382   30.5956 C   0  0  0  0  0  0  0  0  0  0  0  0
  -32.1061    2.2459   31.2211 C   0  0  0  0  0  0  0  0  0  0  0  0
  -30.7508    2.2486   31.3768 C   0  0  0  0  0  0  0  0  0  0  0  0
  -29.9638    1.2381   30.9560 C   0  0  0  0  0  0  0  0  0  0  0  0
  -30.0869    3.4036   32.0520 C   0  0  0  0  0  0  0  0  0  0  0  0
  -30.3985    4.1649   32.7926 O   0  0  0  0  0  0  0  0  0  0  0  0
  -28.7894    3.5448   31.6321 O   0  0  0  0  0  0  0  0  0  0  0  0
  -24.3920   -0.6974   30.0315 C   0  0  0  0  0  0  0  0  0  0  0  0
  -23.6780   -0.0973   28.9745 C   0  0  0  0  0  0  0  0  0  0  0  0
  -23.9959    0.8970   28.2428 C   0  0  0  0  0  0  0  0  0  0  0  0
  -23.0871    1.4491   27.2887 C   0  0  0  0  0  0  0  0  0  0  0  0
  -23.4530    2.4600   26.3687 C   0  0  0  0  0  0  0  0  0  0  0  0
  -24.8300    2.9265   26.3978 C   0  0  0  0  0  0  0  0  0  0  0  0
  -25.7153    2.3818   27.2464 C   0  0  0  0  0  0  0  0  0  0  0  0
  -25.3473    1.4080   28.1612 C   0  0  0  0  0  0  0  0  0  0  0  0
  -22.2774   -0.7015   28.8901 C   0  0  0  0  0  0  0  0  0  0  0  0
  -23.8061   -1.2872   31.1908 C   0  0  0  0  0  0  0  0  0  0  0  0
  -27.0474    3.0048   27.2131 C   0  0  0  0  0  0  0  0  0  0  0  0
  -27.9039    2.4968   26.2940 C   0  0  0  0  0  0  0  0  0  0  0  0
  -29.2685    2.6190   26.4418 C   0  0  0  0  0  0  0  0  0  0  0  0
  -29.7604    3.4568   27.5142 C   0  0  0  0  0  0  0  0  0  0  0  0
  -31.1925    3.5882   27.6905 C   0  0  0  0  0  0  0  0  0  0  0  0
  2  7  1  0
  7  8  1  0
 12 14  1  0
 14 15  2  0
 14 16  1  0
  4 17  1  0
 17 18  1  0
 18 25  1  0
 17 26  1  0
 23 27  1  0
 27 28  1  0
 28 29  2  3
 29 30  1  0
 30 31  2  0
 18 19  1  0
  8  9  2  0
  9 10  1  0
 10 11  2  0
 11 12  1  0
 12 13  2  0
 13  8  1  0
  1  2  2  0
  2  5  1  0
  5  6  2  0
  6  4  1  0
  4  3  2  0
  3  1  1  0
 19 20  2  0
 20 21  1  0
 21 22  2  0
 22 23  1  0
 23 24  2  0
 24 19  1  0
M  END

$$$$
