No_3412-gen_results/8p0m/2024-11-26-14-13-15/
     RDKit          3D

 22 24  0  0  0  0  0  0  0  0999 V2000
  -28.0162   -0.8135   28.8779 C   0  0  0  0  0  0  0  0  0  0  0  0
  -28.4690   -0.7850   29.8287 C   0  0  0  0  0  0  0  0  0  0  0  0
  -27.0871    0.2903   28.6377 C   0  0  0  0  0  0  0  0  0  0  0  0
  -26.9103    0.8486   27.4199 C   0  0  0  0  0  0  0  0  0  0  0  0
  -27.8863   -0.5049   31.0945 C   0  0  0  0  0  0  0  0  0  0  0  0
  -28.4684   -0.6301   32.3865 C   0  0  0  0  0  0  0  0  0  0  0  0
  -25.8008    1.6968   27.1743 C   0  0  0  0  0  0  0  0  0  0  0  0
  -24.8836    1.9949   28.2152 C   0  0  0  0  0  0  0  0  0  0  0  0
  -25.0172    1.3818   29.4076 C   0  0  0  0  0  0  0  0  0  0  0  0
  -26.0450    0.5052   29.6452 C   0  0  0  0  0  0  0  0  0  0  0  0
  -26.5972    0.2423   30.9309 C   0  0  0  0  0  0  0  0  0  0  0  0
  -27.7065    0.5597   26.2461 C   0  0  0  0  0  0  0  0  0  0  0  0
  -28.9183    0.5319   26.1264 C   0  0  0  0  0  0  0  0  0  0  0  0
  -29.6482    0.2585   24.9533 C   0  0  0  0  0  0  0  0  0  0  0  0
  -28.8594   -0.1150   23.8266 C   0  0  0  0  0  0  0  0  0  0  0  0
  -27.0559    0.2649   25.0139 C   0  0  0  0  0  0  0  0  0  0  0  0
  -27.5692   -0.0521   23.9323 C   0  0  0  0  0  0  0  0  0  0  0  0
  -23.3637    2.0795   27.7100 C   0  0  0  0  0  0  0  0  0  0  0  0
  -22.9361    1.1983   27.3059 F   0  0  0  0  0  0  0  0  0  0  0  0
  -23.3823    3.1709   26.7225 F   0  0  0  0  0  0  0  0  0  0  0  0
  -22.6407    2.6574   28.6882 F   0  0  0  0  0  0  0  0  0  0  0  0
  -27.8706   -0.4923   33.2958 O   0  0  0  0  0  0  0  0  0  0  0  0
  1  2  1  0
  1  3  1  0
  2  5  1  0
  5  6  2  0
  5 11  1  0
 10 11  1  0
  4 12  1  0
  8 18  1  0
 18 19  1  0
 18 20  1  0
 18 21  1  0
  6 22  2  0
  3  4  2  0
  4  7  1  0
  7  8  2  0
  8  9  1  0
  9 10  2  0
 10  3  1  0
 12 13  2  0
 13 14  1  0
 14 15  2  0
 15 17  1  0
 17 16  2  0
 16 12  1  0
M  END

$$$$
