No_3587-gen_results/8p0m/2024-11-26-14-13-15/
     RDKit          3D

 11 12  0  0  0  0  0  0  0  0999 V2000
  -28.1493   -0.8198   28.9079 Cl  0  0  0  0  0  0  0  0  0  0  0  0
  -26.9116   -0.0797   28.9452 C   0  0  0  0  0  0  0  0  0  0  0  0
  -26.0490   -0.0718   27.8591 C   0  0  0  0  0  0  0  0  0  0  0  0
  -24.6574   -0.0370   27.9638 C   0  0  0  0  0  0  0  0  0  0  0  0
  -23.7086   -0.0558   26.9604 C   0  0  0  0  0  0  0  0  0  0  0  0
  -26.0393   -0.0944   30.1652 C   0  0  0  0  0  0  0  0  0  0  0  0
  -24.7665    0.1234   30.3613 C   0  0  0  0  0  0  0  0  0  0  0  0
  -23.9831    0.1437   29.2679 C   0  0  0  0  0  0  0  0  0  0  0  0
  -22.5740    0.3181   29.2574 C   0  0  0  0  0  0  0  0  0  0  0  0
  -21.7879    0.5837   28.2161 C   0  0  0  0  0  0  0  0  0  0  0  0
  -22.4227    0.3822   27.0128 C   0  0  0  0  0  0  0  0  0  0  0  0
  1  2  1  0
  4  5  2  0
  5 11  1  0
 11 10  2  0
 10  9  1  0
  9  8  2  0
  2  3  2  0
  3  4  1  0
  4  8  1  0
  8  7  1  0
  7  6  2  0
  6  2  1  0
M  END

$$$$
