No_3859-gen_results/8p0m/2024-11-26-14-13-15/
     RDKit          3D

 23 24  0  0  0  0  0  0  0  0999 V2000
  -28.0162   -0.8135   28.8779 C   0  0  0  0  0  0  0  0  0  0  0  0
  -27.0636   -0.1190   28.6079 C   0  0  0  0  0  0  0  0  0  0  0  0
  -25.8176   -0.3427   29.0488 N   0  0  0  0  0  0  0  0  0  0  0  0
  -24.6506    0.4444   28.7649 C   0  0  0  0  0  0  0  0  0  0  0  0
  -24.7153    1.3122   27.7191 C   0  0  0  0  0  0  0  0  0  0  0  0
  -25.9996    1.5243   27.1533 C   0  0  0  0  0  0  0  0  0  0  0  0
  -27.0905    0.8203   27.5377 C   0  0  0  0  0  0  0  0  0  0  0  0
  -29.2589   -0.2577   28.9163 N   0  0  0  0  0  0  0  0  0  0  0  0
  -27.8926   -1.9261   29.5889 O   0  0  0  0  0  0  0  0  0  0  0  0
  -29.5980    0.8749   28.3321 C   0  0  0  0  0  0  0  0  0  0  0  0
  -30.9152    1.3148   28.2057 C   0  0  0  0  0  0  0  0  0  0  0  0
  -28.6483    1.6430   27.5459 C   0  0  0  0  0  0  0  0  0  0  0  0
  -23.5138    2.0378   27.3092 C   0  0  0  0  0  0  0  0  0  0  0  0
  -22.3197    1.6666   27.8395 N   0  0  0  0  0  0  0  0  0  0  0  0
  -23.5804    2.9638   26.4545 O   0  0  0  0  0  0  0  0  0  0  0  0
  -30.4042   -0.9898   29.4897 C   0  0  0  0  0  0  0  0  0  0  0  0
  -31.1430    2.5750   27.6205 C   0  0  0  0  0  0  0  0  0  0  0  0
  -30.3270   -1.2478   30.5493 O   0  0  0  0  0  0  0  0  0  0  0  0
  -31.2850   -1.5130   28.6211 N   0  0  0  0  0  0  0  0  0  0  0  0
  -32.2918    3.1958   27.7740 C   0  0  0  0  0  0  0  0  0  0  0  0
  -32.5662    4.4629   27.2768 C   0  0  0  0  0  0  0  0  0  0  0  0
  -31.5567    5.0766   26.4753 C   0  0  0  0  0  0  0  0  0  0  0  0
  -30.3549    4.4241   26.2257 C   0  0  0  0  0  0  0  0  0  0  0  0
  1  2  1  0
  1  8  1  0
  1  9  2  0
  8 10  1  0
 10 11  2  3
  7 12  1  0
 10 12  1  0
  5 13  1  0
 13 14  1  0
 13 15  2  0
  8 16  1  0
 11 17  1  0
 16 18  2  0
 16 19  1  0
 17 20  2  3
 20 21  1  0
 21 22  2  3
 22 23  1  0
  2  3  2  0
  3  4  1  0
  4  5  2  0
  5  6  1  0
  6  7  2  0
  7  2  1  0
M  END

$$$$
