No_3667-gen_results/8p0m/2024-11-26-14-13-15/
     RDKit          3D

 21 23  0  0  0  0  0  0  0  0999 V2000
  -28.0162   -0.8135   28.8779 C   0  0  0  0  0  0  0  0  0  0  0  0
  -28.4690   -0.7850   29.8287 C   0  0  0  0  0  0  0  0  0  0  0  0
  -27.1356    0.2359   28.5352 C   0  0  0  0  0  0  0  0  0  0  0  0
  -26.8745    1.2825   29.3982 C   0  0  0  0  0  0  0  0  0  0  0  0
  -28.3613    0.1987   30.9244 C   0  0  0  0  0  0  0  0  0  0  0  0
  -27.5277    1.2234   30.6356 C   0  0  0  0  0  0  0  0  0  0  0  0
  -26.3987    0.2949   27.2279 C   0  0  0  0  0  0  0  0  0  0  0  0
  -25.0392    0.2356   27.3538 C   0  0  0  0  0  0  0  0  0  0  0  0
  -26.8419    1.2723   26.2572 C   0  0  0  0  0  0  0  0  0  0  0  0
  -24.2362    1.2186   27.7916 C   0  0  0  0  0  0  0  0  0  0  0  0
  -24.4862    2.4106   26.8550 C   0  0  0  0  0  0  0  0  0  0  0  0
  -25.3981    2.5711   26.1549 C   0  0  0  0  0  0  0  0  0  0  0  0
  -22.9340    1.1167   28.3722 C   0  0  0  0  0  0  0  0  0  0  0  0
  -22.0915    1.8693   27.9399 F   0  0  0  0  0  0  0  0  0  0  0  0
  -22.6222   -0.0284   29.7128 Br  0  0  0  0  0  0  0  0  0  0  0  0
  -27.1321    0.9075   25.2800 C   0  0  0  0  0  0  0  0  0  0  0  0
  -26.9790   -0.3991   24.8496 C   0  0  0  0  0  0  0  0  0  0  0  0
  -27.6341   -0.7777   23.6243 N   0  0  0  0  0  0  0  0  0  0  0  0
  -28.0049    1.5459   24.2757 C   0  0  0  0  0  0  0  0  0  0  0  0
  -28.3677    0.3801   23.3898 C   0  0  0  0  0  0  0  0  0  0  0  0
  -27.8689    2.3370   26.9369 C   0  0  0  0  0  0  0  0  0  0  0  0
  3  7  1  0
  7  8  1  0
  7  9  1  0
 10 11  1  0
  9 12  1  0
 10 13  1  0
 13 14  1  0
 13 15  1  0
  9 16  1  0
 16 17  2  0
 17 18  2  0
 16 19  1  0
 18 20  1  0
 19 20  1  0
  9 21  1  0
  8 10  1  0
 11 12  1  0
  1  2  2  0
  2  5  1  0
  5  6  2  0
  6  4  1  0
  4  3  2  0
  3  1  1  0
M  END

$$$$
