No_3322-gen_results/8p0m/2024-11-26-14-13-15/
     RDKit          3D

 22 24  0  0  0  0  0  0  0  0999 V2000
  -28.0162   -0.8135   28.8779 C   0  0  0  0  0  0  0  0  0  0  0  0
  -28.4690   -0.7850   29.8287 C   0  0  0  0  0  0  0  0  0  0  0  0
  -28.1960    0.3478   28.0550 C   0  0  0  0  0  0  0  0  0  0  0  0
  -27.4421    0.5100   26.7946 C   0  0  0  0  0  0  0  0  0  0  0  0
  -26.4394    0.8329   26.6142 C   0  0  0  0  0  0  0  0  0  0  0  0
  -25.5003    1.4288   27.3463 C   0  0  0  0  0  0  0  0  0  0  0  0
  -24.1062    1.7626   27.0255 C   0  0  0  0  0  0  0  0  0  0  0  0
  -23.8743    1.8754   25.6523 C   0  0  0  0  0  0  0  0  0  0  0  0
  -29.4739    0.1046   30.3723 C   0  0  0  0  0  0  0  0  0  0  0  0
  -29.1038    1.3012   28.4198 C   0  0  0  0  0  0  0  0  0  0  0  0
  -29.7399    1.1846   29.5967 C   0  0  0  0  0  0  0  0  0  0  0  0
  -25.7990    0.7618   25.1150 C   0  0  0  0  0  0  0  0  0  0  0  0
  -22.4975    2.3676   25.3760 C   0  0  0  0  0  0  0  0  0  0  0  0
  -24.6370    1.2519   24.7342 C   0  0  0  0  0  0  0  0  0  0  0  0
  -28.2188   -0.0674   25.7903 O   0  0  0  0  0  0  0  0  0  0  0  0
  -30.7234    2.2088   30.0407 C   0  0  0  0  0  0  0  0  0  0  0  0
  -30.2080    3.2630   30.6198 C   0  0  0  0  0  0  0  0  0  0  0  0
  -31.1073    4.3353   31.0709 C   0  0  0  0  0  0  0  0  0  0  0  0
  -30.6056    5.5082   31.7226 C   0  0  0  0  0  0  0  0  0  0  0  0
  -28.9423    3.4233   31.2603 C   0  0  0  0  0  0  0  0  0  0  0  0
  -28.4552    4.5428   31.8911 C   0  0  0  0  0  0  0  0  0  0  0  0
  -29.3198    5.5768   32.1718 C   0  0  0  0  0  0  0  0  0  0  0  0
  3  4  1  0
  4  5  1  0
  8 13  1  0
  4 15  2  0
 11 16  1  0
 16 17  1  0
 17 18  2  0
 18 19  1  0
 19 22  2  0
 22 21  1  0
 21 20  2  0
 20 17  1  0
  5  6  2  0
  6  7  1  0
  7  8  2  0
  8 14  1  0
 14 12  2  0
 12  5  1  0
  1  2  2  0
  2  9  1  0
  9 11  2  0
 11 10  1  0
 10  3  2  0
  3  1  1  0
M  END

$$$$
