No_3726-gen_results/8p0m/2024-11-26-14-13-15/
     RDKit          3D

 19 20  0  0  0  0  0  0  0  0999 V2000
  -28.0162   -0.8135   28.8779 C   0  0  0  0  0  0  0  0  0  0  0  0
  -27.0636   -0.1190   28.6079 C   0  0  0  0  0  0  0  0  0  0  0  0
  -26.9287    1.1713   29.0083 C   0  0  0  0  0  0  0  0  0  0  0  0
  -27.9560    1.7411   29.7840 C   0  0  0  0  0  0  0  0  0  0  0  0
  -29.0569   -0.3271   29.7466 C   0  0  0  0  0  0  0  0  0  0  0  0
  -28.9828    0.9722   30.1516 C   0  0  0  0  0  0  0  0  0  0  0  0
  -25.8907   -0.6263   27.7857 C   0  0  0  0  0  0  0  0  0  0  0  0
  -24.7182   -1.0610   28.6129 C   0  0  0  0  0  0  0  0  0  0  0  0
  -23.5950   -0.2827   28.8125 C   0  0  0  0  0  0  0  0  0  0  0  0
  -22.4925   -0.7920   29.5161 C   0  0  0  0  0  0  0  0  0  0  0  0
  -24.5177   -2.4342   28.9331 C   0  0  0  0  0  0  0  0  0  0  0  0
  -23.4345   -2.9209   29.5664 C   0  0  0  0  0  0  0  0  0  0  0  0
  -21.3601    0.1527   29.8005 C   0  0  0  0  0  0  0  0  0  0  0  0
  -22.4005   -2.0823   29.8507 C   0  0  0  0  0  0  0  0  0  0  0  0
  -30.0648   -1.1363   30.1149 O   0  0  0  0  0  0  0  0  0  0  0  0
  -30.8129   -0.8861   31.1719 C   0  0  0  0  0  0  0  0  0  0  0  0
  -31.5572   -1.8471   31.5034 C   0  0  0  0  0  0  0  0  0  0  0  0
  -31.5577   -3.0139   30.9372 C   0  0  0  0  0  0  0  0  0  0  0  0
  -30.6987   -3.2070   29.8489 C   0  0  0  0  0  0  0  0  0  0  0  0
  2  7  1  0
  7  8  1  0
 10 13  1  0
  5 15  1  0
 15 16  1  0
 16 17  2  3
 17 18  1  0
 18 19  2  0
  1  2  2  0
  2  3  1  0
  3  4  2  0
  4  6  1  0
  6  5  2  0
  5  1  1  0
  8  9  2  0
  9 10  1  0
 10 14  2  0
 14 12  1  0
 12 11  2  0
 11  8  1  0
M  END

$$$$
