No_3888-gen_results/8p0m/2024-11-26-14-13-15/
     RDKit          3D

 35 38  0  0  0  0  0  0  0  0999 V2000
  -28.0162   -0.8135   28.8779 C   0  0  0  0  0  0  0  0  0  0  0  0
  -28.4690   -0.7850   29.8287 C   0  0  0  0  0  0  0  0  0  0  0  0
  -27.1356    0.2359   28.5352 C   0  0  0  0  0  0  0  0  0  0  0  0
  -26.8745    1.2825   29.3982 C   0  0  0  0  0  0  0  0  0  0  0  0
  -29.3953   -1.9238   30.2863 C   0  0  0  0  0  0  0  0  0  0  0  0
  -27.5236    1.2089   30.6379 C   0  0  0  0  0  0  0  0  0  0  0  0
  -28.3224    0.1273   30.9590 C   0  0  0  0  0  0  0  0  0  0  0  0
  -30.3935   -1.8354   30.1620 N   0  0  0  0  0  0  0  0  0  0  0  0
  -28.6978   -3.1709   30.4027 N   0  0  0  0  0  0  0  0  0  0  0  0
  -29.4549   -4.2860   30.5703 C   0  0  0  0  0  0  0  0  0  0  0  0
  -31.2948   -2.9530   30.3798 C   0  0  0  0  0  0  0  0  0  0  0  0
  -30.7759   -4.2253   30.5508 C   0  0  0  0  0  0  0  0  0  0  0  0
  -26.4751    0.2715   27.1721 C   0  0  0  0  0  0  0  0  0  0  0  0
  -25.4234    1.1047   26.9864 C   0  0  0  0  0  0  0  0  0  0  0  0
  -25.1754    2.2041   27.9296 C   0  0  0  0  0  0  0  0  0  0  0  0
  -25.8315    2.2300   29.1312 C   0  0  0  0  0  0  0  0  0  0  0  0
  -24.1211    3.1830   27.5292 C   0  0  0  0  0  0  0  0  0  0  0  0
  -23.3719    2.9392   26.6212 F   0  0  0  0  0  0  0  0  0  0  0  0
  -24.8496    4.3840   27.1387 F   0  0  0  0  0  0  0  0  0  0  0  0
  -23.4353    3.6327   28.5651 F   0  0  0  0  0  0  0  0  0  0  0  0
  -27.2132   -3.2857   30.4039 C   0  0  0  0  0  0  0  0  0  0  0  0
  -26.5960   -3.4881   29.1182 C   0  0  0  0  0  0  0  0  0  0  0  0
  -25.1308   -3.6054   29.3112 C   0  0  0  0  0  0  0  0  0  0  0  0
  -24.3446   -4.1106   28.2943 C   0  0  0  0  0  0  0  0  0  0  0  0
  -27.2586    2.2751   31.6633 C   0  0  0  0  0  0  0  0  0  0  0  0
  -27.4924    2.3276   32.7187 C   0  0  0  0  0  0  0  0  0  0  0  0
  -27.4894    3.0217   33.5962 C   0  0  0  0  0  0  0  0  0  0  0  0
  -26.9931    4.4277   33.2917 C   0  0  0  0  0  0  0  0  0  0  0  0
  -26.5714    4.6114   31.9644 C   0  0  0  0  0  0  0  0  0  0  0  0
  -26.7574    3.5746   31.0770 C   0  0  0  0  0  0  0  0  0  0  0  0
  -26.0266    5.9357   31.5985 C   0  0  0  0  0  0  0  0  0  0  0  0
  -26.9008    6.9757   31.4728 C   0  0  0  0  0  0  0  0  0  0  0  0
  -27.1450    7.5157   30.4730 C   0  0  0  0  0  0  0  0  0  0  0  0
  -26.1976    7.4722   29.3190 C   0  0  0  0  0  0  0  0  0  0  0  0
  -25.0955    6.5886   29.5022 C   0  0  0  0  0  0  0  0  0  0  0  0
  2  5  1  0
  5  9  1  0
  9 10  1  0
  8 11  1  0
 15 17  1  0
 17 18  1  0
 17 19  1  0
 17 20  1  0
  9 21  1  0
 21 22  1  0
 22 23  1  0
 23 24  1  0
  6 25  1  0
 29 31  1  0
 31 32  1  0
 32 33  2  3
 33 34  1  0
 34 35  2  0
  5  8  1  0
 11 12  1  0
 12 10  1  0
 25 26  2  0
 26 27  1  0
 27 28  2  0
 28 29  1  0
 29 30  2  0
 30 25  1  0
  4 16  2  0
 16 15  1  0
 15 14  2  0
 14 13  1  0
 13  3  2  0
  1  2  2  0
  2  7  1  0
  7  6  2  0
  6  4  1  0
  4  3  1  0
  3  1  1  0
M  END

$$$$
