No_3929-gen_results/8p0m/2024-11-26-14-13-15/
     RDKit          3D

 35 37  0  0  0  0  0  0  0  0999 V2000
  -28.0162   -0.8135   28.8779 C   0  0  0  0  0  0  0  0  0  0  0  0
  -27.0636   -0.1189   28.6079 C   0  0  0  0  0  0  0  0  0  0  0  0
  -26.9287    1.1713   29.0083 C   0  0  0  0  0  0  0  0  0  0  0  0
  -25.7702    2.0341   28.6884 C   0  0  0  0  0  0  0  0  0  0  0  0
  -24.7141    1.4431   27.9188 C   0  0  0  0  0  0  0  0  0  0  0  0
  -24.8590    0.0783   27.5836 C   0  0  0  0  0  0  0  0  0  0  0  0
  -25.9647   -0.6606   27.9164 C   0  0  0  0  0  0  0  0  0  0  0  0
  -28.6995   -0.6441   30.0766 N   0  0  0  0  0  0  0  0  0  0  0  0
  -29.8035   -1.3645   30.5061 C   0  0  0  0  0  0  0  0  0  0  0  0
  -30.3751   -2.1790   29.7448 C   0  0  0  0  0  0  0  0  0  0  0  0
  -31.6119   -2.3483   29.7618 N   0  0  0  0  0  0  0  0  0  0  0  0
  -23.4386    1.9376   27.7835 C   0  0  0  0  0  0  0  0  0  0  0  0
  -22.7387    2.0523   26.7960 N   0  0  0  0  0  0  0  0  0  0  0  0
  -32.3013   -3.2060   28.9297 C   0  0  0  0  0  0  0  0  0  0  0  0
  -22.7799    2.3285   28.9105 O   0  0  0  0  0  0  0  0  0  0  0  0
  -32.6049   -2.7511   27.6885 C   0  0  0  0  0  0  0  0  0  0  0  0
  -32.5406   -3.5417   26.6747 N   0  0  0  0  0  0  0  0  0  0  0  0
  -33.5853   -3.8452   29.5160 C   0  0  0  0  0  0  0  0  0  0  0  0
  -33.5045   -4.6990   30.3785 C   0  0  0  0  0  0  0  0  0  0  0  0
  -32.2951   -5.3965   30.4836 C   0  0  0  0  0  0  0  0  0  0  0  0
  -31.8891   -6.0856   29.8291 C   0  0  0  0  0  0  0  0  0  0  0  0
  -31.6066   -6.2585   28.7189 C   0  0  0  0  0  0  0  0  0  0  0  0
  -30.9278   -7.3129   27.9481 C   0  0  0  0  0  0  0  0  0  0  0  0
  -32.4444   -3.0218   25.3691 C   0  0  0  0  0  0  0  0  0  0  0  0
  -30.8264   -7.3610   26.5417 C   0  0  0  0  0  0  0  0  0  0  0  0
  -32.0819   -1.6991   25.2305 C   0  0  0  0  0  0  0  0  0  0  0  0
  -32.2030   -1.3451   27.3671 C   0  0  0  0  0  0  0  0  0  0  0  0
  -31.9776   -0.8655   26.2047 C   0  0  0  0  0  0  0  0  0  0  0  0
  -30.3600   -8.4625   25.9634 C   0  0  0  0  0  0  0  0  0  0  0  0
  -30.1290   -8.3759   24.5462 C   0  0  0  0  0  0  0  0  0  0  0  0
  -31.2678   -7.3388   30.5939 C   0  0  0  0  0  0  0  0  0  0  0  0
  -30.8990   -8.5622   29.9585 C   0  0  0  0  0  0  0  0  0  0  0  0
  -30.6747   -8.4966   28.6501 C   0  0  0  0  0  0  0  0  0  0  0  0
  -32.4200   -1.6180   30.7810 C   0  0  0  0  0  0  0  0  0  0  0  0
  -31.7590   -0.6697   31.5786 C   0  0  0  0  0  0  0  0  0  0  0  0
  1  2  1  0
  1  8  1  0
  8  9  1  0
  9 10  1  0
 10 11  1  0
  5 12  1  0
 12 13  2  0
 11 14  1  0
 12 15  1  0
 14 16  1  0
 14 18  1  0
 18 19  2  3
 19 20  1  0
 20 21  1  0
 23 25  1  0
 25 29  1  0
 29 30  2  0
 11 34  1  0
 34 35  2  0
  2  3  2  0
  3  4  1  0
  4  5  2  0
  5  6  1  0
  6  7  2  0
  7  2  1  0
 16 17  2  0
 17 24  1  0
 24 26  2  0
 26 28  1  0
 28 27  2  0
 27 16  1  0
 21 22  2  0
 22 23  1  0
 23 33  2  0
 33 32  1  0
 32 31  2  0
 31 21  1  0
M  END

$$$$
