No_3163-gen_results/8p0m/2024-11-26-14-13-15/
     RDKit          3D

 25 27  0  0  0  0  0  0  0  0999 V2000
  -28.0162   -0.8135   28.8779 C   0  0  0  0  0  0  0  0  0  0  0  0
  -28.4690   -0.7850   29.8287 C   0  0  0  0  0  0  0  0  0  0  0  0
  -26.5455   -0.8762   28.8500 C   0  0  0  0  0  0  0  0  0  0  0  0
  -25.8041   -1.0324   30.0571 C   0  0  0  0  0  0  0  0  0  0  0  0
  -27.9437   -0.9869   31.2075 C   0  0  0  0  0  0  0  0  0  0  0  0
  -26.5825   -1.0386   31.2231 C   0  0  0  0  0  0  0  0  0  0  0  0
  -30.0606   -0.7371   29.9024 C   0  0  0  0  0  0  0  0  0  0  0  0
  -30.6956   -1.6968   30.2944 N   0  0  0  0  0  0  0  0  0  0  0  0
  -30.2730   -2.6492   30.8951 C   0  0  0  0  0  0  0  0  0  0  0  0
  -30.4567    0.3228   29.3329 O   0  0  0  0  0  0  0  0  0  0  0  0
  -30.2926   -4.0042   30.3187 C   0  0  0  0  0  0  0  0  0  0  0  0
  -31.1103   -4.2860   29.5475 C   0  0  0  0  0  0  0  0  0  0  0  0
  -31.1126   -5.5738   28.7642 C   0  0  0  0  0  0  0  0  0  0  0  0
  -31.8809   -5.8120   27.7199 C   0  0  0  0  0  0  0  0  0  0  0  0
  -32.7704   -4.8512   27.2513 C   0  0  0  0  0  0  0  0  0  0  0  0
  -32.8024   -3.6284   27.8694 C   0  0  0  0  0  0  0  0  0  0  0  0
  -31.9223   -3.3340   28.9178 C   0  0  0  0  0  0  0  0  0  0  0  0
  -31.6670   -2.0611   29.5047 N   0  0  0  0  0  0  0  0  0  0  0  0
  -29.4185   -5.0571   31.0570 C   0  0  0  0  0  0  0  0  0  0  0  0
  -28.2258   -4.9726   30.8716 O   0  0  0  0  0  0  0  0  0  0  0  0
  -29.9345   -5.9691   31.6858 F   0  0  0  0  0  0  0  0  0  0  0  0
  -25.8219   -0.8181   27.6928 O   0  0  0  0  0  0  0  0  0  0  0  0
  -24.5954   -0.2046   27.7886 C   0  0  0  0  0  0  0  0  0  0  0  0
  -23.6721   -0.5617   28.7335 C   0  0  0  0  0  0  0  0  0  0  0  0
  -24.4066   -0.7617   30.0672 C   0  0  0  0  0  0  0  0  0  0  0  0
  2  7  1  0
  7  8  1  0
  8  9  1  0
  7 10  2  0
  9 11  1  0
  8 18  1  0
 17 18  1  0
 11 19  1  0
 19 20  2  0
 19 21  1  0
  3 22  1  0
 22 23  1  0
 23 24  2  3
 24 25  1  0
 11 12  1  0
 12 13  2  0
 13 14  1  0
 14 15  2  0
 15 16  1  0
 16 17  2  0
 17 12  1  0
  1  2  2  0
  2  5  1  0
  5  6  2  0
  6  4  1  0
  4  3  2  0
  3  1  1  0
M  END

$$$$
