No_3620-gen_results/8p0m/2024-11-26-14-13-15/
     RDKit          3D

 21 22  0  0  0  0  0  0  0  0999 V2000
  -28.0162   -0.8135   28.8779 C   0  0  0  0  0  0  0  0  0  0  0  0
  -28.4690   -0.7850   29.8287 C   0  0  0  0  0  0  0  0  0  0  0  0
  -28.1816    0.4277   28.1134 C   0  0  0  0  0  0  0  0  0  0  0  0
  -28.9841    1.4155   28.5154 C   0  0  0  0  0  0  0  0  0  0  0  0
  -28.3375   -2.0481   30.7873 C   0  0  0  0  0  0  0  0  0  0  0  0
  -29.5615    1.2930   29.7416 C   0  0  0  0  0  0  0  0  0  0  0  0
  -29.3196    0.1647   30.4451 C   0  0  0  0  0  0  0  0  0  0  0  0
  -27.3512   -2.1149   31.3658 O   0  0  0  0  0  0  0  0  0  0  0  0
  -29.0701   -3.1446   30.4210 O   0  0  0  0  0  0  0  0  0  0  0  0
  -27.3131    0.3724   26.8597 C   0  0  0  0  0  0  0  0  0  0  0  0
  -25.9077    0.4560   26.9307 C   0  0  0  0  0  0  0  0  0  0  0  0
  -25.1496    0.0475   28.0014 C   0  0  0  0  0  0  0  0  0  0  0  0
  -23.7581    0.1586   28.0565 C   0  0  0  0  0  0  0  0  0  0  0  0
  -22.9849   -0.3479   29.1622 C   0  0  0  0  0  0  0  0  0  0  0  0
  -21.6119   -0.1990   29.2051 C   0  0  0  0  0  0  0  0  0  0  0  0
  -20.9367    0.6671   28.3107 C   0  0  0  0  0  0  0  0  0  0  0  0
  -21.7228    1.3667   27.3802 C   0  0  0  0  0  0  0  0  0  0  0  0
  -23.0890    1.1781   27.2990 C   0  0  0  0  0  0  0  0  0  0  0  0
  -27.9951    0.2897   25.6530 C   0  0  0  0  0  0  0  0  0  0  0  0
  -27.2673    0.4126   24.6872 F   0  0  0  0  0  0  0  0  0  0  0  0
  -28.8754    1.3229   25.5820 F   0  0  0  0  0  0  0  0  0  0  0  0
  2  5  1  0
  5  8  2  0
  5  9  1  0
  3 10  1  0
 10 11  1  0
 11 12  2  3
 12 13  1  0
 10 19  1  0
 19 20  1  0
 19 21  1  0
 13 14  2  0
 14 15  1  0
 15 16  2  0
 16 17  1  0
 17 18  2  0
 18 13  1  0
  1  2  2  0
  2  7  1  0
  7  6  2  0
  6  4  1  0
  4  3  2  0
  3  1  1  0
M  END

$$$$
