No_3749-gen_results/8p0m/2024-11-26-14-13-15/
     RDKit          3D

 35 37  0  0  0  0  0  0  0  0999 V2000
  -28.0162   -0.8135   28.8779 C   0  0  0  0  0  0  0  0  0  0  0  0
  -27.0636   -0.1189   28.6079 C   0  0  0  0  0  0  0  0  0  0  0  0
  -27.0010    0.6913   27.4910 C   0  0  0  0  0  0  0  0  0  0  0  0
  -25.8548    1.4825   27.0830 C   0  0  0  0  0  0  0  0  0  0  0  0
  -24.6901    1.4526   27.8807 C   0  0  0  0  0  0  0  0  0  0  0  0
  -24.7379    0.6010   29.0416 C   0  0  0  0  0  0  0  0  0  0  0  0
  -25.8234   -0.1688   29.3887 C   0  0  0  0  0  0  0  0  0  0  0  0
  -28.0376   -1.5350   30.2052 C   0  0  0  0  0  0  0  0  0  0  0  0
  -26.8472   -1.6620   30.9516 C   0  0  0  0  0  0  0  0  0  0  0  0
  -25.7454   -0.9236   30.5911 C   0  0  0  0  0  0  0  0  0  0  0  0
  -23.5005    2.2219   27.5437 C   0  0  0  0  0  0  0  0  0  0  0  0
  -22.5646    1.5856   27.0981 F   0  0  0  0  0  0  0  0  0  0  0  0
  -23.0818    2.9160   28.7073 F   0  0  0  0  0  0  0  0  0  0  0  0
  -23.8596    3.2707   26.7453 F   0  0  0  0  0  0  0  0  0  0  0  0
  -28.1271    0.7571   26.5394 C   0  0  0  0  0  0  0  0  0  0  0  0
  -28.0337    0.2555   25.4340 O   0  0  0  0  0  0  0  0  0  0  0  0
  -29.3216    1.1393   27.0092 N   0  0  0  0  0  0  0  0  0  0  0  0
  -30.4747    1.2036   26.1831 C   0  0  0  0  0  0  0  0  0  0  0  0
  -29.2199   -2.3537   30.5913 C   0  0  0  0  0  0  0  0  0  0  0  0
  -30.0382   -1.9143   31.1661 O   0  0  0  0  0  0  0  0  0  0  0  0
  -29.1073   -3.6115   30.2373 O   0  0  0  0  0  0  0  0  0  0  0  0
  -31.4557    0.2776   26.4864 C   0  0  0  0  0  0  0  0  0  0  0  0
  -32.0378   -0.3551   25.7672 O   0  0  0  0  0  0  0  0  0  0  0  0
  -31.9865    0.3076   27.7762 O   0  0  0  0  0  0  0  0  0  0  0  0
  -30.2475   -4.4482   30.2008 C   0  0  0  0  0  0  0  0  0  0  0  0
  -30.6771   -4.8156   29.0036 C   0  0  0  0  0  0  0  0  0  0  0  0
  -31.5886   -5.9152   28.8691 C   0  0  0  0  0  0  0  0  0  0  0  0
  -32.0635   -6.2903   27.5703 C   0  0  0  0  0  0  0  0  0  0  0  0
  -31.7004   -5.4419   26.5240 C   0  0  0  0  0  0  0  0  0  0  0  0
  -31.0038   -4.3419   26.7015 C   0  0  0  0  0  0  0  0  0  0  0  0
  -30.5908   -3.9136   27.9698 C   0  0  0  0  0  0  0  0  0  0  0  0
  -30.4624   -4.9753   31.3449 O   0  0  0  0  0  0  0  0  0  0  0  0
  -32.7085   -7.5593   27.3370 C   0  0  0  0  0  0  0  0  0  0  0  0
  -33.2195   -8.2303   28.0023 C   0  0  0  0  0  0  0  0  0  0  0  0
  -33.8639   -9.5292   27.7036 C   0  0  0  0  0  0  0  0  0  0  0  0
  5 11  1  0
 11 12  1  0
 11 13  1  0
 11 14  1  0
  3 15  1  0
 15 16  2  0
 15 17  1  0
 17 18  1  0
  8 19  1  0
 19 20  2  0
 19 21  1  0
 18 22  1  0
 22 23  2  0
 22 24  1  0
 21 25  1  0
 25 26  1  0
 25 32  2  0
 28 33  1  0
 33 34  2  3
 34 35  1  0
 26 27  2  0
 27 28  1  0
 28 29  2  0
 29 30  1  0
 30 31  2  0
 31 26  1  0
  2  3  1  0
  3  4  2  0
  4  5  1  0
  5  6  2  0
  6  7  1  0
  1  2  2  0
  2  7  1  0
  7 10  2  0
 10  9  1  0
  9  8  2  0
  8  1  1  0
M  END

$$$$
