No_3934-gen_results/8p0m/2024-11-26-14-13-15/
     RDKit          3D

 13 13  0  0  0  0  0  0  0  0999 V2000
  -28.1229   -1.3353   28.4874 O   0  0  0  0  0  0  0  0  0  0  0  0
  -27.0637   -0.8242   28.8687 C   0  0  0  0  0  0  0  0  0  0  0  0
  -27.0246    0.1877   29.7358 C   0  0  0  0  0  0  0  0  0  0  0  0
  -25.8391    0.8513   29.9958 C   0  0  0  0  0  0  0  0  0  0  0  0
  -25.6913   -1.2021   28.3631 C   0  0  0  0  0  0  0  0  0  0  0  0
  -24.5005   -0.6132   28.6652 C   0  0  0  0  0  0  0  0  0  0  0  0
  -24.5796    0.4776   29.5164 C   0  0  0  0  0  0  0  0  0  0  0  0
  -23.3227    1.1499   29.8370 C   0  0  0  0  0  0  0  0  0  0  0  0
  -22.7188    1.6959   29.0937 O   0  0  0  0  0  0  0  0  0  0  0  0
  -23.0235    1.1236   31.2177 O   0  0  0  0  0  0  0  0  0  0  0  0
  -29.0463   -1.3363   29.4404 C   0  0  0  0  0  0  0  0  0  0  0  0
  -30.1779   -1.4295   29.0966 O   0  0  0  0  0  0  0  0  0  0  0  0
  -28.9062   -1.6593   30.7384 O   0  0  0  0  0  0  0  0  0  0  0  0
  1  2  1  0
  7  8  1  0
  8  9  2  0
  8 10  1  0
  1 11  1  0
 11 12  2  0
 11 13  1  0
  2  3  2  0
  3  4  1  0
  4  7  2  0
  7  6  1  0
  6  5  2  0
  5  2  1  0
M  END

$$$$
