No_382-gen_results/8p0m/2024-11-26-14-13-15/
     RDKit          3D

 28 31  0  0  0  0  0  0  0  0999 V2000
  -28.0162   -0.8135   28.8779 C   0  0  0  0  0  0  0  0  0  0  0  0
  -27.0636   -0.1190   28.6079 C   0  0  0  0  0  0  0  0  0  0  0  0
  -25.7923   -0.4302   29.0761 C   0  0  0  0  0  0  0  0  0  0  0  0
  -25.5756   -1.5654   29.9363 C   0  0  0  0  0  0  0  0  0  0  0  0
  -26.7354   -2.3004   30.2173 C   0  0  0  0  0  0  0  0  0  0  0  0
  -27.9184   -1.9537   29.7629 C   0  0  0  0  0  0  0  0  0  0  0  0
  -27.1059    1.0338   27.8185 N   0  0  0  0  0  0  0  0  0  0  0  0
  -27.8211    1.6842   27.5015 C   0  0  0  0  0  0  0  0  0  0  0  0
  -29.1186    1.6494   28.0075 C   0  0  0  0  0  0  0  0  0  0  0  0
  -29.3601    1.4119   29.1563 C   0  0  0  0  0  0  0  0  0  0  0  0
  -30.6562    1.7744   29.7648 C   0  0  0  0  0  0  0  0  0  0  0  0
  -30.8999    1.5481   31.1409 C   0  0  0  0  0  0  0  0  0  0  0  0
  -29.8558    0.8917   31.8567 C   0  0  0  0  0  0  0  0  0  0  0  0
  -28.6595    0.5934   31.3594 C   0  0  0  0  0  0  0  0  0  0  0  0
  -28.4173    0.8042   30.0471 C   0  0  0  0  0  0  0  0  0  0  0  0
  -27.2372    1.7983   30.2095 C   0  0  0  0  0  0  0  0  0  0  0  0
  -29.1048   -0.8576   28.2695 O   0  0  0  0  0  0  0  0  0  0  0  0
  -27.4253    3.2980   30.4380 C   0  0  0  0  0  0  0  0  0  0  0  0
  -27.3578    3.7056   31.5878 C   0  0  0  0  0  0  0  0  0  0  0  0
  -27.3845    5.1540   31.8183 C   0  0  0  0  0  0  0  0  0  0  0  0
  -27.7079    4.1179   29.3584 C   0  0  0  0  0  0  0  0  0  0  0  0
  -27.7837    5.5088   29.5102 C   0  0  0  0  0  0  0  0  0  0  0  0
  -27.6391    6.0164   30.7960 C   0  0  0  0  0  0  0  0  0  0  0  0
  -27.5491    2.7523   26.0937 Cl  0  0  0  0  0  0  0  0  0  0  0  0
  -31.7544    2.2675   28.9796 C   0  0  0  0  0  0  0  0  0  0  0  0
  -32.7479    2.8059   29.5496 C   0  0  0  0  0  0  0  0  0  0  0  0
  -33.0015    2.5697   30.9561 C   0  0  0  0  0  0  0  0  0  0  0  0
  -32.1022    1.9631   31.7622 C   0  0  0  0  0  0  0  0  0  0  0  0
  2  7  1  0
  7  8  2  3
  8  9  1  0
 15 16  1  0
  1 17  1  0
 16 18  1  0
  8 24  1  0
  9 10  1  0
 12 28  1  0
 28 27  2  0
 27 26  1  0
 26 25  2  0
 25 11  1  0
  1  2  2  0
  2  3  1  0
  3  4  2  0
  4  5  1  0
  5  6  2  0
  6  1  1  0
 10 11  2  0
 11 12  1  0
 12 13  2  0
 13 14  1  0
 14 15  2  0
 15 10  1  0
 18 19  2  0
 19 20  1  0
 20 23  2  0
 23 22  1  0
 22 21  2  0
 21 18  1  0
M  END

$$$$
