No_309-gen_results/8p0m/2024-11-26-14-13-15/
     RDKit          3D

  9  9  0  0  0  0  0  0  0  0999 V2000
  -28.0162   -0.8135   28.8779 C   0  0  0  0  0  0  0  0  0  0  0  0
  -28.4690   -0.7850   29.8287 C   0  0  0  0  0  0  0  0  0  0  0  0
  -26.5042   -0.7777   28.8766 C   0  0  0  0  0  0  0  0  0  0  0  0
  -25.7898   -0.9321   30.0949 C   0  0  0  0  0  0  0  0  0  0  0  0
  -28.0297   -0.9980   31.2385 C   0  0  0  0  0  0  0  0  0  0  0  0
  -26.6084   -0.9801   31.2756 C   0  0  0  0  0  0  0  0  0  0  0  0
  -24.3763   -0.9313   30.1970 C   0  0  0  0  0  0  0  0  0  0  0  0
  -23.7681   -0.6680   31.2289 C   0  0  0  0  0  0  0  0  0  0  0  0
  -22.3271   -0.5757   31.2931 C   0  0  0  0  0  0  0  0  0  0  0  0
  4  7  1  0
  7  8  2  3
  8  9  1  0
  1  2  2  0
  2  5  1  0
  5  6  2  0
  6  4  1  0
  4  3  2  0
  3  1  1  0
M  END

$$$$
