No_3157-gen_results/8p0m/2024-11-26-14-13-15/
     RDKit          3D

 23 24  0  0  0  0  0  0  0  0999 V2000
  -28.0162   -0.8135   28.8779 C   0  0  0  0  0  0  0  0  0  0  0  0
  -27.0636   -0.1189   28.6079 C   0  0  0  0  0  0  0  0  0  0  0  0
  -26.9716    0.7139   27.5060 C   0  0  0  0  0  0  0  0  0  0  0  0
  -28.1053    0.7744   26.6421 C   0  0  0  0  0  0  0  0  0  0  0  0
  -29.2008    0.1044   27.0527 C   0  0  0  0  0  0  0  0  0  0  0  0
  -29.2096   -0.6029   28.1853 C   0  0  0  0  0  0  0  0  0  0  0  0
  -30.2850    0.2735   26.0122 C   0  0  0  0  0  0  0  0  0  0  0  0
  -30.1557    0.4970   24.8545 N   0  0  0  0  0  0  0  0  0  0  0  0
  -31.4784   -0.0882   26.4595 O   0  0  0  0  0  0  0  0  0  0  0  0
  -25.7135   -0.2195   29.4462 C   0  0  0  0  0  0  0  0  0  0  0  0
  -24.7553   -0.6428   28.7870 F   0  0  0  0  0  0  0  0  0  0  0  0
  -25.8706   -1.0769   30.5056 F   0  0  0  0  0  0  0  0  0  0  0  0
  -25.3894    0.9343   29.9643 F   0  0  0  0  0  0  0  0  0  0  0  0
  -31.2155    0.5046   23.8059 C   0  0  0  0  0  0  0  0  0  0  0  0
  -28.8763    0.9198   24.1512 C   0  0  0  0  0  0  0  0  0  0  0  0
  -27.8518    1.2658   25.3972 N   0  0  0  0  0  0  0  0  0  0  0  0
  -26.6786    1.9870   25.0238 C   0  0  0  0  0  0  0  0  0  0  0  0
  -25.4541    1.1688   25.3164 C   0  0  0  0  0  0  0  0  0  0  0  0
  -24.3249    1.8953   25.7379 C   0  0  0  0  0  0  0  0  0  0  0  0
  -23.4434    1.8765   26.6104 C   0  0  0  0  0  0  0  0  0  0  0  0
  -23.7618    1.7879   28.0020 C   0  0  0  0  0  0  0  0  0  0  0  0
  -22.6788    1.8358   28.9980 C   0  0  0  0  0  0  0  0  0  0  0  0
  -21.4810    1.6746   28.4698 N   0  0  0  0  0  0  0  0  0  0  0  0
  5  7  1  0
  7  8  1  0
  7  9  2  0
  2 10  1  0
 10 11  1  0
 10 12  1  0
 10 13  1  0
  8 14  1  0
  8 15  1  0
  4 16  1  0
 15 16  1  0
 16 17  1  0
 17 18  1  0
 18 19  2  3
 19 20  1  0
 20 21  2  3
 21 22  1  0
 22 23  2  0
  1  2  2  0
  2  3  1  0
  3  4  2  0
  4  5  1  0
  5  6  2  0
  6  1  1  0
M  END

$$$$
