No_3325-gen_results/8p0m/2024-11-26-14-13-15/
     RDKit          3D

 17 18  0  0  0  0  0  0  0  0999 V2000
  -28.0162   -0.8135   28.8779 C   0  0  0  0  0  0  0  0  0  0  0  0
  -28.4690   -0.7850   29.8287 C   0  0  0  0  0  0  0  0  0  0  0  0
  -26.5042   -0.7777   28.8766 C   0  0  0  0  0  0  0  0  0  0  0  0
  -25.8103   -0.8531   30.1028 C   0  0  0  0  0  0  0  0  0  0  0  0
  -27.9906   -0.8916   31.2257 C   0  0  0  0  0  0  0  0  0  0  0  0
  -26.6042   -0.8676   31.2652 C   0  0  0  0  0  0  0  0  0  0  0  0
  -29.9203   -0.8331   29.8239 F   0  0  0  0  0  0  0  0  0  0  0  0
  -24.3796   -0.8022   30.1424 C   0  0  0  0  0  0  0  0  0  0  0  0
  -23.6323   -0.3170   29.1196 C   0  0  0  0  0  0  0  0  0  0  0  0
  -23.8326    0.7884   28.3454 C   0  0  0  0  0  0  0  0  0  0  0  0
  -22.8837    1.2746   27.4542 C   0  0  0  0  0  0  0  0  0  0  0  0
  -21.5320    1.0572   27.7284 C   0  0  0  0  0  0  0  0  0  0  0  0
  -21.2127    0.0445   28.6171 C   0  0  0  0  0  0  0  0  0  0  0  0
  -22.1491   -0.5703   29.3901 C   0  0  0  0  0  0  0  0  0  0  0  0
  -23.7967   -1.2924   31.4210 C   0  0  0  0  0  0  0  0  0  0  0  0
  -23.2936    2.5254   26.3373 Cl  0  0  0  0  0  0  0  0  0  0  0  0
  -23.7580   -0.4712   32.4209 O   0  0  0  0  0  0  0  0  0  0  0  0
  2  7  1  0
  4  8  1  0
  8  9  1  0
  8 15  1  0
 11 16  1  0
 15 17  2  0
  9 10  2  0
 10 11  1  0
 11 12  2  0
 12 13  1  0
 13 14  2  0
 14  9  1  0
  1  2  2  0
  2  5  1  0
  5  6  2  0
  6  4  1  0
  4  3  2  0
  3  1  1  0
M  END

$$$$
