No_3928-gen_results/8p0m/2024-11-26-14-13-15/
     RDKit          3D

 23 25  0  0  0  0  0  0  0  0999 V2000
  -28.0162   -0.8135   28.8779 C   0  0  0  0  0  0  0  0  0  0  0  0
  -27.0636   -0.1190   28.6079 C   0  0  0  0  0  0  0  0  0  0  0  0
  -25.7923   -0.4302   29.0761 C   0  0  0  0  0  0  0  0  0  0  0  0
  -24.5456    0.3494   28.8225 C   0  0  0  0  0  0  0  0  0  0  0  0
  -24.6586    1.4196   27.8878 C   0  0  0  0  0  0  0  0  0  0  0  0
  -25.9471    1.6811   27.3792 C   0  0  0  0  0  0  0  0  0  0  0  0
  -27.0439    0.9739   27.6871 C   0  0  0  0  0  0  0  0  0  0  0  0
  -27.9229   -2.0316   29.0996 F   0  0  0  0  0  0  0  0  0  0  0  0
  -29.0495   -0.8160   27.8781 F   0  0  0  0  0  0  0  0  0  0  0  0
  -28.6339   -0.2562   30.0064 F   0  0  0  0  0  0  0  0  0  0  0  0
  -23.4725    2.1786   27.6322 C   0  0  0  0  0  0  0  0  0  0  0  0
  -23.4924    3.2077   26.9494 N   0  0  0  0  0  0  0  0  0  0  0  0
  -22.2960    1.8346   28.0952 O   0  0  0  0  0  0  0  0  0  0  0  0
  -24.7632    3.7574   26.4536 C   0  0  0  0  0  0  0  0  0  0  0  0
  -25.9097    2.9275   26.5461 C   0  0  0  0  0  0  0  0  0  0  0  0
  -27.0598    3.3946   26.0396 N   0  0  0  0  0  0  0  0  0  0  0  0
  -28.0102    4.3959   26.4706 C   0  0  0  0  0  0  0  0  0  0  0  0
  -27.6227    2.6140   24.9187 C   0  0  0  0  0  0  0  0  0  0  0  0
  -27.1417    1.5666   24.4478 C   0  0  0  0  0  0  0  0  0  0  0  0
  -28.9009    3.1109   24.5505 C   0  0  0  0  0  0  0  0  0  0  0  0
  -29.6216    4.1250   25.0229 C   0  0  0  0  0  0  0  0  0  0  0  0
  -29.0518    4.8088   26.0790 C   0  0  0  0  0  0  0  0  0  0  0  0
  -27.8720    0.7155   23.5928 C   0  0  0  0  0  0  0  0  0  0  0  0
  1  2  1  0
  1  8  1  0
  1  9  1  0
  1 10  1  0
  5 11  1  0
 11 12  1  0
 11 13  2  0
 12 14  1  0
  6 15  1  0
 14 15  1  0
 15 16  1  0
 16 17  1  0
 16 18  1  0
 18 20  1  0
 21 22  1  0
 19 23  1  0
 19 18  1  0
 17 22  1  0
 21 20  1  0
  2  3  2  0
  3  4  1  0
  4  5  2  0
  5  6  1  0
  6  7  2  0
  7  2  1  0
M  END

$$$$
