No_3111-gen_results/8p0m/2024-11-26-14-13-15/
     RDKit          3D

 25 28  0  0  0  0  0  0  0  0999 V2000
  -28.1229   -1.3353   28.4874 O   0  0  0  0  0  0  0  0  0  0  0  0
  -27.0637   -0.8242   28.8687 C   0  0  0  0  0  0  0  0  0  0  0  0
  -26.4017   -0.0623   28.6224 C   0  0  0  0  0  0  0  0  0  0  0  0
  -26.5721   -1.5845   30.1172 N   0  0  0  0  0  0  0  0  0  0  0  0
  -25.0209    0.3561   29.0444 C   0  0  0  0  0  0  0  0  0  0  0  0
  -24.1318    1.3392   28.5895 C   0  0  0  0  0  0  0  0  0  0  0  0
  -22.8500    1.5181   29.1406 C   0  0  0  0  0  0  0  0  0  0  0  0
  -22.4250    0.4794   29.9751 C   0  0  0  0  0  0  0  0  0  0  0  0
  -23.2352   -0.5066   30.4791 C   0  0  0  0  0  0  0  0  0  0  0  0
  -24.4496   -0.6297   29.9741 C   0  0  0  0  0  0  0  0  0  0  0  0
  -25.3584   -1.6040   30.5399 C   0  0  0  0  0  0  0  0  0  0  0  0
  -26.7645    0.8445   27.3626 C   0  0  0  0  0  0  0  0  0  0  0  0
  -26.4091    0.3883   26.1256 C   0  0  0  0  0  0  0  0  0  0  0  0
  -27.5324    1.9288   27.5785 C   0  0  0  0  0  0  0  0  0  0  0  0
  -26.9791    0.8876   24.9730 C   0  0  0  0  0  0  0  0  0  0  0  0
  -28.1255    1.3591   25.0675 C   0  0  0  0  0  0  0  0  0  0  0  0
  -28.3903    2.1758   26.3559 C   0  0  0  0  0  0  0  0  0  0  0  0
  -28.0781    2.3781   28.8179 C   0  0  0  0  0  0  0  0  0  0  0  0
  -28.6396    2.1870   29.7916 Cl  0  0  0  0  0  0  0  0  0  0  0  0
  -27.2960    3.8422   28.8010 C   0  0  0  0  0  0  0  0  0  0  0  0
  -26.6984    4.1531   29.9326 C   0  0  0  0  0  0  0  0  0  0  0  0
  -25.8010    5.2850   29.8884 C   0  0  0  0  0  0  0  0  0  0  0  0
  -25.6272    5.9772   28.7379 N   0  0  0  0  0  0  0  0  0  0  0  0
  -26.9676    4.6517   27.6668 C   0  0  0  0  0  0  0  0  0  0  0  0
  -26.1849    5.6083   27.6326 C   0  0  0  0  0  0  0  0  0  0  0  0
  1  2  2  0
  2  3  1  0
  2  4  1  0
  4 11  1  0
 10 11  1  0
  3 12  1  0
 14 18  1  0
 18 19  1  0
 18 20  1  0
  3  5  1  0
 12 13  2  0
 13 15  1  0
 15 16  2  0
 16 17  1  0
 17 14  2  0
 14 12  1  0
  5  6  2  0
  6  7  1  0
  7  8  2  0
  8  9  1  0
  9 10  2  0
 10  5  1  0
 20 21  2  0
 21 22  1  0
 22 23  2  0
 23 25  1  0
 25 24  2  0
 24 20  1  0
M  END

$$$$
