No_3904-gen_results/8p0m/2024-11-26-14-13-15/
     RDKit          3D

 18 18  0  0  0  0  0  0  0  0999 V2000
  -28.0162   -0.8135   28.8779 C   0  0  0  0  0  0  0  0  0  0  0  0
  -28.4690   -0.7850   29.8287 C   0  0  0  0  0  0  0  0  0  0  0  0
  -27.0871    0.2903   28.6377 C   0  0  0  0  0  0  0  0  0  0  0  0
  -26.2516    0.4114   27.4223 C   0  0  0  0  0  0  0  0  0  0  0  0
  -28.3913    0.1041   30.9805 C   0  0  0  0  0  0  0  0  0  0  0  0
  -27.5332    1.1666   30.7866 C   0  0  0  0  0  0  0  0  0  0  0  0
  -26.8281    1.2557   29.6454 C   0  0  0  0  0  0  0  0  0  0  0  0
  -25.9362    1.5378   27.1650 O   0  0  0  0  0  0  0  0  0  0  0  0
  -26.0270   -0.5731   26.7251 O   0  0  0  0  0  0  0  0  0  0  0  0
  -29.3605   -1.8912   30.1788 F   0  0  0  0  0  0  0  0  0  0  0  0
  -27.3616    2.1909   31.8634 C   0  0  0  0  0  0  0  0  0  0  0  0
  -27.2901    3.3277   31.6412 N   0  0  0  0  0  0  0  0  0  0  0  0
  -26.9034    4.3051   32.5105 C   0  0  0  0  0  0  0  0  0  0  0  0
  -26.3810    5.5936   32.0461 C   0  0  0  0  0  0  0  0  0  0  0  0
  -26.3154    5.8260   30.6968 C   0  0  0  0  0  0  0  0  0  0  0  0
  -25.8619    7.0059   30.1832 C   0  0  0  0  0  0  0  0  0  0  0  0
  -25.1543    7.8864   31.0074 C   0  0  0  0  0  0  0  0  0  0  0  0
  -25.0909    7.6664   32.3664 C   0  0  0  0  0  0  0  0  0  0  0  0
  3  4  1  0
  4  8  1  0
  4  9  2  0
  2 10  1  0
  6 11  1  0
 11 12  1  0
 12 13  1  0
 13 14  2  3
 14 15  1  0
 15 16  1  0
 16 17  2  3
 17 18  1  0
  1  2  2  0
  2  5  1  0
  5  6  2  0
  6  7  1  0
  7  3  2  0
  3  1  1  0
M  END

$$$$
