No_3036-gen_results/8p0m/2024-11-26-14-13-15/
     RDKit          3D

 35 37  0  0  0  0  0  0  0  0999 V2000
  -28.0162   -0.8135   28.8779 C   0  0  0  0  0  0  0  0  0  0  0  0
  -28.4690   -0.7850   29.8287 C   0  0  0  0  0  0  0  0  0  0  0  0
  -26.5042   -0.7777   28.8766 C   0  0  0  0  0  0  0  0  0  0  0  0
  -25.6540   -0.6597   27.7191 C   0  0  0  0  0  0  0  0  0  0  0  0
  -27.9180   -0.9374   31.1824 C   0  0  0  0  0  0  0  0  0  0  0  0
  -26.5423   -0.9399   31.2606 C   0  0  0  0  0  0  0  0  0  0  0  0
  -25.7832   -0.8935   30.1201 C   0  0  0  0  0  0  0  0  0  0  0  0
  -25.2204    0.6866   27.3939 C   0  0  0  0  0  0  0  0  0  0  0  0
  -25.3030    1.0787   26.0731 C   0  0  0  0  0  0  0  0  0  0  0  0
  -24.7297    2.3383   25.6867 C   0  0  0  0  0  0  0  0  0  0  0  0
  -24.0919    3.1193   26.6980 C   0  0  0  0  0  0  0  0  0  0  0  0
  -24.4906    1.5258   28.2612 C   0  0  0  0  0  0  0  0  0  0  0  0
  -23.9466    2.6799   27.9003 C   0  0  0  0  0  0  0  0  0  0  0  0
  -30.0403   -0.8504   30.0239 C   0  0  0  0  0  0  0  0  0  0  0  0
  -30.6681   -1.7723   30.2814 O   0  0  0  0  0  0  0  0  0  0  0  0
  -30.6365    0.3570   29.9965 O   0  0  0  0  0  0  0  0  0  0  0  0
  -26.0145    0.2480   24.8635 Cl  0  0  0  0  0  0  0  0  0  0  0  0
  -31.4526    0.7761   29.3324 C   0  0  0  0  0  0  0  0  0  0  0  0
  -32.5485    0.5443   29.0414 C   0  0  0  0  0  0  0  0  0  0  0  0
  -30.9442    2.0131   28.4446 C   0  0  0  0  0  0  0  0  0  0  0  0
  -31.6790    2.6066   27.4519 C   0  0  0  0  0  0  0  0  0  0  0  0
  -33.4838    1.0690   28.0921 C   0  0  0  0  0  0  0  0  0  0  0  0
  -33.0042    2.1761   27.3640 C   0  0  0  0  0  0  0  0  0  0  0  0
  -33.9095    2.8119   26.3831 C   0  0  0  0  0  0  0  0  0  0  0  0
  -34.4657    3.8176   26.6553 O   0  0  0  0  0  0  0  0  0  0  0  0
  -33.9061    2.2089   25.2289 O   0  0  0  0  0  0  0  0  0  0  0  0
  -35.0238    0.5170   27.9188 Cl  0  0  0  0  0  0  0  0  0  0  0  0
  -29.4981    2.4891   28.6958 C   0  0  0  0  0  0  0  0  0  0  0  0
  -28.6853    2.2297   27.8130 O   0  0  0  0  0  0  0  0  0  0  0  0
  -29.2419    3.1151   29.8526 N   0  0  0  0  0  0  0  0  0  0  0  0
  -27.9092    3.5519   30.2255 C   0  0  0  0  0  0  0  0  0  0  0  0
  -27.2707    4.2714   29.6406 C   0  0  0  0  0  0  0  0  0  0  0  0
  -27.1400    5.5046   29.9579 C   0  0  0  0  0  0  0  0  0  0  0  0
  -26.7514    5.8914   31.2961 C   0  0  0  0  0  0  0  0  0  0  0  0
  -27.4856    2.7786   31.4874 C   0  0  0  0  0  0  0  0  0  0  0  0
  3  4  1  0
  4  8  1  0
  2 14  1  0
 14 15  2  0
 14 16  1  0
  9 17  1  0
 16 18  1  0
 23 24  1  0
 24 25  2  0
 24 26  1  0
 22 27  1  0
 20 28  1  0
 28 29  2  0
 28 30  1  0
 30 31  1  0
 31 32  2  3
 32 33  1  0
 33 34  2  0
 31 35  1  0
 18 19  2  0
 19 22  1  0
 22 23  2  0
 23 21  1  0
 21 20  2  0
 20 18  1  0
  1  2  2  0
  2  5  1  0
  5  6  2  0
  6  7  1  0
  7  3  2  0
  3  1  1  0
  8  9  2  0
  9 10  1  0
 10 11  2  0
 11 13  1  0
 13 12  2  0
 12  8  1  0
M  END

$$$$
