No_3811-gen_results/8p0m/2024-11-26-14-13-15/
     RDKit          3D

 35 37  0  0  0  0  0  0  0  0999 V2000
  -28.0162   -0.8135   28.8779 C   0  0  0  0  0  0  0  0  0  0  0  0
  -27.0636   -0.1190   28.6079 C   0  0  0  0  0  0  0  0  0  0  0  0
  -26.9716    0.7139   27.5060 C   0  0  0  0  0  0  0  0  0  0  0  0
  -25.8205    1.4909   27.1160 C   0  0  0  0  0  0  0  0  0  0  0  0
  -24.6562    1.4242   27.9180 C   0  0  0  0  0  0  0  0  0  0  0  0
  -24.6847    0.5901   29.0659 C   0  0  0  0  0  0  0  0  0  0  0  0
  -25.8099   -0.1266   29.3338 C   0  0  0  0  0  0  0  0  0  0  0  0
  -28.6943   -0.4734   30.1587 C   0  0  0  0  0  0  0  0  0  0  0  0
  -28.7309    0.5070   30.6385 O   0  0  0  0  0  0  0  0  0  0  0  0
  -29.2718   -1.6020   30.7621 O   0  0  0  0  0  0  0  0  0  0  0  0
  -23.4661    2.1973   27.6000 C   0  0  0  0  0  0  0  0  0  0  0  0
  -23.4787    2.9440   26.7309 F   0  0  0  0  0  0  0  0  0  0  0  0
  -22.3641    1.2967   27.3177 F   0  0  0  0  0  0  0  0  0  0  0  0
  -23.0035    2.8390   28.7474 F   0  0  0  0  0  0  0  0  0  0  0  0
  -28.2932    0.8453   26.4529 Cl  0  0  0  0  0  0  0  0  0  0  0  0
  -25.7027   -0.9956   30.5651 C   0  0  0  0  0  0  0  0  0  0  0  0
  -24.6393   -1.1676   31.1382 C   0  0  0  0  0  0  0  0  0  0  0  0
  -23.7971   -0.1425   31.7434 C   0  0  0  0  0  0  0  0  0  0  0  0
  -30.4797   -1.5731   31.0930 C   0  0  0  0  0  0  0  0  0  0  0  0
  -31.2869   -0.9128   31.1572 C   0  0  0  0  0  0  0  0  0  0  0  0
  -30.8381   -3.0768   31.5405 C   0  0  0  0  0  0  0  0  0  0  0  0
  -32.6802   -1.0747   31.5327 C   0  0  0  0  0  0  0  0  0  0  0  0
  -32.1701   -3.3174   31.9341 C   0  0  0  0  0  0  0  0  0  0  0  0
  -32.4887   -4.6714   32.3464 C   0  0  0  0  0  0  0  0  0  0  0  0
  -33.0117   -2.2903   31.9316 C   0  0  0  0  0  0  0  0  0  0  0  0
  -33.0811   -5.3919   31.6099 C   0  0  0  0  0  0  0  0  0  0  0  0
  -33.4085   -4.9797   30.2904 C   0  0  0  0  0  0  0  0  0  0  0  0
  -32.9102   -5.3314   29.3291 C   0  0  0  0  0  0  0  0  0  0  0  0
  -33.0708   -4.7723   27.9688 C   0  0  0  0  0  0  0  0  0  0  0  0
  -32.2123   -5.0702   26.8347 C   0  0  0  0  0  0  0  0  0  0  0  0
  -31.1354   -5.9898   27.0579 C   0  0  0  0  0  0  0  0  0  0  0  0
  -30.8801   -6.4866   28.2963 C   0  0  0  0  0  0  0  0  0  0  0  0
  -31.6125   -6.1281   29.3510 C   0  0  0  0  0  0  0  0  0  0  0  0
  -34.7121   -4.2352   30.1563 C   0  0  0  0  0  0  0  0  0  0  0  0
  -35.4736   -3.9564   30.9374 N   0  0  0  0  0  0  0  0  0  0  0  0
  1  8  1  0
  8  9  2  0
  8 10  1  0
  5 11  1  0
 11 12  1  0
 11 13  1  0
 11 14  1  0
  3 15  1  0
  7 16  1  0
 16 17  2  3
 17 18  1  0
 10 19  1  0
 23 24  1  0
 24 26  2  3
 26 27  1  0
 27 28  1  0
 27 34  1  0
 34 35  1  0
  1  2  1  0
 19 20  2  0
 20 22  1  0
 22 25  2  0
 25 23  1  0
 23 21  2  0
 21 19  1  0
  2  3  2  0
  3  4  1  0
  4  5  2  0
  5  6  1  0
  6  7  2  0
  7  2  1  0
 28 29  2  0
 29 30  1  0
 30 31  2  0
 31 32  1  0
 32 33  2  0
 33 28  1  0
M  END

$$$$
