No_3126-gen_results/8p0m/2024-11-26-14-13-15/
     RDKit          3D

 18 19  0  0  0  0  0  0  0  0999 V2000
  -28.0162   -0.8135   28.8779 C   0  0  0  0  0  0  0  0  0  0  0  0
  -27.0636   -0.1189   28.6079 C   0  0  0  0  0  0  0  0  0  0  0  0
  -26.9716    0.7139   27.5060 C   0  0  0  0  0  0  0  0  0  0  0  0
  -28.1053    0.7744   26.6421 C   0  0  0  0  0  0  0  0  0  0  0  0
  -29.2041    0.1179   27.0477 C   0  0  0  0  0  0  0  0  0  0  0  0
  -29.2127   -0.6088   28.1281 C   0  0  0  0  0  0  0  0  0  0  0  0
  -30.3709    0.2326   26.1381 C   0  0  0  0  0  0  0  0  0  0  0  0
  -30.3086    0.1051   24.9412 O   0  0  0  0  0  0  0  0  0  0  0  0
  -31.5786    0.2663   26.6747 O   0  0  0  0  0  0  0  0  0  0  0  0
  -25.6670    1.4055   27.1237 C   0  0  0  0  0  0  0  0  0  0  0  0
  -25.1573    2.3543   28.1077 C   0  0  0  0  0  0  0  0  0  0  0  0
  -25.6055    2.7486   28.9356 C   0  0  0  0  0  0  0  0  0  0  0  0
  -23.7732    2.8128   27.4916 C   0  0  0  0  0  0  0  0  0  0  0  0
  -24.9159    0.8054   26.2370 C   0  0  0  0  0  0  0  0  0  0  0  0
  -23.0296    2.2994   26.4618 C   0  0  0  0  0  0  0  0  0  0  0  0
  -23.6894    1.2777   25.7703 C   0  0  0  0  0  0  0  0  0  0  0  0
  -26.3244    4.1217   29.0405 C   0  0  0  0  0  0  0  0  0  0  0  0
  -26.9943    4.5877   30.1645 C   0  0  0  0  0  0  0  0  0  0  0  0
  5  7  1  0
  7  8  2  0
  7  9  1  0
  3 10  1  0
 11 12  1  0
 12 17  2  3
 17 18  1  0
 10 11  2  0
 11 13  1  0
 13 15  2  0
 15 16  1  0
 16 14  2  0
 14 10  1  0
  1  2  2  0
  2  3  1  0
  3  4  2  0
  4  5  1  0
  5  6  2  0
  6  1  1  0
M  END

$$$$
