No_339-gen_results/8p0m/2024-11-26-14-13-15/
     RDKit          3D

 25 26  0  0  0  0  0  0  0  0999 V2000
  -28.0162   -0.8135   28.8779 C   0  0  0  0  0  0  0  0  0  0  0  0
  -28.4690   -0.7850   29.8287 C   0  0  0  0  0  0  0  0  0  0  0  0
  -28.1960    0.3478   28.0550 C   0  0  0  0  0  0  0  0  0  0  0  0
  -27.4421    0.5100   26.7946 C   0  0  0  0  0  0  0  0  0  0  0  0
  -26.4394    0.8329   26.6142 C   0  0  0  0  0  0  0  0  0  0  0  0
  -25.2140    0.6624   26.7020 C   0  0  0  0  0  0  0  0  0  0  0  0
  -24.3985    0.0427   27.6996 C   0  0  0  0  0  0  0  0  0  0  0  0
  -23.2270    0.5345   28.2267 C   0  0  0  0  0  0  0  0  0  0  0  0
  -22.5415   -0.1250   29.2949 C   0  0  0  0  0  0  0  0  0  0  0  0
  -28.2122   -1.8993   30.9267 C   0  0  0  0  0  0  0  0  0  0  0  0
  -23.0626   -1.2933   29.7963 C   0  0  0  0  0  0  0  0  0  0  0  0
  -27.3366   -2.8715   30.4772 C   0  0  0  0  0  0  0  0  0  0  0  0
  -26.5972   -2.7182   29.3614 C   0  0  0  0  0  0  0  0  0  0  0  0
  -26.7949   -1.5835   28.5541 C   0  0  0  0  0  0  0  0  0  0  0  0
  -24.1287   -1.9016   29.2778 C   0  0  0  0  0  0  0  0  0  0  0  0
  -24.8533   -1.1997   28.2354 C   0  0  0  0  0  0  0  0  0  0  0  0
  -24.9648   -1.9475   27.1556 O   0  0  0  0  0  0  0  0  0  0  0  0
  -26.7431   -1.6383   27.2578 F   0  0  0  0  0  0  0  0  0  0  0  0
  -24.1543   -2.6954   26.7188 C   0  0  0  0  0  0  0  0  0  0  0  0
  -28.4489    0.1252   25.7756 C   0  0  0  0  0  0  0  0  0  0  0  0
  -29.1312    1.2122   28.3395 O   0  0  0  0  0  0  0  0  0  0  0  0
  -26.4951    2.2487   25.7808 C   0  0  0  0  0  0  0  0  0  0  0  0
  -24.4749    0.4996   25.4310 C   0  0  0  0  0  0  0  0  0  0  0  0
  -22.6232    1.7981   27.7635 C   0  0  0  0  0  0  0  0  0  0  0  0
  -29.5867    0.3665   25.8232 O   0  0  0  0  0  0  0  0  0  0  0  0
  1  3  1  0
  3  4  1  0
  4  5  1  0
  5  6  1  0
  6  7  1  0
 16 17  1  0
 14 18  1  0
 17 19  1  0
  4 20  1  0
  3 21  2  0
  5 22  1  0
  6 23  1  0
  8 24  1  0
 20 25  2  0
  7  8  2  0
  8  9  1  0
  9 11  2  0
 11 15  1  0
 15 16  2  0
 16  7  1  0
  1  2  2  0
  2 10  1  0
 10 12  2  0
 12 13  1  0
 13 14  2  0
 14  1  1  0
M  END

$$$$
