No_3927-gen_results/8p0m/2024-11-26-14-13-15/
     RDKit          3D

 28 29  0  0  0  0  0  0  0  0999 V2000
  -28.0162   -0.8135   28.8779 C   0  0  0  0  0  0  0  0  0  0  0  0
  -27.0636   -0.1189   28.6079 C   0  0  0  0  0  0  0  0  0  0  0  0
  -26.9716    0.7139   27.5060 C   0  0  0  0  0  0  0  0  0  0  0  0
  -28.1053    0.7744   26.6421 C   0  0  0  0  0  0  0  0  0  0  0  0
  -29.2008    0.1044   27.0527 C   0  0  0  0  0  0  0  0  0  0  0  0
  -29.2096   -0.6029   28.1853 C   0  0  0  0  0  0  0  0  0  0  0  0
  -30.2994    0.2279   26.2571 O   0  0  0  0  0  0  0  0  0  0  0  0
  -25.7189   -0.2206   29.4011 C   0  0  0  0  0  0  0  0  0  0  0  0
  -24.7913   -0.2236   28.7226 F   0  0  0  0  0  0  0  0  0  0  0  0
  -25.6012    0.8359   30.2653 F   0  0  0  0  0  0  0  0  0  0  0  0
  -25.7788   -1.2811   30.2357 F   0  0  0  0  0  0  0  0  0  0  0  0
  -28.0036    1.5747   25.5241 N   0  0  0  0  0  0  0  0  0  0  0  0
  -31.0085   -0.6765   26.0666 C   0  0  0  0  0  0  0  0  0  0  0  0
  -31.5107   -0.7893   24.6842 C   0  0  0  0  0  0  0  0  0  0  0  0
  -32.2774   -0.7153   26.8984 C   0  0  0  0  0  0  0  0  0  0  0  0
  -32.3541   -0.2662   27.9522 O   0  0  0  0  0  0  0  0  0  0  0  0
  -33.3612   -1.4202   26.4306 N   0  0  0  0  0  0  0  0  0  0  0  0
  -33.6131   -1.7906   25.1330 C   0  0  0  0  0  0  0  0  0  0  0  0
  -30.3372   -0.7426   23.6839 C   0  0  0  0  0  0  0  0  0  0  0  0
  -32.6060   -0.7201   23.9591 C   0  0  0  0  0  0  0  0  0  0  0  0
  -34.5001   -1.7060   27.3001 C   0  0  0  0  0  0  0  0  0  0  0  0
  -28.0705    2.8766   25.5730 C   0  0  0  0  0  0  0  0  0  0  0  0
  -27.6413    0.9399   24.3323 C   0  0  0  0  0  0  0  0  0  0  0  0
  -27.5440    3.6508   26.5279 C   0  0  0  0  0  0  0  0  0  0  0  0
  -28.0506    4.4609   27.4806 C   0  0  0  0  0  0  0  0  0  0  0  0
  -27.3999    5.0702   28.5263 C   0  0  0  0  0  0  0  0  0  0  0  0
  -25.9613    4.9183   28.5842 C   0  0  0  0  0  0  0  0  0  0  0  0
  -25.3009    4.1483   27.6227 C   0  0  0  0  0  0  0  0  0  0  0  0
  5  7  1  0
  2  8  1  0
  8  9  1  0
  8 10  1  0
  8 11  1  0
  4 12  1  0
  7 13  1  0
 13 14  1  0
 13 15  1  0
 15 16  2  0
 15 17  1  0
 17 18  1  0
 14 19  1  0
 14 20  1  0
 18 20  1  0
 17 21  1  0
 12 22  1  0
 12 23  1  0
 22 24  2  3
 24 25  1  0
 25 26  2  3
 26 27  1  0
 27 28  2  0
  1  2  2  0
  2  3  1  0
  3  4  2  0
  4  5  1  0
  5  6  2  0
  6  1  1  0
M  END

$$$$
