No_3221-gen_results/8p0m/2024-11-26-14-13-15/
     RDKit          3D

 19 21  0  0  0  0  0  0  0  0999 V2000
  -28.0162   -0.8135   28.8779 C   0  0  0  0  0  0  0  0  0  0  0  0
  -28.4690   -0.7850   29.8287 C   0  0  0  0  0  0  0  0  0  0  0  0
  -26.5042   -0.7777   28.8766 C   0  0  0  0  0  0  0  0  0  0  0  0
  -25.7623   -0.0022   27.9705 C   0  0  0  0  0  0  0  0  0  0  0  0
  -26.0931    0.6131   27.0948 C   0  0  0  0  0  0  0  0  0  0  0  0
  -27.5553    0.5847   26.8055 C   0  0  0  0  0  0  0  0  0  0  0  0
  -28.3411    0.0437   27.7274 C   0  0  0  0  0  0  0  0  0  0  0  0
  -29.6462   -0.4570   30.1430 N   0  0  0  0  0  0  0  0  0  0  0  0
  -28.0387   -1.7146   30.8644 O   0  0  0  0  0  0  0  0  0  0  0  0
  -30.3127    0.5157   29.3634 C   0  0  0  0  0  0  0  0  0  0  0  0
  -29.7791    0.5969   28.0219 C   0  0  0  0  0  0  0  0  0  0  0  0
  -30.4573    1.0616   26.8807 C   0  0  0  0  0  0  0  0  0  0  0  0
  -30.5279    2.3975   26.8962 C   0  0  0  0  0  0  0  0  0  0  0  0
  -31.7963    0.4177   26.7196 C   0  0  0  0  0  0  0  0  0  0  0  0
  -30.4581   -0.6962   31.4673 C   0  0  0  0  0  0  0  0  0  0  0  0
  -32.3975    0.7910   25.7041 C   0  0  0  0  0  0  0  0  0  0  0  0
  -31.1810    2.9718   25.6182 C   0  0  0  0  0  0  0  0  0  0  0  0
  -32.5450    2.3195   25.4173 C   0  0  0  0  0  0  0  0  0  0  0  0
  -31.6218   -1.0692   26.7699 O   0  0  0  0  0  0  0  0  0  0  0  0
  1  2  1  0
  2  8  1  0
  2  9  2  0
  8 10  1  0
  7 11  1  0
 10 11  1  0
 11 12  1  0
  8 15  1  0
 14 19  1  0
 12 13  2  0
 13 17  1  0
 17 18  2  0
 18 16  1  0
 16 14  2  0
 14 12  1  0
  1  3  2  0
  3  4  1  0
  4  5  2  0
  5  6  1  0
  6  7  2  0
  7  1  1  0
M  END

$$$$
