No_3426-gen_results/8p0m/2024-11-26-14-13-15/
     RDKit          3D

 15 16  0  0  0  0  0  0  0  0999 V2000
  -28.0162   -0.8135   28.8779 C   0  0  0  0  0  0  0  0  0  0  0  0
  -28.4690   -0.7850   29.8287 C   0  0  0  0  0  0  0  0  0  0  0  0
  -26.5042   -0.7777   28.8766 C   0  0  0  0  0  0  0  0  0  0  0  0
  -25.8103   -0.8531   30.1028 C   0  0  0  0  0  0  0  0  0  0  0  0
  -27.9906   -0.8916   31.2257 C   0  0  0  0  0  0  0  0  0  0  0  0
  -26.6042   -0.8676   31.2652 C   0  0  0  0  0  0  0  0  0  0  0  0
  -30.0739   -0.8360   29.8615 C   0  0  0  0  0  0  0  0  0  0  0  0
  -30.7170    0.0956   30.4784 N   0  0  0  0  0  0  0  0  0  0  0  0
  -31.4241    0.8594   30.2262 C   0  0  0  0  0  0  0  0  0  0  0  0
  -31.8792    1.8171   30.3666 C   0  0  0  0  0  0  0  0  0  0  0  0
  -32.1660    0.2902   28.7981 C   0  0  0  0  0  0  0  0  0  0  0  0
  -31.3297    2.6029   31.6461 C   0  0  0  0  0  0  0  0  0  0  0  0
  -31.6022    3.8912   32.0728 C   0  0  0  0  0  0  0  0  0  0  0  0
  -31.7276   -0.8221   28.2600 C   0  0  0  0  0  0  0  0  0  0  0  0
  -30.3244   -0.8766   28.4372 C   0  0  0  0  0  0  0  0  0  0  0  0
  2  7  1  0
  7  8  1  0
  8  9  1  0
  9 10  2  3
  9 11  1  0
 10 12  1  0
 12 13  2  0
 11 14  1  0
  7 15  1  0
 14 15  1  0
  1  2  2  0
  2  5  1  0
  5  6  2  0
  6  4  1  0
  4  3  2  0
  3  1  1  0
M  END

$$$$
