No_3252-gen_results/8p0m/2024-11-26-14-13-15/
     RDKit          3D

 18 20  0  0  0  0  0  0  0  0999 V2000
  -28.0162   -0.8135   28.8779 C   0  0  0  0  0  0  0  0  0  0  0  0
  -27.0636   -0.1189   28.6079 C   0  0  0  0  0  0  0  0  0  0  0  0
  -25.7923   -0.4302   29.0761 C   0  0  0  0  0  0  0  0  0  0  0  0
  -24.5456    0.3494   28.8225 C   0  0  0  0  0  0  0  0  0  0  0  0
  -24.6586    1.4196   27.8878 C   0  0  0  0  0  0  0  0  0  0  0  0
  -25.9471    1.6811   27.3792 C   0  0  0  0  0  0  0  0  0  0  0  0
  -27.1795    1.0029   27.7610 C   0  0  0  0  0  0  0  0  0  0  0  0
  -29.2216   -0.0607   29.3364 C   0  0  0  0  0  0  0  0  0  0  0  0
  -29.6467   -0.2631   30.4462 C   0  0  0  0  0  0  0  0  0  0  0  0
  -30.7856    0.5101   30.9250 C   0  0  0  0  0  0  0  0  0  0  0  0
  -31.4333    1.3118   30.0166 C   0  0  0  0  0  0  0  0  0  0  0  0
  -30.9467    1.4280   28.7635 C   0  0  0  0  0  0  0  0  0  0  0  0
  -29.8234    0.7519   28.3701 C   0  0  0  0  0  0  0  0  0  0  0  0
  -23.4897    2.1571   27.5672 C   0  0  0  0  0  0  0  0  0  0  0  0
  -23.5840    3.4156   26.6256 Cl  0  0  0  0  0  0  0  0  0  0  0  0
  -22.1651    1.6714   27.9123 C   0  0  0  0  0  0  0  0  0  0  0  0
  -22.0337    0.6286   28.8006 C   0  0  0  0  0  0  0  0  0  0  0  0
  -23.2246   -0.1086   29.2083 C   0  0  0  0  0  0  0  0  0  0  0  0
  1  2  1  0
  1  8  1  0
 14 15  1  0
  2  3  2  0
  3  4  1  0
  5  6  1  0
  6  7  2  0
  7  2  1  0
  8  9  2  0
  9 10  1  0
 10 11  2  0
 11 12  1  0
 12 13  2  0
 13  8  1  0
  4  5  2  0
  5 14  1  0
 14 16  2  0
 16 17  1  0
 17 18  2  0
 18  4  1  0
M  END

$$$$
