No_3499-gen_results/8p0m/2024-11-26-14-13-15/
     RDKit          3D

 12 12  0  0  0  0  0  0  0  0999 V2000
  -28.0162   -0.8135   28.8779 C   0  0  0  0  0  0  0  0  0  0  0  0
  -27.0636   -0.1189   28.6079 C   0  0  0  0  0  0  0  0  0  0  0  0
  -25.7923   -0.4302   29.0761 C   0  0  0  0  0  0  0  0  0  0  0  0
  -25.5756   -1.5654   29.9363 C   0  0  0  0  0  0  0  0  0  0  0  0
  -26.7354   -2.3004   30.2173 C   0  0  0  0  0  0  0  0  0  0  0  0
  -27.9184   -1.9537   29.7629 C   0  0  0  0  0  0  0  0  0  0  0  0
  -29.0001   -2.7012   30.1151 O   0  0  0  0  0  0  0  0  0  0  0  0
  -24.3499    0.4889   28.7497 Cl  0  0  0  0  0  0  0  0  0  0  0  0
  -29.3705   -2.8230   31.4465 C   0  0  0  0  0  0  0  0  0  0  0  0
  -30.7365   -2.7004   31.6213 C   0  0  0  0  0  0  0  0  0  0  0  0
  -31.1411   -2.8379   32.6876 O   0  0  0  0  0  0  0  0  0  0  0  0
  -31.3090   -2.0354   30.7493 O   0  0  0  0  0  0  0  0  0  0  0  0
  6  7  1  0
  3  8  1  0
  7  9  1  0
  9 10  1  0
 10 11  1  0
 10 12  2  0
  1  2  2  0
  2  3  1  0
  3  4  2  0
  4  5  1  0
  5  6  2  0
  6  1  1  0
M  END

$$$$
