No_3531-gen_results/8p0m/2024-11-26-14-13-15/
     RDKit          3D

 24 27  0  0  0  0  0  0  0  0999 V2000
  -28.1493   -0.8198   28.9079 Cl  0  0  0  0  0  0  0  0  0  0  0  0
  -26.9116   -0.0797   28.9452 C   0  0  0  0  0  0  0  0  0  0  0  0
  -25.9665   -0.2123   29.6235 C   0  0  0  0  0  0  0  0  0  0  0  0
  -24.7040    0.5534   29.6218 C   0  0  0  0  0  0  0  0  0  0  0  0
  -24.6011    1.5437   28.6212 C   0  0  0  0  0  0  0  0  0  0  0  0
  -25.6671    1.7162   27.8026 C   0  0  0  0  0  0  0  0  0  0  0  0
  -26.7607    0.9618   27.8837 C   0  0  0  0  0  0  0  0  0  0  0  0
  -23.5246    2.2838   28.6050 F   0  0  0  0  0  0  0  0  0  0  0  0
  -27.8460    1.1988   26.8864 C   0  0  0  0  0  0  0  0  0  0  0  0
  -27.5746    1.0224   25.6092 C   0  0  0  0  0  0  0  0  0  0  0  0
  -28.6348    1.0309   24.6268 C   0  0  0  0  0  0  0  0  0  0  0  0
  -29.9256    1.2786   25.0120 C   0  0  0  0  0  0  0  0  0  0  0  0
  -30.1733    1.4965   26.3733 C   0  0  0  0  0  0  0  0  0  0  0  0
  -29.1622    1.3866   27.3317 C   0  0  0  0  0  0  0  0  0  0  0  0
  -26.3541    0.7287   25.1249 F   0  0  0  0  0  0  0  0  0  0  0  0
  -31.5483    1.8094   26.8034 C   0  0  0  0  0  0  0  0  0  0  0  0
  -32.5206    1.7609   26.2339 O   0  0  0  0  0  0  0  0  0  0  0  0
  -31.6459    2.2088   28.2031 N   0  0  0  0  0  0  0  0  0  0  0  0
  -32.9074    2.5332   28.8066 C   0  0  0  0  0  0  0  0  0  0  0  0
  -33.0921    2.7393   29.7803 C   0  0  0  0  0  0  0  0  0  0  0  0
  -31.9094    2.8141   30.7477 C   0  0  0  0  0  0  0  0  0  0  0  0
  -30.6341    2.5185   30.2523 C   0  0  0  0  0  0  0  0  0  0  0  0
  -30.5363    2.1987   28.9837 C   0  0  0  0  0  0  0  0  0  0  0  0
  -29.3475    1.8485   28.4795 N   0  0  0  0  0  0  0  0  0  0  0  0
  1  2  1  0
  5  8  1  0
  7  9  1  0
 10 15  1  0
 13 16  1  0
 16 17  2  0
 16 18  1  0
 18 19  1  0
 20 21  1  0
 18 23  1  0
 22 23  1  0
 14 24  1  0
 24 23  1  0
 19 20  1  0
 21 22  1  0
  2  3  2  0
  3  4  1  0
  4  5  2  0
  5  6  1  0
  6  7  2  0
  7  2  1  0
  9 10  2  0
 10 11  1  0
 11 12  2  0
 12 13  1  0
 13 14  2  0
 14  9  1  0
M  END

$$$$
