No_3199-gen_results/8p0m/2024-11-26-14-13-15/
     RDKit          3D

 16 17  0  0  0  0  0  0  0  0999 V2000
  -28.0162   -0.8135   28.8779 C   0  0  0  0  0  0  0  0  0  0  0  0
  -27.0636   -0.1189   28.6079 C   0  0  0  0  0  0  0  0  0  0  0  0
  -26.9716    0.7139   27.5060 C   0  0  0  0  0  0  0  0  0  0  0  0
  -28.1053    0.7744   26.6421 C   0  0  0  0  0  0  0  0  0  0  0  0
  -29.2008    0.1044   27.0527 C   0  0  0  0  0  0  0  0  0  0  0  0
  -29.2096   -0.6029   28.1853 C   0  0  0  0  0  0  0  0  0  0  0  0
  -30.3749    0.2232   26.1670 C   0  0  0  0  0  0  0  0  0  0  0  0
  -30.9604    1.2364   26.1300 O   0  0  0  0  0  0  0  0  0  0  0  0
  -30.5112   -0.7633   25.2235 O   0  0  0  0  0  0  0  0  0  0  0  0
  -25.3757   -0.2416   29.6482 Br  0  0  0  0  0  0  0  0  0  0  0  0
  -25.6389    1.4072   27.1234 C   0  0  0  0  0  0  0  0  0  0  0  0
  -25.6305    2.6502   27.1284 C   0  0  0  0  0  0  0  0  0  0  0  0
  -24.3955    3.3933   26.7845 C   0  0  0  0  0  0  0  0  0  0  0  0
  -23.2630    2.6918   26.4076 C   0  0  0  0  0  0  0  0  0  0  0  0
  -23.3019    1.2942   26.5448 C   0  0  0  0  0  0  0  0  0  0  0  0
  -24.4912    0.6523   26.8536 C   0  0  0  0  0  0  0  0  0  0  0  0
  5  7  1  0
  7  8  2  0
  7  9  1  0
  2 10  1  0
  3 11  1  0
 11 12  2  0
 12 13  1  0
 13 14  2  0
 14 15  1  0
 15 16  2  0
 16 11  1  0
  1  2  2  0
  2  3  1  0
  3  4  2  0
  4  5  1  0
  5  6  2  0
  6  1  1  0
M  END

$$$$
