No_3787-gen_results/8p0m/2024-11-26-14-13-15/
     RDKit          3D

 23 26  0  0  0  0  0  0  0  0999 V2000
  -28.0544   -1.0498   28.7246 N   0  0  0  0  0  0  0  0  0  0  0  0
  -27.7460   -0.0733   29.0098 C   0  0  0  0  0  0  0  0  0  0  0  0
  -27.1741    0.7325   28.8254 C   0  0  0  0  0  0  0  0  0  0  0  0
  -26.9592    2.0624   29.5303 C   0  0  0  0  0  0  0  0  0  0  0  0
  -27.5475    2.0936   30.7631 C   0  0  0  0  0  0  0  0  0  0  0  0
  -27.4429    3.2249   31.6156 C   0  0  0  0  0  0  0  0  0  0  0  0
  -28.4171    0.0389   30.5235 C   0  0  0  0  0  0  0  0  0  0  0  0
  -28.2335    1.1719   31.2251 C   0  0  0  0  0  0  0  0  0  0  0  0
  -26.5054    4.1765   31.1617 C   0  0  0  0  0  0  0  0  0  0  0  0
  -25.9316    4.0881   29.8497 C   0  0  0  0  0  0  0  0  0  0  0  0
  -26.0544    3.0292   29.1297 C   0  0  0  0  0  0  0  0  0  0  0  0
  -26.3927    0.7794   27.4495 C   0  0  0  0  0  0  0  0  0  0  0  0
  -25.1001    0.2505   27.4435 C   0  0  0  0  0  0  0  0  0  0  0  0
  -27.0231    1.1907   26.3336 C   0  0  0  0  0  0  0  0  0  0  0  0
  -26.5089    0.9621   25.1243 C   0  0  0  0  0  0  0  0  0  0  0  0
  -24.4285    0.2094   26.2365 C   0  0  0  0  0  0  0  0  0  0  0  0
  -25.1419    0.5112   25.0362 C   0  0  0  0  0  0  0  0  0  0  0  0
  -24.3112   -0.1330   28.6032 C   0  0  0  0  0  0  0  0  0  0  0  0
  -24.4549   -1.3853   29.2307 C   0  0  0  0  0  0  0  0  0  0  0  0
  -23.7189   -1.7134   30.3058 C   0  0  0  0  0  0  0  0  0  0  0  0
  -22.9001   -0.8074   30.9810 C   0  0  0  0  0  0  0  0  0  0  0  0
  -23.4229    0.8462   29.1322 C   0  0  0  0  0  0  0  0  0  0  0  0
  -22.7324    0.4882   30.3523 C   0  0  0  0  0  0  0  0  0  0  0  0
  1  2  1  0
  3 12  1  0
 13 18  1  0
  2  3  2  0
  3  4  1  0
  5  8  1  0
  8  7  2  0
  7  2  1  0
 18 19  2  0
 19 20  1  0
 20 21  2  0
 21 23  1  0
 23 22  2  0
 22 18  1  0
  4  5  2  0
  5  6  1  0
  6  9  2  0
  9 10  1  0
 10 11  2  0
 11  4  1  0
 12 13  2  0
 13 16  1  0
 16 17  2  0
 17 15  1  0
 15 14  2  0
 14 12  1  0
M  END

$$$$
