No_3714-gen_results/8p0m/2024-11-26-14-13-15/
     RDKit          3D

 14 14  0  0  0  0  0  0  0  0999 V2000
  -28.0162   -0.8135   28.8779 C   0  0  0  0  0  0  0  0  0  0  0  0
  -27.0636   -0.1190   28.6079 C   0  0  0  0  0  0  0  0  0  0  0  0
  -27.0010    0.6913   27.4910 C   0  0  0  0  0  0  0  0  0  0  0  0
  -25.8548    1.4825   27.0830 C   0  0  0  0  0  0  0  0  0  0  0  0
  -24.6901    1.4526   27.8807 C   0  0  0  0  0  0  0  0  0  0  0  0
  -24.7379    0.6010   29.0416 C   0  0  0  0  0  0  0  0  0  0  0  0
  -25.8234   -0.1688   29.3887 C   0  0  0  0  0  0  0  0  0  0  0  0
  -28.7300   -0.5298   30.0429 N   0  0  0  0  0  0  0  0  0  0  0  0
  -28.9322    0.3227   30.5381 C   0  0  0  0  0  0  0  0  0  0  0  0
  -29.3038    1.0059   31.2658 C   0  0  0  0  0  0  0  0  0  0  0  0
  -23.5292    2.2517   27.5916 C   0  0  0  0  0  0  0  0  0  0  0  0
  -23.0181    2.7570   28.6086 F   0  0  0  0  0  0  0  0  0  0  0  0
  -23.7216    3.2216   26.6822 F   0  0  0  0  0  0  0  0  0  0  0  0
  -22.5319    1.4541   27.0436 F   0  0  0  0  0  0  0  0  0  0  0  0
  1  2  1  0
  1  8  1  0
  8  9  1  0
  9 10  3  0
  5 11  1  0
 11 12  1  0
 11 13  1  0
 11 14  1  0
  2  3  2  0
  3  4  1  0
  4  5  2  0
  5  6  1  0
  6  7  2  0
  7  2  1  0
M  END

$$$$
