No_3840-gen_results/8p0m/2024-11-26-14-13-15/
     RDKit          3D

 19 19  0  0  0  0  0  0  0  0999 V2000
  -28.0162   -0.8135   28.8779 C   0  0  0  0  0  0  0  0  0  0  0  0
  -27.0636   -0.1190   28.6079 C   0  0  0  0  0  0  0  0  0  0  0  0
  -26.9287    1.1713   29.0083 C   0  0  0  0  0  0  0  0  0  0  0  0
  -25.7702    2.0341   28.6884 C   0  0  0  0  0  0  0  0  0  0  0  0
  -24.7141    1.4431   27.9188 C   0  0  0  0  0  0  0  0  0  0  0  0
  -24.8590    0.0783   27.5836 C   0  0  0  0  0  0  0  0  0  0  0  0
  -25.9647   -0.6606   27.9164 C   0  0  0  0  0  0  0  0  0  0  0  0
  -28.6995   -0.6441   30.0766 N   0  0  0  0  0  0  0  0  0  0  0  0
  -29.8035   -1.3645   30.5061 C   0  0  0  0  0  0  0  0  0  0  0  0
  -30.3751   -2.1790   29.7448 C   0  0  0  0  0  0  0  0  0  0  0  0
  -31.3013   -1.8341   29.0537 O   0  0  0  0  0  0  0  0  0  0  0  0
  -23.5331    2.1744   27.5692 C   0  0  0  0  0  0  0  0  0  0  0  0
  -22.4912    2.0267   27.7505 Cl  0  0  0  0  0  0  0  0  0  0  0  0
  -24.0512    3.1789   26.4563 C   0  0  0  0  0  0  0  0  0  0  0  0
  -30.0949   -3.4684   29.8250 O   0  0  0  0  0  0  0  0  0  0  0  0
  -30.1165   -1.1621   31.7890 O   0  0  0  0  0  0  0  0  0  0  0  0
  -25.7117    3.4351   29.0270 C   0  0  0  0  0  0  0  0  0  0  0  0
  -25.3561    3.7230   30.1271 O   0  0  0  0  0  0  0  0  0  0  0  0
  -26.2743    4.6283   27.9372 Cl  0  0  0  0  0  0  0  0  0  0  0  0
  1  2  1  0
  1  8  1  0
  8  9  1  0
  9 10  1  0
 10 11  1  0
  5 12  1  0
 12 13  1  0
 12 14  1  0
 10 15  2  0
  9 16  2  0
  4 17  1  0
 17 18  2  0
 17 19  1  0
  2  3  2  0
  3  4  1  0
  4  5  2  0
  5  6  1  0
  6  7  2  0
  7  2  1  0
M  END

$$$$
