No_3299-gen_results/8p0m/2024-11-26-14-13-15/
     RDKit          3D

 30 32  0  0  0  0  0  0  0  0999 V2000
  -28.0162   -0.8135   28.8779 C   0  0  0  0  0  0  0  0  0  0  0  0
  -27.0636   -0.1189   28.6079 C   0  0  0  0  0  0  0  0  0  0  0  0
  -25.7923   -0.4302   29.0761 C   0  0  0  0  0  0  0  0  0  0  0  0
  -24.5456    0.3494   28.8225 C   0  0  0  0  0  0  0  0  0  0  0  0
  -23.2409    0.0217   29.3323 C   0  0  0  0  0  0  0  0  0  0  0  0
  -27.8820   -1.8995   29.8633 C   0  0  0  0  0  0  0  0  0  0  0  0
  -26.6706   -2.3272   30.3212 C   0  0  0  0  0  0  0  0  0  0  0  0
  -25.5433   -1.5852   29.9316 C   0  0  0  0  0  0  0  0  0  0  0  0
  -22.1918    0.8302   29.0004 C   0  0  0  0  0  0  0  0  0  0  0  0
  -22.1472    1.7783   28.0287 C   0  0  0  0  0  0  0  0  0  0  0  0
  -24.5322    1.3987   27.8163 C   0  0  0  0  0  0  0  0  0  0  0  0
  -23.3620    2.0694   27.4607 C   0  0  0  0  0  0  0  0  0  0  0  0
  -29.0617   -2.7252   30.3001 C   0  0  0  0  0  0  0  0  0  0  0  0
  -29.2904   -2.7271   31.4994 O   0  0  0  0  0  0  0  0  0  0  0  0
  -29.9044   -3.1395   29.5289 O   0  0  0  0  0  0  0  0  0  0  0  0
  -23.4809    3.0204   26.5026 O   0  0  0  0  0  0  0  0  0  0  0  0
  -24.7850    3.2968   26.0684 C   0  0  0  0  0  0  0  0  0  0  0  0
  -29.2720   -0.5990   28.6291 O   0  0  0  0  0  0  0  0  0  0  0  0
  -29.6029    0.7053   28.2576 C   0  0  0  0  0  0  0  0  0  0  0  0
  -29.7877    0.8565   26.8526 C   0  0  0  0  0  0  0  0  0  0  0  0
  -29.0309    1.5611   26.2724 O   0  0  0  0  0  0  0  0  0  0  0  0
  -30.6519    0.1634   26.2969 O   0  0  0  0  0  0  0  0  0  0  0  0
  -30.8917    1.1738   29.0186 C   0  0  0  0  0  0  0  0  0  0  0  0
  -32.0511    1.2214   28.4874 C   0  0  0  0  0  0  0  0  0  0  0  0
  -32.4821    2.2763   27.8877 C   0  0  0  0  0  0  0  0  0  0  0  0
  -33.8184    2.3549   27.3233 C   0  0  0  0  0  0  0  0  0  0  0  0
  -34.2971    3.5390   26.7825 C   0  0  0  0  0  0  0  0  0  0  0  0
  -33.4002    4.6932   26.6655 C   0  0  0  0  0  0  0  0  0  0  0  0
  -32.0821    4.5900   27.1217 C   0  0  0  0  0  0  0  0  0  0  0  0
  -31.6750    3.4923   27.7318 C   0  0  0  0  0  0  0  0  0  0  0  0
  3  4  1  0
  6 13  1  0
 13 14  2  0
 13 15  1  0
 12 16  1  0
 16 17  1  0
  1 18  1  0
 18 19  1  0
 19 20  1  0
 20 21  2  0
 20 22  1  0
 19 23  1  0
 23 24  1  0
 24 25  1  0
 25 26  2  0
 26 27  1  0
 27 28  2  0
 28 29  1  0
 29 30  2  0
 30 25  1  0
  1  2  2  0
  2  3  1  0
  3  8  2  0
  8  7  1  0
  7  6  2  0
  6  1  1  0
  4  5  2  0
  5  9  1  0
  9 10  2  0
 10 12  1  0
 12 11  2  0
 11  4  1  0
M  END

$$$$
