No_3289-gen_results/8p0m/2024-11-26-14-13-15/
     RDKit          3D

 14 14  0  0  0  0  0  0  0  0999 V2000
  -28.0162   -0.8135   28.8779 C   0  0  0  0  0  0  0  0  0  0  0  0
  -28.4690   -0.7850   29.8287 C   0  0  0  0  0  0  0  0  0  0  0  0
  -28.1960    0.3478   28.0550 C   0  0  0  0  0  0  0  0  0  0  0  0
  -29.0191    1.3501   28.3782 C   0  0  0  0  0  0  0  0  0  0  0  0
  -29.6249    1.2683   29.6012 C   0  0  0  0  0  0  0  0  0  0  0  0
  -29.3821    0.1816   30.4004 C   0  0  0  0  0  0  0  0  0  0  0  0
  -27.4591    0.3787   26.7048 C   0  0  0  0  0  0  0  0  0  0  0  0
  -26.4838   -0.2522   26.6134 F   0  0  0  0  0  0  0  0  0  0  0  0
  -28.3021   -0.0126   25.6776 F   0  0  0  0  0  0  0  0  0  0  0  0
  -27.0256    1.6777   26.3475 F   0  0  0  0  0  0  0  0  0  0  0  0
  -30.5294    2.2955   30.0937 C   0  0  0  0  0  0  0  0  0  0  0  0
  -30.3825    2.7891   31.1876 N   0  0  0  0  0  0  0  0  0  0  0  0
  -30.2532    3.8795   31.6890 C   0  0  0  0  0  0  0  0  0  0  0  0
  -30.0981    4.2164   33.1186 C   0  0  0  0  0  0  0  0  0  0  0  0
  3  7  1  0
  7  8  1  0
  7  9  1  0
  7 10  1  0
  5 11  1  0
 11 12  1  0
 12 13  2  3
 13 14  1  0
  1  2  2  0
  2  6  1  0
  6  5  2  0
  5  4  1  0
  4  3  2  0
  3  1  1  0
M  END

$$$$
