No_3879-gen_results/8p0m/2024-11-26-14-13-15/
     RDKit          3D

 12 12  0  0  0  0  0  0  0  0999 V2000
  -28.1229   -1.3353   28.4874 O   0  0  0  0  0  0  0  0  0  0  0  0
  -27.4806   -0.4044   28.7094 C   0  0  0  0  0  0  0  0  0  0  0  0
  -27.1904    0.2460   29.5268 C   0  0  0  0  0  0  0  0  0  0  0  0
  -26.8157    0.1371   27.4262 N   0  0  0  0  0  0  0  0  0  0  0  0
  -26.3550    1.4196   29.7643 C   0  0  0  0  0  0  0  0  0  0  0  0
  -26.0125    1.2307   27.4050 C   0  0  0  0  0  0  0  0  0  0  0  0
  -25.7456    1.9087   28.5801 C   0  0  0  0  0  0  0  0  0  0  0  0
  -27.7749   -0.3773   30.8629 C   0  0  0  0  0  0  0  0  0  0  0  0
  -27.0571   -0.5769   31.8175 C   0  0  0  0  0  0  0  0  0  0  0  0
  -29.0773    0.3363   31.2291 C   0  0  0  0  0  0  0  0  0  0  0  0
  -29.9466    0.5712   30.4488 C   0  0  0  0  0  0  0  0  0  0  0  0
  -29.9692    0.1965   29.0584 C   0  0  0  0  0  0  0  0  0  0  0  0
  1  2  2  0
  2  3  1  0
  2  4  1  0
  4  6  1  0
  5  7  1  0
  3  8  1  0
  8  9  1  0
  8 10  1  0
 10 11  2  3
 11 12  1  0
  3  5  1  0
  7  6  1  0
M  END

$$$$
