No_3523-gen_results/8p0m/2024-11-26-14-13-15/
     RDKit          3D

 17 19  0  0  0  0  0  0  0  0999 V2000
  -28.0162   -0.8135   28.8779 C   0  0  0  0  0  0  0  0  0  0  0  0
  -27.0636   -0.1189   28.6079 C   0  0  0  0  0  0  0  0  0  0  0  0
  -25.7647   -0.3897   29.0360 C   0  0  0  0  0  0  0  0  0  0  0  0
  -25.5296   -1.5302   29.9014 C   0  0  0  0  0  0  0  0  0  0  0  0
  -26.6577   -2.2915   30.2035 C   0  0  0  0  0  0  0  0  0  0  0  0
  -27.8548   -1.9555   29.7630 C   0  0  0  0  0  0  0  0  0  0  0  0
  -24.5441    0.4126   28.7379 C   0  0  0  0  0  0  0  0  0  0  0  0
  -23.3232    0.0476   29.0499 C   0  0  0  0  0  0  0  0  0  0  0  0
  -23.1650   -1.2300   29.7040 C   0  0  0  0  0  0  0  0  0  0  0  0
  -24.2096   -1.9668   30.1985 C   0  0  0  0  0  0  0  0  0  0  0  0
  -24.4920    1.4659   27.7228 C   0  0  0  0  0  0  0  0  0  0  0  0
  -25.2358    2.3836   27.6491 C   0  0  0  0  0  0  0  0  0  0  0  0
  -25.9425    2.8424   28.7898 C   0  0  0  0  0  0  0  0  0  0  0  0
  -26.7170    4.0562   28.8337 C   0  0  0  0  0  0  0  0  0  0  0  0
  -26.7368    4.7744   27.6709 C   0  0  0  0  0  0  0  0  0  0  0  0
  -25.2843    3.4302   26.5890 C   0  0  0  0  0  0  0  0  0  0  0  0
  -26.0219    4.5516   26.5985 C   0  0  0  0  0  0  0  0  0  0  0  0
  7 11  1  0
 11 12  1  0
 12 13  2  0
 13 14  1  0
 14 15  2  0
 15 17  1  0
 17 16  2  0
 16 12  1  0
  1  2  2  0
  2  3  1  0
  4  5  1  0
  5  6  2  0
  6  1  1  0
  3  4  2  0
  4 10  1  0
 10  9  2  0
  9  8  1  0
  8  7  2  0
  7  3  1  0
M  END

$$$$
