No_3092-gen_results/8p0m/2024-11-26-14-13-15/
     RDKit          3D

 23 25  0  0  0  0  0  0  0  0999 V2000
  -28.1229   -1.3353   28.4874 O   0  0  0  0  0  0  0  0  0  0  0  0
  -27.4806   -0.4044   28.7094 C   0  0  0  0  0  0  0  0  0  0  0  0
  -26.3804   -0.0867   27.9394 C   0  0  0  0  0  0  0  0  0  0  0  0
  -27.6664    0.4468   29.8988 N   0  0  0  0  0  0  0  0  0  0  0  0
  -25.1773   -0.4388   28.3946 C   0  0  0  0  0  0  0  0  0  0  0  0
  -26.5259    0.6036   26.6867 C   0  0  0  0  0  0  0  0  0  0  0  0
  -23.9372    0.0372   27.6524 C   0  0  0  0  0  0  0  0  0  0  0  0
  -25.3818    0.9698   25.9434 C   0  0  0  0  0  0  0  0  0  0  0  0
  -24.1031    0.7250   26.4412 C   0  0  0  0  0  0  0  0  0  0  0  0
  -28.7588    0.1102   30.7851 C   0  0  0  0  0  0  0  0  0  0  0  0
  -26.8485    1.5208   30.1933 C   0  0  0  0  0  0  0  0  0  0  0  0
  -27.0657    2.4540   30.6331 C   0  0  0  0  0  0  0  0  0  0  0  0
  -27.7791    2.4576   31.8028 C   0  0  0  0  0  0  0  0  0  0  0  0
  -28.9636    1.4063   31.6605 C   0  0  0  0  0  0  0  0  0  0  0  0
  -27.8112    0.8885   26.0995 C   0  0  0  0  0  0  0  0  0  0  0  0
  -28.3876    2.0405   26.5120 C   0  0  0  0  0  0  0  0  0  0  0  0
  -28.3346    0.1106   25.1220 C   0  0  0  0  0  0  0  0  0  0  0  0
  -29.7439    2.3512   26.2028 C   0  0  0  0  0  0  0  0  0  0  0  0
  -29.6252    0.3669   24.6481 C   0  0  0  0  0  0  0  0  0  0  0  0
  -30.3163    1.5309   25.1367 C   0  0  0  0  0  0  0  0  0  0  0  0
  -25.7730    3.3646   31.0589 C   0  0  0  0  0  0  0  0  0  0  0  0
  -24.7151    3.0932   30.4812 O   0  0  0  0  0  0  0  0  0  0  0  0
  -25.8451    4.3789   31.8623 O   0  0  0  0  0  0  0  0  0  0  0  0
  1  2  2  0
  2  3  1  0
  2  4  1  0
  4 10  1  0
  4 11  1  0
 12 13  1  0
 13 14  1  0
  6 15  1  0
 12 21  1  0
 21 22  2  0
 21 23  1  0
 10 14  1  0
 12 11  1  0
 15 16  2  0
 16 18  1  0
 18 20  2  0
 20 19  1  0
 19 17  2  0
 17 15  1  0
  3  5  2  0
  5  7  1  0
  7  9  2  0
  9  8  1  0
  8  6  2  0
  6  3  1  0
M  END

$$$$
