No_3384-gen_results/8p0m/2024-11-26-14-13-15/
     RDKit          3D

 30 33  0  0  0  0  0  0  0  0999 V2000
  -28.0162   -0.8135   28.8779 C   0  0  0  0  0  0  0  0  0  0  0  0
  -27.0636   -0.1190   28.6079 C   0  0  0  0  0  0  0  0  0  0  0  0
  -25.7923   -0.4302   29.0761 C   0  0  0  0  0  0  0  0  0  0  0  0
  -24.5456    0.3494   28.8225 C   0  0  0  0  0  0  0  0  0  0  0  0
  -24.6586    1.4196   27.8878 C   0  0  0  0  0  0  0  0  0  0  0  0
  -25.9471    1.6811   27.3792 C   0  0  0  0  0  0  0  0  0  0  0  0
  -27.0439    0.9739   27.6871 C   0  0  0  0  0  0  0  0  0  0  0  0
  -28.6567   -0.5529   30.0960 N   0  0  0  0  0  0  0  0  0  0  0  0
  -28.5841    0.2509   30.7384 C   0  0  0  0  0  0  0  0  0  0  0  0
  -29.3702    0.2374   32.0976 C   0  0  0  0  0  0  0  0  0  0  0  0
  -29.4781   -1.8037   30.6035 C   0  0  0  0  0  0  0  0  0  0  0  0
  -30.1735   -1.7882   31.7070 C   0  0  0  0  0  0  0  0  0  0  0  0
  -30.0516   -0.6844   32.5277 C   0  0  0  0  0  0  0  0  0  0  0  0
  -23.4492    2.1340   27.5501 C   0  0  0  0  0  0  0  0  0  0  0  0
  -22.1783    1.6641   28.0782 C   0  0  0  0  0  0  0  0  0  0  0  0
  -22.1428    0.5911   28.9760 C   0  0  0  0  0  0  0  0  0  0  0  0
  -23.2954   -0.0843   29.3395 C   0  0  0  0  0  0  0  0  0  0  0  0
  -28.5434    1.4329   26.9744 Cl  0  0  0  0  0  0  0  0  0  0  0  0
  -23.2280   -1.1192   30.1218 F   0  0  0  0  0  0  0  0  0  0  0  0
  -30.8330   -0.6393   33.8092 C   0  0  0  0  0  0  0  0  0  0  0  0
  -30.6777    0.1977   34.5800 O   0  0  0  0  0  0  0  0  0  0  0  0
  -31.6194   -1.6646   34.0063 O   0  0  0  0  0  0  0  0  0  0  0  0
  -26.0097    3.0496   26.2899 Cl  0  0  0  0  0  0  0  0  0  0  0  0
  -25.6471   -1.4069   29.9299 O   0  0  0  0  0  0  0  0  0  0  0  0
  -26.3599   -2.5508   29.7552 C   0  0  0  0  0  0  0  0  0  0  0  0
  -25.3798   -3.7426   29.5367 C   0  0  0  0  0  0  0  0  0  0  0  0
  -25.9345   -4.9989   29.3502 C   0  0  0  0  0  0  0  0  0  0  0  0
  -24.9505   -5.8763   28.9961 N   0  0  0  0  0  0  0  0  0  0  0  0
  -24.1906   -3.6864   28.8504 C   0  0  0  0  0  0  0  0  0  0  0  0
  -23.8898   -5.0608   28.6399 C   0  0  0  0  0  0  0  0  0  0  0  0
  1  2  1  0
  1  8  1  0
  8  9  1  0
  8 11  1  0
 10 13  1  0
 12 13  1  0
  7 18  1  0
 17 19  1  0
 13 20  1  0
 20 21  2  0
 20 22  1  0
  6 23  1  0
  3 24  1  0
 24 25  1  0
 25 26  2  3
 26 27  1  0
 27 28  2  0
 26 29  1  0
 28 30  1  0
 29 30  1  0
  9 10  1  0
 12 11  1  0
  2  3  1  0
  3  4  2  0
  5  6  2  0
  6  7  1  0
  7  2  2  0
  4  5  1  0
  5 14  1  0
 14 15  2  0
 15 16  1  0
 16 17  2  0
 17  4  1  0
M  END

$$$$
