No_3276-gen_results/8p0m/2024-11-26-14-13-15/
     RDKit          3D

 21 23  0  0  0  0  0  0  0  0999 V2000
  -28.0162   -0.8135   28.8779 C   0  0  0  0  0  0  0  0  0  0  0  0
  -28.4690   -0.7850   29.8287 C   0  0  0  0  0  0  0  0  0  0  0  0
  -26.5455   -0.8762   28.8500 C   0  0  0  0  0  0  0  0  0  0  0  0
  -25.8041   -1.0324   30.0571 C   0  0  0  0  0  0  0  0  0  0  0  0
  -27.9437   -0.9869   31.2075 C   0  0  0  0  0  0  0  0  0  0  0  0
  -26.5825   -1.0386   31.2231 C   0  0  0  0  0  0  0  0  0  0  0  0
  -30.0279   -0.6588   29.6965 C   0  0  0  0  0  0  0  0  0  0  0  0
  -30.8399   -1.4373   30.1917 N   0  0  0  0  0  0  0  0  0  0  0  0
  -30.4675    0.3585   28.9678 N   0  0  0  0  0  0  0  0  0  0  0  0
  -31.7894    0.4675   28.7658 C   0  0  0  0  0  0  0  0  0  0  0  0
  -32.1482   -1.4185   30.0515 C   0  0  0  0  0  0  0  0  0  0  0  0
  -32.6324   -0.3739   29.2656 N   0  0  0  0  0  0  0  0  0  0  0  0
  -32.2140    1.4548   28.0336 F   0  0  0  0  0  0  0  0  0  0  0  0
  -32.8904   -2.3502   30.4284 F   0  0  0  0  0  0  0  0  0  0  0  0
  -24.1515   -1.1526   30.0843 Cl  0  0  0  0  0  0  0  0  0  0  0  0
  -34.0822   -0.2995   29.0872 C   0  0  0  0  0  0  0  0  0  0  0  0
  -34.5927    0.2016   28.3009 C   0  0  0  0  0  0  0  0  0  0  0  0
  -36.0231    0.1511   28.1424 C   0  0  0  0  0  0  0  0  0  0  0  0
  -36.6877   -0.6055   29.0971 C   0  0  0  0  0  0  0  0  0  0  0  0
  -36.0238   -1.2555   30.0733 C   0  0  0  0  0  0  0  0  0  0  0  0
  -34.7057   -1.1265   30.1407 C   0  0  0  0  0  0  0  0  0  0  0  0
  2  7  1  0
  7  9  1  0
  9 10  1  0
  8 11  1  0
 10 12  1  0
 11 12  1  0
 10 13  1  0
 11 14  1  0
  4 15  1  0
 12 16  1  0
  7  8  1  0
  1  2  2  0
  2  5  1  0
  5  6  2  0
  6  4  1  0
  4  3  2  0
  3  1  1  0
 16 17  2  0
 17 18  1  0
 18 19  2  0
 19 20  1  0
 20 21  2  0
 21 16  1  0
M  END

$$$$
