No_3280-gen_results/8p0m/2024-11-26-14-13-15/
     RDKit          3D

 10 10  0  0  0  0  0  0  0  0999 V2000
  -28.1229   -1.3353   28.4874 O   0  0  0  0  0  0  0  0  0  0  0  0
  -27.0637   -0.8242   28.8687 C   0  0  0  0  0  0  0  0  0  0  0  0
  -26.4017   -0.0623   28.6224 C   0  0  0  0  0  0  0  0  0  0  0  0
  -26.5721   -1.5844   30.1172 N   0  0  0  0  0  0  0  0  0  0  0  0
  -26.6982    0.9644   27.6453 C   0  0  0  0  0  0  0  0  0  0  0  0
  -25.7832    1.8129   27.0351 C   0  0  0  0  0  0  0  0  0  0  0  0
  -24.4346    1.9091   27.5889 C   0  0  0  0  0  0  0  0  0  0  0  0
  -24.0815    1.0037   28.5745 C   0  0  0  0  0  0  0  0  0  0  0  0
  -24.9283    0.0868   29.0484 C   0  0  0  0  0  0  0  0  0  0  0  0
  -27.3909   -2.7710   30.6241 C   0  0  0  0  0  0  0  0  0  0  0  0
  1  2  2  0
  2  3  1  0
  2  4  1  0
  4 10  1  0
  3  5  2  0
  5  6  1  0
  6  7  2  0
  7  8  1  0
  8  9  2  0
  9  3  1  0
M  END

$$$$
