No_3809-gen_results/8p0m/2024-11-26-14-13-15/
     RDKit          3D

 11 11  0  0  0  0  0  0  0  0999 V2000
  -28.1229   -1.3353   28.4874 O   0  0  0  0  0  0  0  0  0  0  0  0
  -27.4806   -0.4044   28.7094 C   0  0  0  0  0  0  0  0  0  0  0  0
  -26.3804   -0.0867   27.9394 C   0  0  0  0  0  0  0  0  0  0  0  0
  -27.6664    0.4468   29.8988 N   0  0  0  0  0  0  0  0  0  0  0  0
  -25.8048    1.1658   28.0750 C   0  0  0  0  0  0  0  0  0  0  0  0
  -26.0441    1.9125   29.2704 C   0  0  0  0  0  0  0  0  0  0  0  0
  -27.0331    1.5567   30.1007 C   0  0  0  0  0  0  0  0  0  0  0  0
  -24.3703    1.7399   26.9925 Br  0  0  0  0  0  0  0  0  0  0  0  0
  -25.2718    3.1834   29.4462 C   0  0  0  0  0  0  0  0  0  0  0  0
  -24.6308    3.7600   28.7016 O   0  0  0  0  0  0  0  0  0  0  0  0
  -25.5182    3.7421   30.7131 O   0  0  0  0  0  0  0  0  0  0  0  0
  1  2  2  0
  2  3  1  0
  2  4  1  0
  5  6  1  0
  5  8  1  0
  6  9  1  0
  9 10  2  0
  9 11  1  0
  3  5  1  0
  6  7  1  0
  7  4  1  0
M  END

$$$$
