No_385-gen_results/8p0m/2024-11-26-14-13-15/
     RDKit          3D

 21 22  0  0  0  0  0  0  0  0999 V2000
  -28.1493   -0.8198   28.9079 Cl  0  0  0  0  0  0  0  0  0  0  0  0
  -27.8339    0.4961   29.0598 C   0  0  0  0  0  0  0  0  0  0  0  0
  -27.5135    1.2383   28.0485 C   0  0  0  0  0  0  0  0  0  0  0  0
  -27.0548    2.6251   28.1330 C   0  0  0  0  0  0  0  0  0  0  0  0
  -26.9438    3.1838   29.4305 C   0  0  0  0  0  0  0  0  0  0  0  0
  -27.2205    2.3582   30.5116 C   0  0  0  0  0  0  0  0  0  0  0  0
  -27.5987    1.0586   30.3700 C   0  0  0  0  0  0  0  0  0  0  0  0
  -26.4856    4.5602   29.5942 C   0  0  0  0  0  0  0  0  0  0  0  0
  -25.8765    4.7989   30.6005 O   0  0  0  0  0  0  0  0  0  0  0  0
  -26.9602    5.4809   28.8785 O   0  0  0  0  0  0  0  0  0  0  0  0
  -27.5856    0.7352   26.4024 Cl  0  0  0  0  0  0  0  0  0  0  0  0
  -27.8720    0.2778   31.5955 C   0  0  0  0  0  0  0  0  0  0  0  0
  -27.9451    1.1392   32.5123 F   0  0  0  0  0  0  0  0  0  0  0  0
  -26.9043   -0.5872   31.7662 F   0  0  0  0  0  0  0  0  0  0  0  0
  -29.0701   -0.2916   31.4997 F   0  0  0  0  0  0  0  0  0  0  0  0
  -26.1320    5.8747   31.5250 C   0  0  0  0  0  0  0  0  0  0  0  0
  -25.9358    5.7461   32.5651 C   0  0  0  0  0  0  0  0  0  0  0  0
  -26.2087    6.8340   33.6170 C   0  0  0  0  0  0  0  0  0  0  0  0
  -26.6779    8.0379   33.0972 C   0  0  0  0  0  0  0  0  0  0  0  0
  -26.5226    7.0661   30.8637 C   0  0  0  0  0  0  0  0  0  0  0  0
  -26.7944    8.1663   31.7383 C   0  0  0  0  0  0  0  0  0  0  0  0
  1  2  1  0
  5  8  1  0
  8  9  1  0
  8 10  2  0
  3 11  1  0
  7 12  1  0
 12 13  1  0
 12 14  1  0
 12 15  1  0
  9 16  1  0
  2  3  2  0
  3  4  1  0
  4  5  2  0
  5  6  1  0
  6  7  2  0
  7  2  1  0
 16 17  2  0
 17 18  1  0
 18 19  2  0
 19 21  1  0
 21 20  2  0
 20 16  1  0
M  END

$$$$
