No_3198-gen_results/8p0m/2024-11-26-14-13-15/
     RDKit          3D

 22 25  0  0  0  0  0  0  0  0999 V2000
  -28.0162   -0.8135   28.8779 C   0  0  0  0  0  0  0  0  0  0  0  0
  -27.0636   -0.1189   28.6079 C   0  0  0  0  0  0  0  0  0  0  0  0
  -27.0010    0.6913   27.4910 C   0  0  0  0  0  0  0  0  0  0  0  0
  -25.8548    1.4825   27.0830 C   0  0  0  0  0  0  0  0  0  0  0  0
  -25.8227    2.3296   25.9941 C   0  0  0  0  0  0  0  0  0  0  0  0
  -28.9721   -0.4380   29.2471 C   0  0  0  0  0  0  0  0  0  0  0  0
  -29.4694    0.7064   28.3521 C   0  0  0  0  0  0  0  0  0  0  0  0
  -28.3446    1.4348   27.3963 C   0  0  0  0  0  0  0  0  0  0  0  0
  -24.5760    2.9161   25.5836 C   0  0  0  0  0  0  0  0  0  0  0  0
  -23.3635    2.4563   26.1597 C   0  0  0  0  0  0  0  0  0  0  0  0
  -23.3882    1.5283   27.1992 C   0  0  0  0  0  0  0  0  0  0  0  0
  -24.6012    1.0081   27.6598 C   0  0  0  0  0  0  0  0  0  0  0  0
  -22.1327    1.1602   27.8549 C   0  0  0  0  0  0  0  0  0  0  0  0
  -22.0500    0.0987   28.7507 C   0  0  0  0  0  0  0  0  0  0  0  0
  -23.2966   -0.5467   29.0713 C   0  0  0  0  0  0  0  0  0  0  0  0
  -24.4865   -0.0706   28.5913 C   0  0  0  0  0  0  0  0  0  0  0  0
  -25.6106   -0.6279   28.9257 C   0  0  0  0  0  0  0  0  0  0  0  0
  -30.8138    1.2756   28.2100 C   0  0  0  0  0  0  0  0  0  0  0  0
  -31.1492    2.2700   27.8334 F   0  0  0  0  0  0  0  0  0  0  0  0
  -31.2792    1.0660   29.5491 F   0  0  0  0  0  0  0  0  0  0  0  0
  -31.4927    0.2605   27.4500 F   0  0  0  0  0  0  0  0  0  0  0  0
  -25.5782   -1.7923   29.5717 O   0  0  0  0  0  0  0  0  0  0  0  0
  3  4  1  0
  2 17  1  0
 16 17  1  0
  7 18  1  0
 18 19  1  0
 18 20  1  0
 18 21  1  0
 17 22  2  0
 12 16  2  0
 16 15  1  0
 15 14  2  0
 14 13  1  0
 13 11  2  0
  4  5  2  0
  5  9  1  0
  9 10  2  0
 10 11  1  0
 11 12  1  0
 12  4  1  0
  1  2  2  0
  2  3  1  0
  3  8  2  0
  8  7  1  0
  7  6  2  0
  6  1  1  0
M  END

$$$$
