No_3722-gen_results/8p0m/2024-11-26-14-13-15/
     RDKit          3D

 30 32  0  0  0  0  0  0  0  0999 V2000
  -28.1229   -1.3353   28.4874 O   0  0  0  0  0  0  0  0  0  0  0  0
  -27.4806   -0.4044   28.7094 C   0  0  0  0  0  0  0  0  0  0  0  0
  -27.2412    0.3910   29.5098 N   0  0  0  0  0  0  0  0  0  0  0  0
  -26.6423    0.1187   27.3495 C   0  0  0  0  0  0  0  0  0  0  0  0
  -26.8725    0.0603   26.3315 C   0  0  0  0  0  0  0  0  0  0  0  0
  -25.9614    0.5946   25.2636 C   0  0  0  0  0  0  0  0  0  0  0  0
  -24.7093    1.0619   25.6741 C   0  0  0  0  0  0  0  0  0  0  0  0
  -24.4120    1.1106   26.9923 C   0  0  0  0  0  0  0  0  0  0  0  0
  -25.3014    0.6894   27.9046 C   0  0  0  0  0  0  0  0  0  0  0  0
  -28.1094    0.0168   30.8052 C   0  0  0  0  0  0  0  0  0  0  0  0
  -22.9290    1.9128   27.2958 Cl  0  0  0  0  0  0  0  0  0  0  0  0
  -28.7655    1.2000   31.2594 C   0  0  0  0  0  0  0  0  0  0  0  0
  -28.6651    2.1079   30.7791 C   0  0  0  0  0  0  0  0  0  0  0  0
  -27.7406    2.6061   29.7822 C   0  0  0  0  0  0  0  0  0  0  0  0
  -26.5588    1.4745   29.9878 C   0  0  0  0  0  0  0  0  0  0  0  0
  -28.0219    2.7719   28.4067 C   0  0  0  0  0  0  0  0  0  0  0  0
  -27.4832    3.9427   27.7356 C   0  0  0  0  0  0  0  0  0  0  0  0
  -26.9897    3.8764   30.2025 C   0  0  0  0  0  0  0  0  0  0  0  0
  -26.4669    4.8470   29.4323 C   0  0  0  0  0  0  0  0  0  0  0  0
  -26.8263    4.9199   28.1620 C   0  0  0  0  0  0  0  0  0  0  0  0
  -27.9163    3.9226   26.1989 C   0  0  0  0  0  0  0  0  0  0  0  0
  -29.2648    2.4334   28.0913 N   0  0  0  0  0  0  0  0  0  0  0  0
  -30.4427    2.7159   27.8754 C   0  0  0  0  0  0  0  0  0  0  0  0
  -30.7393    3.9092   28.0614 O   0  0  0  0  0  0  0  0  0  0  0  0
  -31.2957    1.8697   27.0972 C   0  0  0  0  0  0  0  0  0  0  0  0
  -31.2142    1.4842   26.0605 O   0  0  0  0  0  0  0  0  0  0  0  0
  -32.5020    1.6736   27.7847 N   0  0  0  0  0  0  0  0  0  0  0  0
  -33.5307    0.7581   27.2713 C   0  0  0  0  0  0  0  0  0  0  0  0
  -33.3582   -0.1144   26.5230 C   0  0  0  0  0  0  0  0  0  0  0  0
  -32.1639   -0.6662   26.2958 C   0  0  0  0  0  0  0  0  0  0  0  0
  1  2  2  0
  2  3  1  0
  2  4  1  0
  3 10  1  0
  8 11  1  0
 10 12  1  0
 13 14  1  0
  3 15  1  0
 14 15  1  0
 14 16  1  0
 16 17  1  0
 14 18  1  0
 19 20  1  0
 17 21  1  0
 16 22  1  0
 22 23  1  0
 23 24  2  0
 23 25  1  0
 25 26  2  0
 25 27  1  0
 27 28  1  0
 28 29  1  0
 29 30  1  0
 12 13  1  0
 17 20  1  0
 19 18  1  0
  4  5  2  0
  5  6  1  0
  6  7  2  0
  7  8  1  0
  8  9  2  0
  9  4  1  0
M  END

$$$$
