No_304-gen_results/8p0m/2024-11-26-14-13-15/
     RDKit          3D

 16 17  0  0  0  0  0  0  0  0999 V2000
  -28.0162   -0.8135   28.8779 C   0  0  0  0  0  0  0  0  0  0  0  0
  -27.0636   -0.1189   28.6079 C   0  0  0  0  0  0  0  0  0  0  0  0
  -26.8756    1.1325   28.9134 C   0  0  0  0  0  0  0  0  0  0  0  0
  -25.6883    1.9515   28.5672 C   0  0  0  0  0  0  0  0  0  0  0  0
  -24.6394    1.2834   27.8753 C   0  0  0  0  0  0  0  0  0  0  0  0
  -23.4556    1.9996   27.5653 C   0  0  0  0  0  0  0  0  0  0  0  0
  -25.8432   -0.7373   27.9210 C   0  0  0  0  0  0  0  0  0  0  0  0
  -24.6903   -0.0521   27.5832 C   0  0  0  0  0  0  0  0  0  0  0  0
  -22.3011    1.5871   27.3680 N   0  0  0  0  0  0  0  0  0  0  0  0
  -23.6362    3.3055   27.2766 O   0  0  0  0  0  0  0  0  0  0  0  0
  -27.9318   -1.2276   30.3795 C   0  0  0  0  0  0  0  0  0  0  0  0
  -28.8132   -1.2885   31.1651 C   0  0  0  0  0  0  0  0  0  0  0  0
  -30.1272   -0.9096   30.7928 C   0  0  0  0  0  0  0  0  0  0  0  0
  -30.3356   -0.6630   29.4920 C   0  0  0  0  0  0  0  0  0  0  0  0
  -29.2894   -0.4614   28.6399 C   0  0  0  0  0  0  0  0  0  0  0  0
  -29.5264   -0.0409   27.4230 F   0  0  0  0  0  0  0  0  0  0  0  0
  5  6  1  0
  6  9  1  0
  6 10  2  0
 15 16  1  0
  2  1  1  0
  2  3  2  0
  3  4  1  0
  4  5  2  0
  5  8  1  0
  8  7  2  0
  7  2  1  0
  1 11  2  0
 11 12  1  0
 12 13  2  0
 13 14  1  0
 14 15  2  0
 15  1  1  0
M  END

$$$$
