No_3698-gen_results/8p0m/2024-11-26-14-13-15/
     RDKit          3D

 12 12  0  0  0  0  0  0  0  0999 V2000
  -28.1229   -1.3353   28.4874 O   0  0  0  0  0  0  0  0  0  0  0  0
  -27.4806   -0.4044   28.7094 C   0  0  0  0  0  0  0  0  0  0  0  0
  -26.3804   -0.0867   27.9394 C   0  0  0  0  0  0  0  0  0  0  0  0
  -27.6664    0.4468   29.8988 N   0  0  0  0  0  0  0  0  0  0  0  0
  -26.4086    0.8567   26.8802 C   0  0  0  0  0  0  0  0  0  0  0  0
  -27.5818    1.4877   26.5909 C   0  0  0  0  0  0  0  0  0  0  0  0
  -27.5795    2.3020   25.4187 C   0  0  0  0  0  0  0  0  0  0  0  0
  -28.7504    2.9809   25.0766 C   0  0  0  0  0  0  0  0  0  0  0  0
  -29.9521    2.7840   25.7825 C   0  0  0  0  0  0  0  0  0  0  0  0
  -29.8961    1.9351   26.8988 C   0  0  0  0  0  0  0  0  0  0  0  0
  -28.7907    1.3370   27.2512 C   0  0  0  0  0  0  0  0  0  0  0  0
  -28.0354    0.0739   30.8797 C   0  0  0  0  0  0  0  0  0  0  0  0
  1  2  2  0
  2  3  1  0
  2  4  1  0
  3  5  2  3
  5  6  1  0
  4 12  1  0
  6  7  2  0
  7  8  1  0
  8  9  2  0
  9 10  1  0
 10 11  2  0
 11  6  1  0
M  END

$$$$
