No_3923-gen_results/8p0m/2024-11-26-14-13-15/
     RDKit          3D

  5  4  0  0  0  0  0  0  0  0999 V2000
  -28.0727   -1.2542   28.5316 F   0  0  0  0  0  0  0  0  0  0  0  0
  -27.0607   -0.6291   28.8721 C   0  0  0  0  0  0  0  0  0  0  0  0
  -27.2487    0.2515   29.6594 F   0  0  0  0  0  0  0  0  0  0  0  0
  -26.4810   -0.1356   27.7171 F   0  0  0  0  0  0  0  0  0  0  0  0
  -26.1444   -1.5464   29.3284 F   0  0  0  0  0  0  0  0  0  0  0  0
  1  2  1  0
  2  3  1  0
  2  4  1  0
  2  5  1  0
M  END

$$$$
