No_3508-gen_results/8p0m/2024-11-26-14-13-15/
     RDKit          3D

 14 15  0  0  0  0  0  0  0  0999 V2000
  -28.0162   -0.8135   28.8779 C   0  0  0  0  0  0  0  0  0  0  0  0
  -27.0636   -0.1189   28.6079 C   0  0  0  0  0  0  0  0  0  0  0  0
  -27.0010    0.6913   27.4910 C   0  0  0  0  0  0  0  0  0  0  0  0
  -25.8548    1.4825   27.0830 C   0  0  0  0  0  0  0  0  0  0  0  0
  -24.6901    1.4526   27.8807 C   0  0  0  0  0  0  0  0  0  0  0  0
  -24.7379    0.6010   29.0416 C   0  0  0  0  0  0  0  0  0  0  0  0
  -25.8234   -0.1688   29.3887 C   0  0  0  0  0  0  0  0  0  0  0  0
  -28.9516   -0.6391   28.1654 F   0  0  0  0  0  0  0  0  0  0  0  0
  -28.4288   -0.5995   30.2335 F   0  0  0  0  0  0  0  0  0  0  0  0
  -23.5121    2.2012   27.5820 C   0  0  0  0  0  0  0  0  0  0  0  0
  -23.5074    3.1689   26.8157 N   0  0  0  0  0  0  0  0  0  0  0  0
  -22.2752    1.7615   28.0235 N   0  0  0  0  0  0  0  0  0  0  0  0
  -22.0692    0.7105   28.8298 C   0  0  0  0  0  0  0  0  0  0  0  0
  -23.2506    0.0651   29.4304 C   0  0  0  0  0  0  0  0  0  0  0  0
  1  2  1  0
  1  8  1  0
  1  9  1  0
 11 10  1  0
  2  3  2  0
  3  4  1  0
  4  5  2  0
  6  7  2  0
  7  2  1  0
  5  6  1  0
  6 14  1  0
 14 13  2  0
 13 12  1  0
 12 10  2  0
 10  5  1  0
M  END

$$$$
