No_3554-gen_results/8p0m/2024-11-26-14-13-15/
     RDKit          3D

 33 36  0  0  0  0  0  0  0  0999 V2000
  -28.0162   -0.8135   28.8779 C   0  0  0  0  0  0  0  0  0  0  0  0
  -27.0636   -0.1189   28.6079 C   0  0  0  0  0  0  0  0  0  0  0  0
  -27.0010    0.6913   27.4910 C   0  0  0  0  0  0  0  0  0  0  0  0
  -25.8548    1.4825   27.0830 C   0  0  0  0  0  0  0  0  0  0  0  0
  -24.6901    1.4526   27.8807 C   0  0  0  0  0  0  0  0  0  0  0  0
  -24.7379    0.6010   29.0416 C   0  0  0  0  0  0  0  0  0  0  0  0
  -25.8234   -0.1688   29.3887 C   0  0  0  0  0  0  0  0  0  0  0  0
  -28.7568   -0.5479   30.0191 N   0  0  0  0  0  0  0  0  0  0  0  0
  -28.9317    0.3890   30.5031 C   0  0  0  0  0  0  0  0  0  0  0  0
  -29.3215    1.0528   31.2089 C   0  0  0  0  0  0  0  0  0  0  0  0
  -29.7799    2.1726   31.9168 C   0  0  0  0  0  0  0  0  0  0  0  0
  -23.3347    2.3640   27.5308 Cl  0  0  0  0  0  0  0  0  0  0  0  0
  -29.1818    2.5581   33.0014 C   0  0  0  0  0  0  0  0  0  0  0  0
  -29.6460    3.7036   33.7538 C   0  0  0  0  0  0  0  0  0  0  0  0
  -30.7809    4.2917   33.2024 C   0  0  0  0  0  0  0  0  0  0  0  0
  -31.3763    3.8871   32.1036 C   0  0  0  0  0  0  0  0  0  0  0  0
  -30.8688    2.8533   31.4182 C   0  0  0  0  0  0  0  0  0  0  0  0
  -29.4939   -1.7345   30.5778 C   0  0  0  0  0  0  0  0  0  0  0  0
  -30.6682   -1.9817   30.4217 C   0  0  0  0  0  0  0  0  0  0  0  0
  -31.2662   -3.1353   30.8999 C   0  0  0  0  0  0  0  0  0  0  0  0
  -30.4415   -4.0729   31.5579 C   0  0  0  0  0  0  0  0  0  0  0  0
  -29.0666   -3.8475   31.5091 C   0  0  0  0  0  0  0  0  0  0  0  0
  -28.5310   -2.7206   31.0922 C   0  0  0  0  0  0  0  0  0  0  0  0
  -28.1415    0.8269   26.6120 C   0  0  0  0  0  0  0  0  0  0  0  0
  -29.1286    1.7727   26.8647 C   0  0  0  0  0  0  0  0  0  0  0  0
  -28.8046    2.9999   27.2804 C   0  0  0  0  0  0  0  0  0  0  0  0
  -30.5114    1.3728   26.9057 C   0  0  0  0  0  0  0  0  0  0  0  0
  -31.4776    2.1978   27.4087 C   0  0  0  0  0  0  0  0  0  0  0  0
  -29.8113    3.9729   27.6962 C   0  0  0  0  0  0  0  0  0  0  0  0
  -31.1381    3.5585   27.7301 C   0  0  0  0  0  0  0  0  0  0  0  0
  -28.2106    0.0747   25.5761 O   0  0  0  0  0  0  0  0  0  0  0  0
  -33.0902    1.7375   27.4625 Cl  0  0  0  0  0  0  0  0  0  0  0  0
  -32.5591   -3.3246   30.8934 F   0  0  0  0  0  0  0  0  0  0  0  0
  1  2  1  0
  1  8  1  0
  8  9  1  0
  9 10  1  0
  5 12  1  0
  8 18  1  0
  3 24  1  0
 24 25  1  0
 24 31  2  0
 28 32  1  0
 20 33  1  0
 10 11  1  0
 18 19  2  0
 19 20  1  0
 20 21  2  0
 21 22  1  0
 22 23  2  0
 23 18  1  0
  2  3  1  0
  3  4  2  0
  4  5  1  0
  5  6  2  0
  6  7  1  0
  7  2  2  0
 11 13  2  0
 13 14  1  0
 14 15  2  0
 15 16  1  0
 16 17  2  0
 17 11  1  0
 25 26  2  0
 26 29  1  0
 29 30  2  0
 30 28  1  0
 28 27  2  0
 27 25  1  0
M  END

$$$$
