No_3448-gen_results/8p0m/2024-11-26-14-13-15/
     RDKit          3D

 26 28  0  0  0  0  0  0  0  0999 V2000
  -28.0162   -0.8135   28.8779 C   0  0  0  0  0  0  0  0  0  0  0  0
  -28.4690   -0.7850   29.8287 C   0  0  0  0  0  0  0  0  0  0  0  0
  -28.1816    0.4277   28.1134 C   0  0  0  0  0  0  0  0  0  0  0  0
  -27.4498    0.6435   26.8500 C   0  0  0  0  0  0  0  0  0  0  0  0
  -27.8596    1.4573   25.9076 C   0  0  0  0  0  0  0  0  0  0  0  0
  -29.4263    0.1097   30.4178 C   0  0  0  0  0  0  0  0  0  0  0  0
  -29.6233    1.2198   29.7351 C   0  0  0  0  0  0  0  0  0  0  0  0
  -28.9609    1.4529   28.5513 C   0  0  0  0  0  0  0  0  0  0  0  0
  -27.1733    1.5743   24.7028 C   0  0  0  0  0  0  0  0  0  0  0  0
  -26.0892    0.7468   24.4126 C   0  0  0  0  0  0  0  0  0  0  0  0
  -25.6364   -0.1191   25.3972 C   0  0  0  0  0  0  0  0  0  0  0  0
  -26.2807   -0.2063   26.5817 C   0  0  0  0  0  0  0  0  0  0  0  0
  -30.6758    2.4766   30.3234 Cl  0  0  0  0  0  0  0  0  0  0  0  0
  -28.2794   -2.1430   30.7156 C   0  0  0  0  0  0  0  0  0  0  0  0
  -28.9537   -2.7171   31.2331 O   0  0  0  0  0  0  0  0  0  0  0  0
  -26.9300   -2.5443   30.6085 O   0  0  0  0  0  0  0  0  0  0  0  0
  -26.3626   -2.7554   29.4472 C   0  0  0  0  0  0  0  0  0  0  0  0
  -24.8959   -3.3387   29.7686 C   0  0  0  0  0  0  0  0  0  0  0  0
  -23.9431   -2.7270   28.7648 C   0  0  0  0  0  0  0  0  0  0  0  0
  -22.7677   -2.2761   29.4751 C   0  0  0  0  0  0  0  0  0  0  0  0
  -22.4618   -0.8891   28.9518 C   0  0  0  0  0  0  0  0  0  0  0  0
  -23.5272    0.0592   28.6744 C   0  0  0  0  0  0  0  0  0  0  0  0
  -23.1516    1.2519   27.9491 C   0  0  0  0  0  0  0  0  0  0  0  0
  -21.8152    1.5024   27.6514 C   0  0  0  0  0  0  0  0  0  0  0  0
  -21.1185   -0.4837   28.6440 C   0  0  0  0  0  0  0  0  0  0  0  0
  -20.8180    0.7876   28.0876 C   0  0  0  0  0  0  0  0  0  0  0  0
  3  4  1  0
  7 13  1  0
  2 14  1  0
 14 15  2  0
 14 16  1  0
 16 17  1  0
 17 18  1  0
 18 19  1  0
 19 20  1  0
 20 21  1  0
 21 22  2  0
 22 23  1  0
 23 24  2  0
 24 26  1  0
 26 25  2  0
 25 21  1  0
  4  5  2  0
  5  9  1  0
  9 10  2  0
 10 11  1  0
 11 12  2  0
 12  4  1  0
  1  2  2  0
  2  6  1  0
  6  7  2  0
  7  8  1  0
  8  3  2  0
  3  1  1  0
M  END

$$$$
