No_3025-gen_results/8p0m/2024-11-26-14-13-15/
     RDKit          3D

 20 21  0  0  0  0  0  0  0  0999 V2000
  -28.0162   -0.8135   28.8779 C   0  0  0  0  0  0  0  0  0  0  0  0
  -27.0636   -0.1190   28.6079 C   0  0  0  0  0  0  0  0  0  0  0  0
  -26.9716    0.7139   27.5060 C   0  0  0  0  0  0  0  0  0  0  0  0
  -25.8205    1.4909   27.1160 C   0  0  0  0  0  0  0  0  0  0  0  0
  -24.6562    1.4242   27.9180 C   0  0  0  0  0  0  0  0  0  0  0  0
  -24.7114    0.5419   29.0507 C   0  0  0  0  0  0  0  0  0  0  0  0
  -25.8042   -0.2058   29.3881 C   0  0  0  0  0  0  0  0  0  0  0  0
  -28.6958   -0.4989   30.1325 C   0  0  0  0  0  0  0  0  0  0  0  0
  -29.8501   -1.3254   30.5771 C   0  0  0  0  0  0  0  0  0  0  0  0
  -30.0036   -2.3902   29.9474 C   0  0  0  0  0  0  0  0  0  0  0  0
  -31.2143   -3.1061   30.3815 C   0  0  0  0  0  0  0  0  0  0  0  0
  -32.0184   -2.6291   31.3168 C   0  0  0  0  0  0  0  0  0  0  0  0
  -31.7675   -1.4592   31.9498 C   0  0  0  0  0  0  0  0  0  0  0  0
  -30.6562   -0.7136   31.5739 C   0  0  0  0  0  0  0  0  0  0  0  0
  -23.4387    2.1421   27.6318 C   0  0  0  0  0  0  0  0  0  0  0  0
  -22.5952    2.0899   28.4831 F   0  0  0  0  0  0  0  0  0  0  0  0
  -22.8812    1.6387   26.4139 F   0  0  0  0  0  0  0  0  0  0  0  0
  -23.8064    3.4340   27.3338 F   0  0  0  0  0  0  0  0  0  0  0  0
  -28.1026    0.8542   26.6022 C   0  0  0  0  0  0  0  0  0  0  0  0
  -28.4755    0.6275   25.5927 N   0  0  0  0  0  0  0  0  0  0  0  0
  1  8  1  0
  8  9  1  0
  5 15  1  0
 15 16  1  0
 15 17  1  0
 15 18  1  0
  3 19  1  0
 19 20  3  0
  1  2  1  0
  2  3  2  0
  3  4  1  0
  4  5  2  0
  5  6  1  0
  6  7  2  0
  7  2  1  0
  9 10  2  0
 10 11  1  0
 11 12  2  0
 12 13  1  0
 13 14  2  0
 14  9  1  0
M  END

$$$$
