No_3674-gen_results/8p0m/2024-11-26-14-13-15/
     RDKit          3D

 21 23  0  0  0  0  0  0  0  0999 V2000
  -28.0162   -0.8135   28.8779 C   0  0  0  0  0  0  0  0  0  0  0  0
  -28.4690   -0.7850   29.8287 C   0  0  0  0  0  0  0  0  0  0  0  0
  -26.5042   -0.7777   28.8766 C   0  0  0  0  0  0  0  0  0  0  0  0
  -25.8103   -0.8531   30.1028 C   0  0  0  0  0  0  0  0  0  0  0  0
  -27.9906   -0.8916   31.2257 C   0  0  0  0  0  0  0  0  0  0  0  0
  -26.6042   -0.8676   31.2652 C   0  0  0  0  0  0  0  0  0  0  0  0
  -24.3894   -0.8049   30.1638 C   0  0  0  0  0  0  0  0  0  0  0  0
  -23.8670    0.4584   29.9140 N   0  0  0  0  0  0  0  0  0  0  0  0
  -22.6980    0.6174   29.2056 C   0  0  0  0  0  0  0  0  0  0  0  0
  -24.4125    1.5972   30.4969 C   0  0  0  0  0  0  0  0  0  0  0  0
  -22.7120    1.1303   27.9340 C   0  0  0  0  0  0  0  0  0  0  0  0
  -24.7585    1.7940   31.6254 C   0  0  0  0  0  0  0  0  0  0  0  0
  -25.2892    3.1039   32.1380 C   0  0  0  0  0  0  0  0  0  0  0  0
  -25.3782    4.1052   31.2009 C   0  0  0  0  0  0  0  0  0  0  0  0
  -25.1628    3.8327   29.8682 C   0  0  0  0  0  0  0  0  0  0  0  0
  -24.5742    2.6748   29.4718 C   0  0  0  0  0  0  0  0  0  0  0  0
  -24.0081    2.6280   28.1545 C   0  0  0  0  0  0  0  0  0  0  0  0
  -21.6206    1.9966   27.4346 C   0  0  0  0  0  0  0  0  0  0  0  0
  -24.2196    3.2102   27.1977 O   0  0  0  0  0  0  0  0  0  0  0  0
  -23.5194    0.5182   26.8951 C   0  0  0  0  0  0  0  0  0  0  0  0
  -23.3929    1.8724   27.7711 N   0  0  0  0  0  0  0  0  0  0  0  0
  4  7  1  0
  7  8  1  0
  8  9  1  0
  8 10  1  0
  9 11  1  0
 16 17  1  0
 11 18  1  0
 17 19  2  0
 11 20  1  0
 11 21  1  0
 17 21  1  0
  1  2  2  0
  2  5  1  0
  5  6  2  0
  6  4  1  0
  4  3  2  0
  3  1  1  0
 10 12  2  0
 12 13  1  0
 13 14  2  0
 14 15  1  0
 15 16  2  0
 16 10  1  0
M  END

$$$$
