No_3154-gen_results/8p0m/2024-11-26-14-13-15/
     RDKit          3D

 15 16  0  0  0  0  0  0  0  0999 V2000
  -28.0162   -0.8135   28.8779 C   0  0  0  0  0  0  0  0  0  0  0  0
  -28.4690   -0.7850   29.8287 C   0  0  0  0  0  0  0  0  0  0  0  0
  -26.5042   -0.7777   28.8766 C   0  0  0  0  0  0  0  0  0  0  0  0
  -25.8103   -0.8531   30.1028 C   0  0  0  0  0  0  0  0  0  0  0  0
  -27.9906   -0.8916   31.2257 C   0  0  0  0  0  0  0  0  0  0  0  0
  -26.6042   -0.8676   31.2652 C   0  0  0  0  0  0  0  0  0  0  0  0
  -30.2937   -0.8377   29.8355 Cl  0  0  0  0  0  0  0  0  0  0  0  0
  -24.3898   -0.7158   29.9392 C   0  0  0  0  0  0  0  0  0  0  0  0
  -23.8085    0.6173   30.2354 C   0  0  0  0  0  0  0  0  0  0  0  0
  -22.5236    0.8848   29.7147 C   0  0  0  0  0  0  0  0  0  0  0  0
  -21.7905   -0.0916   29.0133 C   0  0  0  0  0  0  0  0  0  0  0  0
  -20.6284    0.2475   28.5510 N   0  0  0  0  0  0  0  0  0  0  0  0
  -22.3466   -1.4183   28.8593 C   0  0  0  0  0  0  0  0  0  0  0  0
  -23.6938   -1.6769   29.2384 C   0  0  0  0  0  0  0  0  0  0  0  0
  -25.8604   -0.7803   27.7351 F   0  0  0  0  0  0  0  0  0  0  0  0
  2  7  1  0
  4  8  1  0
 11 12  1  0
  3 15  1  0
  8  9  2  0
  9 10  1  0
 10 11  2  0
 11 13  1  0
 13 14  2  0
 14  8  1  0
  1  2  2  0
  2  5  1  0
  5  6  2  0
  6  4  1  0
  4  3  2  0
  3  1  1  0
M  END

$$$$
