No_3019-gen_results/8p0m/2024-11-26-14-13-15/
     RDKit          3D

 12 13  0  0  0  0  0  0  0  0999 V2000
  -28.0162   -0.8135   28.8779 C   0  0  0  0  0  0  0  0  0  0  0  0
  -28.4690   -0.7850   29.8287 C   0  0  0  0  0  0  0  0  0  0  0  0
  -27.0871    0.2903   28.6377 C   0  0  0  0  0  0  0  0  0  0  0  0
  -26.8317    1.2487   29.5869 C   0  0  0  0  0  0  0  0  0  0  0  0
  -28.3914    0.0801   31.0065 C   0  0  0  0  0  0  0  0  0  0  0  0
  -27.4940    1.1521   30.7841 C   0  0  0  0  0  0  0  0  0  0  0  0
  -26.3109    0.3917   27.3640 C   0  0  0  0  0  0  0  0  0  0  0  0
  -25.1298    0.0734   27.3738 N   0  0  0  0  0  0  0  0  0  0  0  0
  -26.9473    0.7908   26.1670 C   0  0  0  0  0  0  0  0  0  0  0  0
  -26.1714    0.5623   25.0628 C   0  0  0  0  0  0  0  0  0  0  0  0
  -24.2459    0.0756   26.3621 C   0  0  0  0  0  0  0  0  0  0  0  0
  -24.7916    0.3370   25.1138 C   0  0  0  0  0  0  0  0  0  0  0  0
  3  7  1  0
  7  8  2  0
  8 11  1  0
 11 12  2  0
 12 10  1  0
 10  9  2  0
  9  7  1  0
  1  2  2  0
  2  5  1  0
  5  6  2  0
  6  4  1  0
  4  3  2  0
  3  1  1  0
M  END

$$$$
