No_3405-gen_results/8p0m/2024-11-26-14-13-15/
     RDKit          3D

 13 14  0  0  0  0  0  0  0  0999 V2000
  -28.0162   -0.8135   28.8779 C   0  0  0  0  0  0  0  0  0  0  0  0
  -28.4690   -0.7850   29.8287 C   0  0  0  0  0  0  0  0  0  0  0  0
  -27.1356    0.2359   28.5352 C   0  0  0  0  0  0  0  0  0  0  0  0
  -26.8745    1.2825   29.3982 C   0  0  0  0  0  0  0  0  0  0  0  0
  -28.3613    0.1987   30.9244 C   0  0  0  0  0  0  0  0  0  0  0  0
  -27.5277    1.2234   30.6356 C   0  0  0  0  0  0  0  0  0  0  0  0
  -26.3879    0.2914   27.2334 C   0  0  0  0  0  0  0  0  0  0  0  0
  -26.4937    0.9729   26.2859 C   0  0  0  0  0  0  0  0  0  0  0  0
  -27.4762    2.0647   26.3647 C   0  0  0  0  0  0  0  0  0  0  0  0
  -28.1249    2.4658   25.1478 C   0  0  0  0  0  0  0  0  0  0  0  0
  -27.7481    1.8933   23.9417 C   0  0  0  0  0  0  0  0  0  0  0  0
  -26.9318    0.8157   23.9033 C   0  0  0  0  0  0  0  0  0  0  0  0
  -26.3812    0.3142   24.9754 C   0  0  0  0  0  0  0  0  0  0  0  0
  3  7  1  0
  7  8  1  0
  8  9  2  0
  9 10  1  0
 10 11  2  0
 11 12  1  0
 12 13  2  0
 13  8  1  0
  1  2  2  0
  2  5  1  0
  5  6  2  0
  6  4  1  0
  4  3  2  0
  3  1  1  0
M  END

$$$$
