No_3739-gen_results/8p0m/2024-11-26-14-13-15/
     RDKit          3D

 16 17  0  0  0  0  0  0  0  0999 V2000
  -28.0162   -0.8135   28.8779 C   0  0  0  0  0  0  0  0  0  0  0  0
  -27.0636   -0.1190   28.6079 C   0  0  0  0  0  0  0  0  0  0  0  0
  -25.7923   -0.4302   29.0761 C   0  0  0  0  0  0  0  0  0  0  0  0
  -25.5756   -1.5654   29.9363 C   0  0  0  0  0  0  0  0  0  0  0  0
  -26.7354   -2.3004   30.2173 C   0  0  0  0  0  0  0  0  0  0  0  0
  -27.9184   -1.9537   29.7629 C   0  0  0  0  0  0  0  0  0  0  0  0
  -27.1059    1.0338   27.8185 N   0  0  0  0  0  0  0  0  0  0  0  0
  -26.2610    1.3293   26.9037 C   0  0  0  0  0  0  0  0  0  0  0  0
  -28.5120    1.3344   27.4111 C   0  0  0  0  0  0  0  0  0  0  0  0
  -25.4787    2.3096   27.0866 C   0  0  0  0  0  0  0  0  0  0  0  0
  -24.2086    2.5846   26.3604 C   0  0  0  0  0  0  0  0  0  0  0  0
  -23.3859    3.6980   26.7867 C   0  0  0  0  0  0  0  0  0  0  0  0
  -25.6404    3.3615   28.1497 C   0  0  0  0  0  0  0  0  0  0  0  0
  -24.8731    4.4494   28.3735 C   0  0  0  0  0  0  0  0  0  0  0  0
  -25.2082    5.3762   29.3536 N   0  0  0  0  0  0  0  0  0  0  0  0
  -23.7941    4.6151   27.5836 N   0  0  0  0  0  0  0  0  0  0  0  0
  2  7  1  0
  7  8  1  0
  7  9  1  0
 14 15  1  0
  8 10  1  0
  1  2  2  0
  2  3  1  0
  3  4  2  0
  4  5  1  0
  5  6  2  0
  6  1  1  0
 10 11  2  0
 11 12  1  0
 12 16  2  0
 16 14  1  0
 14 13  2  0
 13 10  1  0
M  END

$$$$
