No_3693-gen_results/8p0m/2024-11-26-14-13-15/
     RDKit          3D

 21 22  0  0  0  0  0  0  0  0999 V2000
  -28.0162   -0.8135   28.8779 C   0  0  0  0  0  0  0  0  0  0  0  0
  -27.0636   -0.1189   28.6079 C   0  0  0  0  0  0  0  0  0  0  0  0
  -26.9716    0.7139   27.5060 C   0  0  0  0  0  0  0  0  0  0  0  0
  -28.1053    0.7744   26.6421 C   0  0  0  0  0  0  0  0  0  0  0  0
  -29.2008    0.1044   27.0527 C   0  0  0  0  0  0  0  0  0  0  0  0
  -28.0219   -1.5899   30.0879 C   0  0  0  0  0  0  0  0  0  0  0  0
  -29.1640   -0.6394   28.1484 C   0  0  0  0  0  0  0  0  0  0  0  0
  -28.8247   -1.8905   30.7103 O   0  0  0  0  0  0  0  0  0  0  0  0
  -26.8662   -2.4466   30.1323 O   0  0  0  0  0  0  0  0  0  0  0  0
  -30.3872    0.2006   26.1751 C   0  0  0  0  0  0  0  0  0  0  0  0
  -30.5969    1.0736   25.5799 Br  0  0  0  0  0  0  0  0  0  0  0  0
  -31.1367   -0.9009   26.3448 F   0  0  0  0  0  0  0  0  0  0  0  0
  -25.6906    1.4253   27.1342 C   0  0  0  0  0  0  0  0  0  0  0  0
  -25.4913    2.3579   26.3695 C   0  0  0  0  0  0  0  0  0  0  0  0
  -24.2482    3.0278   26.1123 C   0  0  0  0  0  0  0  0  0  0  0  0
  -23.0936    2.4597   26.7265 C   0  0  0  0  0  0  0  0  0  0  0  0
  -23.2635    1.2997   27.5203 C   0  0  0  0  0  0  0  0  0  0  0  0
  -24.5236    0.7942   27.7993 C   0  0  0  0  0  0  0  0  0  0  0  0
  -22.0439    0.7843   28.1796 C   0  0  0  0  0  0  0  0  0  0  0  0
  -22.1791   -0.3165   28.8723 O   0  0  0  0  0  0  0  0  0  0  0  0
  -20.9302    1.3549   28.0550 O   0  0  0  0  0  0  0  0  0  0  0  0
  1  6  1  0
  6  8  1  0
  6  9  2  0
  5 10  1  0
 10 11  1  0
 10 12  1  0
  3 13  1  0
 17 19  1  0
 19 20  2  0
 19 21  1  0
 13 14  2  0
 14 15  1  0
 15 16  2  0
 16 17  1  0
 17 18  2  0
 18 13  1  0
  1  2  2  0
  2  3  1  0
  3  4  2  0
  4  5  1  0
  5  7  2  0
  7  1  1  0
M  END

$$$$
