No_3568-gen_results/8p0m/2024-11-26-14-13-15/
     RDKit          3D

 19 21  0  0  0  0  0  0  0  0999 V2000
  -28.0162   -0.8135   28.8779 C   0  0  0  0  0  0  0  0  0  0  0  0
  -28.4690   -0.7850   29.8287 C   0  0  0  0  0  0  0  0  0  0  0  0
  -27.1356    0.2359   28.5352 C   0  0  0  0  0  0  0  0  0  0  0  0
  -26.8745    1.2825   29.3982 C   0  0  0  0  0  0  0  0  0  0  0  0
  -27.5070    1.2380   30.6295 C   0  0  0  0  0  0  0  0  0  0  0  0
  -28.3293    0.1745   30.9350 C   0  0  0  0  0  0  0  0  0  0  0  0
  -26.4077    0.3070   27.2259 C   0  0  0  0  0  0  0  0  0  0  0  0
  -25.0105    0.3902   27.3228 C   0  0  0  0  0  0  0  0  0  0  0  0
  -27.0459    0.3288   26.0049 C   0  0  0  0  0  0  0  0  0  0  0  0
  -26.2971    0.2704   24.8501 C   0  0  0  0  0  0  0  0  0  0  0  0
  -24.2723    0.2925   28.5637 C   0  0  0  0  0  0  0  0  0  0  0  0
  -22.9366    0.5915   28.5060 C   0  0  0  0  0  0  0  0  0  0  0  0
  -24.8848    0.3375   24.8953 C   0  0  0  0  0  0  0  0  0  0  0  0
  -24.2318    0.3924   26.0951 C   0  0  0  0  0  0  0  0  0  0  0  0
  -22.0627   -0.0787   29.4011 C   0  0  0  0  0  0  0  0  0  0  0  0
  -22.5231   -0.6946   30.4652 N   0  0  0  0  0  0  0  0  0  0  0  0
  -23.8377   -0.8901   30.6541 C   0  0  0  0  0  0  0  0  0  0  0  0
  -24.7564   -0.5043   29.6429 C   0  0  0  0  0  0  0  0  0  0  0  0
  -28.3231    0.1359   25.9817 F   0  0  0  0  0  0  0  0  0  0  0  0
  3  7  1  0
  7  8  1  0
  7  9  1  0
  9 10  1  0
  8 11  1  0
 10 13  1  0
  8 14  1  0
 13 14  1  0
  9 19  1  0
  1  2  2  0
  2  6  1  0
  6  5  2  0
  5  4  1  0
  4  3  2  0
  3  1  1  0
 11 12  2  0
 12 15  1  0
 15 16  2  0
 16 17  1  0
 17 18  2  0
 18 11  1  0
M  END

$$$$
