No_3890-gen_results/8p0m/2024-11-26-14-13-15/
     RDKit          3D

 19 21  0  0  0  0  0  0  0  0999 V2000
  -28.1229   -1.3353   28.4874 O   0  0  0  0  0  0  0  0  0  0  0  0
  -27.4806   -0.4044   28.7094 C   0  0  0  0  0  0  0  0  0  0  0  0
  -26.3804   -0.0867   27.9394 C   0  0  0  0  0  0  0  0  0  0  0  0
  -27.4232    0.1749   30.0549 N   0  0  0  0  0  0  0  0  0  0  0  0
  -25.8482    1.0048   27.9942 C   0  0  0  0  0  0  0  0  0  0  0  0
  -24.7250    1.4898   27.1703 C   0  0  0  0  0  0  0  0  0  0  0  0
  -23.7604    2.3802   27.6117 C   0  0  0  0  0  0  0  0  0  0  0  0
  -24.0257    2.9464   28.8409 C   0  0  0  0  0  0  0  0  0  0  0  0
  -24.9846    2.5461   29.7256 C   0  0  0  0  0  0  0  0  0  0  0  0
  -25.7931    1.5005   29.3000 C   0  0  0  0  0  0  0  0  0  0  0  0
  -26.7208    1.0841   30.2956 C   0  0  0  0  0  0  0  0  0  0  0  0
  -28.4975   -0.4584   30.9340 C   0  0  0  0  0  0  0  0  0  0  0  0
  -26.7583    1.6739   31.4770 O   0  0  0  0  0  0  0  0  0  0  0  0
  -28.5283   -1.2456   31.7992 C   0  0  0  0  0  0  0  0  0  0  0  0
  -29.5349   -1.7216   32.6174 C   0  0  0  0  0  0  0  0  0  0  0  0
  -30.7964   -1.2115   32.3356 C   0  0  0  0  0  0  0  0  0  0  0  0
  -29.8736    0.1716   30.6420 C   0  0  0  0  0  0  0  0  0  0  0  0
  -30.9129   -0.2362   31.3820 C   0  0  0  0  0  0  0  0  0  0  0  0
  -32.4591    0.4621   31.0788 Cl  0  0  0  0  0  0  0  0  0  0  0  0
  1  2  2  0
  2  3  1  0
  2  4  1  0
  3  5  1  0
  4 11  1  0
 10 11  1  0
  4 12  1  0
 11 13  2  0
 18 19  1  0
 12 14  2  0
 14 15  1  0
 15 16  2  0
 16 18  1  0
 18 17  2  0
 17 12  1  0
  5  6  2  0
  6  7  1  0
  7  8  2  0
  8  9  1  0
  9 10  2  0
 10  5  1  0
M  END

$$$$
