No_3721-gen_results/8p0m/2024-11-26-14-13-15/
     RDKit          3D

 35 38  0  0  0  0  0  0  0  0999 V2000
  -28.0162   -0.8135   28.8779 C   0  0  0  0  0  0  0  0  0  0  0  0
  -28.4690   -0.7850   29.8287 C   0  0  0  0  0  0  0  0  0  0  0  0
  -26.5042   -0.7777   28.8766 C   0  0  0  0  0  0  0  0  0  0  0  0
  -25.8103   -0.8531   30.1028 C   0  0  0  0  0  0  0  0  0  0  0  0
  -27.9906   -0.8916   31.2257 C   0  0  0  0  0  0  0  0  0  0  0  0
  -26.6042   -0.8676   31.2652 C   0  0  0  0  0  0  0  0  0  0  0  0
  -24.5534   -0.7870   30.1406 F   0  0  0  0  0  0  0  0  0  0  0  0
  -30.0954   -0.8409   29.8497 C   0  0  0  0  0  0  0  0  0  0  0  0
  -30.5236   -0.4692   28.9258 O   0  0  0  0  0  0  0  0  0  0  0  0
  -30.7799   -1.3301   30.9281 N   0  0  0  0  0  0  0  0  0  0  0  0
  -31.7790   -1.6386   31.0405 C   0  0  0  0  0  0  0  0  0  0  0  0
  -32.7299   -1.5960   30.3847 C   0  0  0  0  0  0  0  0  0  0  0  0
  -34.0461   -2.0910   30.6691 N   0  0  0  0  0  0  0  0  0  0  0  0
  -32.2321   -2.3293   32.3785 C   0  0  0  0  0  0  0  0  0  0  0  0
  -33.4252   -2.7803   32.7248 C   0  0  0  0  0  0  0  0  0  0  0  0
  -34.3675   -2.5987   31.7530 C   0  0  0  0  0  0  0  0  0  0  0  0
  -35.6512   -3.0033   31.9240 N   0  0  0  0  0  0  0  0  0  0  0  0
  -35.9964   -4.0578   32.5429 C   0  0  0  0  0  0  0  0  0  0  0  0
  -36.4944   -5.1103   32.1565 C   0  0  0  0  0  0  0  0  0  0  0  0
  -36.8415   -6.2816   32.9371 C   0  0  0  0  0  0  0  0  0  0  0  0
  -36.5609   -6.2286   34.3188 C   0  0  0  0  0  0  0  0  0  0  0  0
  -35.9931   -5.0917   34.8239 C   0  0  0  0  0  0  0  0  0  0  0  0
  -35.6667   -3.9817   34.0653 C   0  0  0  0  0  0  0  0  0  0  0  0
  -36.7427   -2.2824   31.3277 C   0  0  0  0  0  0  0  0  0  0  0  0
  -37.1370   -2.6258   30.0683 C   0  0  0  0  0  0  0  0  0  0  0  0
  -38.0988   -1.9908   29.5251 C   0  0  0  0  0  0  0  0  0  0  0  0
  -37.2767   -1.2731   32.0577 C   0  0  0  0  0  0  0  0  0  0  0  0
  -38.3306   -0.5561   31.5367 C   0  0  0  0  0  0  0  0  0  0  0  0
  -38.7570   -0.9050   30.2430 C   0  0  0  0  0  0  0  0  0  0  0  0
  -40.1261   -0.0305   29.4847 P   0  0  0  0  0  0  0  0  0  0  0  0
  -40.6636   -0.7406   28.4352 O   0  0  0  0  0  0  0  0  0  0  0  0
  -40.5384    0.5249   30.4506 O   0  0  0  0  0  0  0  0  0  0  0  0
  -39.0361    1.0215   28.6903 O   0  0  0  0  0  0  0  0  0  0  0  0
  -37.6132   -7.5759   32.2361 Cl  0  0  0  0  0  0  0  0  0  0  0  0
  -39.4279    1.8662   27.8479 C   0  0  0  0  0  0  0  0  0  0  0  0
  4  7  1  0
  2  8  1  0
  8  9  2  0
  8 10  1  0
 16 17  1  0
 17 18  1  0
 17 24  1  0
 29 30  1  0
 30 31  2  0
 30 32  1  0
 30 33  1  0
 20 34  1  0
 33 35  1  0
 10 11  1  0
 18 19  2  0
 19 20  1  0
 20 21  2  0
 21 22  1  0
 22 23  2  0
 23 18  1  0
 24 25  2  0
 25 26  1  0
 26 29  2  0
 29 28  1  0
 28 27  2  0
 27 24  1  0
  1  2  2  0
  2  5  1  0
  5  6  2  0
  6  4  1  0
  4  3  2  0
  3  1  1  0
 11 12  2  0
 12 13  1  0
 13 16  2  0
 16 15  1  0
 15 14  2  0
 14 11  1  0
M  END

$$$$
