No_3839-gen_results/8p0m/2024-11-26-14-13-15/
     RDKit          3D

 17 19  0  0  0  0  0  0  0  0999 V2000
  -28.0162   -0.8135   28.8779 C   0  0  0  0  0  0  0  0  0  0  0  0
  -27.0636   -0.1189   28.6079 C   0  0  0  0  0  0  0  0  0  0  0  0
  -26.9716    0.7139   27.5060 C   0  0  0  0  0  0  0  0  0  0  0  0
  -28.1053    0.7744   26.6421 C   0  0  0  0  0  0  0  0  0  0  0  0
  -29.2041    0.1179   27.0477 C   0  0  0  0  0  0  0  0  0  0  0  0
  -29.2127   -0.6088   28.1281 C   0  0  0  0  0  0  0  0  0  0  0  0
  -25.7106    1.4519   27.1380 C   0  0  0  0  0  0  0  0  0  0  0  0
  -25.3772    2.0455   26.1737 C   0  0  0  0  0  0  0  0  0  0  0  0
  -24.0750    2.7193   25.9782 C   0  0  0  0  0  0  0  0  0  0  0  0
  -23.1297    2.3728   26.9226 C   0  0  0  0  0  0  0  0  0  0  0  0
  -24.2225    1.2888   27.9349 C   0  0  0  0  0  0  0  0  0  0  0  0
  -23.7647    0.6299   28.9640 C   0  0  0  0  0  0  0  0  0  0  0  0
  -23.7964    1.1449   30.1873 C   0  0  0  0  0  0  0  0  0  0  0  0
  -23.3037   -0.6960   28.7536 C   0  0  0  0  0  0  0  0  0  0  0  0
  -22.9730   -1.5302   29.8438 C   0  0  0  0  0  0  0  0  0  0  0  0
  -23.4799    0.3762   31.3482 C   0  0  0  0  0  0  0  0  0  0  0  0
  -23.0559   -0.9837   31.1422 C   0  0  0  0  0  0  0  0  0  0  0  0
  3  7  1  0
  7  8  2  0
  8  9  1  0
  9 10  2  0
  7 11  1  0
 10 11  1  0
 11 12  1  0
  1  2  2  0
  2  3  1  0
  3  4  2  0
  4  5  1  0
  5  6  2  0
  6  1  1  0
 12 13  2  0
 13 16  1  0
 16 17  2  0
 17 15  1  0
 15 14  2  0
 14 12  1  0
M  END

$$$$
