No_3699-gen_results/8p0m/2024-11-26-14-13-15/
     RDKit          3D

 21 22  0  0  0  0  0  0  0  0999 V2000
  -28.0162   -0.8135   28.8779 C   0  0  0  0  0  0  0  0  0  0  0  0
  -28.4690   -0.7850   29.8287 C   0  0  0  0  0  0  0  0  0  0  0  0
  -26.5042   -0.7777   28.8766 C   0  0  0  0  0  0  0  0  0  0  0  0
  -25.8103   -0.8531   30.1028 C   0  0  0  0  0  0  0  0  0  0  0  0
  -27.9906   -0.8916   31.2257 C   0  0  0  0  0  0  0  0  0  0  0  0
  -24.3976   -0.8364   30.1775 C   0  0  0  0  0  0  0  0  0  0  0  0
  -26.5754   -0.8899   31.2661 C   0  0  0  0  0  0  0  0  0  0  0  0
  -23.6362   -0.9045   29.1560 C   0  0  0  0  0  0  0  0  0  0  0  0
  -22.3345   -0.3811   29.1423 C   0  0  0  0  0  0  0  0  0  0  0  0
  -21.8837    0.6212   28.7109 C   0  0  0  0  0  0  0  0  0  0  0  0
  -22.7465    1.6442   28.1367 C   0  0  0  0  0  0  0  0  0  0  0  0
  -23.8792    1.6111   27.7624 C   0  0  0  0  0  0  0  0  0  0  0  0
  -24.5543    2.7534   27.2288 C   0  0  0  0  0  0  0  0  0  0  0  0
  -25.5011    3.2817   27.4224 C   0  0  0  0  0  0  0  0  0  0  0  0
  -26.3029    2.7513   28.5140 C   0  0  0  0  0  0  0  0  0  0  0  0
  -27.6031    3.2687   28.7525 C   0  0  0  0  0  0  0  0  0  0  0  0
  -27.9706    4.3483   28.0319 C   0  0  0  0  0  0  0  0  0  0  0  0
  -27.2886    4.9416   27.0553 C   0  0  0  0  0  0  0  0  0  0  0  0
  -26.0665    4.4392   26.7265 C   0  0  0  0  0  0  0  0  0  0  0  0
  -23.8434   -0.7652   31.5491 C   0  0  0  0  0  0  0  0  0  0  0  0
  -30.3059   -0.8203   29.8070 Cl  0  0  0  0  0  0  0  0  0  0  0  0
  4  6  1  0
  6  8  2  3
  8  9  1  0
  9 10  1  0
 10 11  1  0
 11 12  2  3
 12 13  1  0
  6 20  1  0
  2 21  1  0
 13 14  1  0
 14 15  2  0
 15 16  1  0
 16 17  2  0
 17 18  1  0
 18 19  2  0
 19 14  1  0
  1  2  2  0
  2  5  1  0
  5  7  2  0
  7  4  1  0
  4  3  2  0
  3  1  1  0
M  END

$$$$
