No_3108-gen_results/8p0m/2024-11-26-14-13-15/
     RDKit          3D

 13 14  0  0  0  0  0  0  0  0999 V2000
  -28.0162   -0.8135   28.8779 C   0  0  0  0  0  0  0  0  0  0  0  0
  -28.4690   -0.7850   29.8287 C   0  0  0  0  0  0  0  0  0  0  0  0
  -27.1356    0.2359   28.5352 C   0  0  0  0  0  0  0  0  0  0  0  0
  -26.8745    1.2825   29.3982 C   0  0  0  0  0  0  0  0  0  0  0  0
  -28.3613    0.1987   30.9244 C   0  0  0  0  0  0  0  0  0  0  0  0
  -27.5277    1.2234   30.6356 C   0  0  0  0  0  0  0  0  0  0  0  0
  -26.3987    0.2949   27.2279 C   0  0  0  0  0  0  0  0  0  0  0  0
  -25.8882    1.5487   26.8334 C   0  0  0  0  0  0  0  0  0  0  0  0
  -25.5177    2.4958   27.7684 C   0  0  0  0  0  0  0  0  0  0  0  0
  -26.1831    2.4486   29.0453 C   0  0  0  0  0  0  0  0  0  0  0  0
  -25.9569    3.4700   29.8828 O   0  0  0  0  0  0  0  0  0  0  0  0
  -24.7477    3.7114   27.3187 C   0  0  0  0  0  0  0  0  0  0  0  0
  -29.5459   -2.4040   30.2719 Br  0  0  0  0  0  0  0  0  0  0  0  0
  3  7  1  0
  7  8  1  0
  4 10  1  0
  9 10  1  0
 10 11  2  0
  9 12  1  0
  2 13  1  0
  8  9  1  0
  1  2  2  0
  2  5  1  0
  5  6  2  0
  6  4  1  0
  4  3  2  0
  3  1  1  0
M  END

$$$$
