No_3497-gen_results/8p0m/2024-11-26-14-13-15/
     RDKit          3D

 12 12  0  0  0  0  0  0  0  0999 V2000
  -28.0162   -0.8135   28.8779 C   0  0  0  0  0  0  0  0  0  0  0  0
  -27.0636   -0.1190   28.6079 C   0  0  0  0  0  0  0  0  0  0  0  0
  -26.9716    0.7139   27.5060 C   0  0  0  0  0  0  0  0  0  0  0  0
  -28.1053    0.7744   26.6421 C   0  0  0  0  0  0  0  0  0  0  0  0
  -29.2008    0.1044   27.0527 C   0  0  0  0  0  0  0  0  0  0  0  0
  -29.2096   -0.6029   28.1853 C   0  0  0  0  0  0  0  0  0  0  0  0
  -30.5720    0.2423   26.0548 Cl  0  0  0  0  0  0  0  0  0  0  0  0
  -25.7026   -0.2359   29.4139 C   0  0  0  0  0  0  0  0  0  0  0  0
  -25.4859   -0.5809   30.4038 N   0  0  0  0  0  0  0  0  0  0  0  0
  -24.6796    0.4889   28.8937 O   0  0  0  0  0  0  0  0  0  0  0  0
  -24.2682   -0.6566   31.1931 C   0  0  0  0  0  0  0  0  0  0  0  0
  -23.2794   -0.1142   31.0125 C   0  0  0  0  0  0  0  0  0  0  0  0
  5  7  1  0
  2  8  1  0
  8  9  1  0
  8 10  2  0
  9 11  1  0
 11 12  2  0
  1  2  2  0
  2  3  1  0
  3  4  2  0
  4  5  1  0
  5  6  2  0
  6  1  1  0
M  END

$$$$
