No_3099-gen_results/8p0m/2024-11-26-14-13-15/
     RDKit          3D

 15 16  0  0  0  0  0  0  0  0999 V2000
  -28.0162   -0.8135   28.8779 C   0  0  0  0  0  0  0  0  0  0  0  0
  -27.0636   -0.1190   28.6079 C   0  0  0  0  0  0  0  0  0  0  0  0
  -26.9716    0.7139   27.5060 C   0  0  0  0  0  0  0  0  0  0  0  0
  -25.8205    1.4909   27.1160 C   0  0  0  0  0  0  0  0  0  0  0  0
  -24.6562    1.4242   27.9180 C   0  0  0  0  0  0  0  0  0  0  0  0
  -24.6847    0.5901   29.0659 C   0  0  0  0  0  0  0  0  0  0  0  0
  -25.8099   -0.1266   29.3338 C   0  0  0  0  0  0  0  0  0  0  0  0
  -28.0445   -1.5734   30.1690 C   0  0  0  0  0  0  0  0  0  0  0  0
  -26.8173   -1.7595   30.8704 C   0  0  0  0  0  0  0  0  0  0  0  0
  -25.7143   -0.8511   30.6023 C   0  0  0  0  0  0  0  0  0  0  0  0
  -23.4496    2.2109   27.5602 C   0  0  0  0  0  0  0  0  0  0  0  0
  -22.3857    1.3489   26.9961 C   0  0  0  0  0  0  0  0  0  0  0  0
  -28.0901    0.7953   26.5358 C   0  0  0  0  0  0  0  0  0  0  0  0
  -29.1266    0.9069   26.7600 O   0  0  0  0  0  0  0  0  0  0  0  0
  -27.7080    0.5622   25.1955 N   0  0  0  0  0  0  0  0  0  0  0  0
  5 11  1  0
 11 12  1  0
  3 13  1  0
 13 14  2  0
 13 15  1  0
  2  3  1  0
  3  4  2  0
  4  5  1  0
  5  6  2  0
  6  7  1  0
  1  2  2  0
  2  7  1  0
  7 10  2  0
 10  9  1  0
  9  8  2  0
  8  1  1  0
M  END

$$$$
