No_3783-gen_results/8p0m/2024-11-26-14-13-15/
     RDKit          3D

 27 30  0  0  0  0  0  0  0  0999 V2000
  -28.0162   -0.8135   28.8779 C   0  0  0  0  0  0  0  0  0  0  0  0
  -27.0636   -0.1189   28.6079 C   0  0  0  0  0  0  0  0  0  0  0  0
  -25.7647   -0.3897   29.0360 C   0  0  0  0  0  0  0  0  0  0  0  0
  -24.5516    0.4058   28.7646 C   0  0  0  0  0  0  0  0  0  0  0  0
  -23.2300    0.1178   29.2575 C   0  0  0  0  0  0  0  0  0  0  0  0
  -22.1393    0.9427   28.9224 C   0  0  0  0  0  0  0  0  0  0  0  0
  -27.8294   -1.9287   29.8545 C   0  0  0  0  0  0  0  0  0  0  0  0
  -26.5882   -2.3272   30.2682 C   0  0  0  0  0  0  0  0  0  0  0  0
  -25.4565   -1.5432   29.9146 C   0  0  0  0  0  0  0  0  0  0  0  0
  -22.2302    1.9089   27.8723 C   0  0  0  0  0  0  0  0  0  0  0  0
  -24.5538    1.4700   27.7617 C   0  0  0  0  0  0  0  0  0  0  0  0
  -23.4471    2.1666   27.3764 C   0  0  0  0  0  0  0  0  0  0  0  0
  -28.9783   -2.7708   30.2578 C   0  0  0  0  0  0  0  0  0  0  0  0
  -28.9057   -3.9951   30.3320 O   0  0  0  0  0  0  0  0  0  0  0  0
  -30.1178   -2.1689   30.6277 N   0  0  0  0  0  0  0  0  0  0  0  0
  -31.2828   -2.9459   31.0606 C   0  0  0  0  0  0  0  0  0  0  0  0
  -32.2391   -2.1888   31.4694 C   0  0  0  0  0  0  0  0  0  0  0  0
  -33.2042   -2.4102   32.0048 C   0  0  0  0  0  0  0  0  0  0  0  0
  -31.9056   -0.6639   31.5179 C   0  0  0  0  0  0  0  0  0  0  0  0
  -32.8990    0.3033   31.9252 C   0  0  0  0  0  0  0  0  0  0  0  0
  -34.3160   -1.5128   32.4649 C   0  0  0  0  0  0  0  0  0  0  0  0
  -34.0404   -0.1754   32.4532 C   0  0  0  0  0  0  0  0  0  0  0  0
  -32.5222    1.7264   31.8658 C   0  0  0  0  0  0  0  0  0  0  0  0
  -33.1262    2.5704   32.3261 O   0  0  0  0  0  0  0  0  0  0  0  0
  -31.1659    1.9513   31.5083 N   0  0  0  0  0  0  0  0  0  0  0  0
  -30.2833    1.0103   30.9748 C   0  0  0  0  0  0  0  0  0  0  0  0
  -30.6345   -0.2151   31.0467 C   0  0  0  0  0  0  0  0  0  0  0  0
  3  4  1  0
  7 13  1  0
 13 14  2  0
 13 15  1  0
 15 16  1  0
 16 17  1  0
 20 23  1  0
 23 24  2  0
 23 25  1  0
 19 27  1  0
 26 27  1  0
 26 25  1  0
 17 18  2  0
 18 21  1  0
 21 22  2  0
 22 20  1  0
 20 19  2  0
 19 17  1  0
  1  2  2  0
  2  3  1  0
  3  9  2  0
  9  8  1  0
  8  7  2  0
  7  1  1  0
  4  5  2  0
  5  6  1  0
  6 10  2  0
 10 12  1  0
 12 11  2  0
 11  4  1  0
M  END

$$$$
