No_3-gen_results/8p0m/2024-11-26-14-13-15/
     RDKit          3D

 13 13  0  0  0  0  0  0  0  0999 V2000
  -28.0162   -0.8135   28.8779 C   0  0  0  0  0  0  0  0  0  0  0  0
  -28.4690   -0.7850   29.8287 C   0  0  0  0  0  0  0  0  0  0  0  0
  -26.5042   -0.7777   28.8766 C   0  0  0  0  0  0  0  0  0  0  0  0
  -25.6540   -0.6597   27.7191 C   0  0  0  0  0  0  0  0  0  0  0  0
  -27.9180   -0.9374   31.1824 C   0  0  0  0  0  0  0  0  0  0  0  0
  -26.5423   -0.9399   31.2606 C   0  0  0  0  0  0  0  0  0  0  0  0
  -25.7832   -0.8935   30.1201 C   0  0  0  0  0  0  0  0  0  0  0  0
  -24.5285   -1.2244   27.7836 F   0  0  0  0  0  0  0  0  0  0  0  0
  -25.4143    0.6864   27.4207 F   0  0  0  0  0  0  0  0  0  0  0  0
  -26.3277   -1.0051   26.5536 F   0  0  0  0  0  0  0  0  0  0  0  0
  -30.0525   -0.8138   29.8905 C   0  0  0  0  0  0  0  0  0  0  0  0
  -30.6714   -0.1896   30.7876 O   0  0  0  0  0  0  0  0  0  0  0  0
  -30.6356   -1.3740   28.9411 O   0  0  0  0  0  0  0  0  0  0  0  0
  3  4  1  0
  4  8  1  0
  4  9  1  0
  4 10  1  0
  2 11  1  0
 11 12  2  0
 11 13  1  0
  1  2  2  0
  2  5  1  0
  5  6  2  0
  6  7  1  0
  7  3  2  0
  3  1  1  0
M  END

$$$$
