No_3579-gen_results/8p0m/2024-11-26-14-13-15/
     RDKit          3D

 16 18  0  0  0  0  0  0  0  0999 V2000
  -28.0162   -0.8135   28.8779 C   0  0  0  0  0  0  0  0  0  0  0  0
  -28.4690   -0.7850   29.8287 C   0  0  0  0  0  0  0  0  0  0  0  0
  -28.1960    0.3478   28.0550 C   0  0  0  0  0  0  0  0  0  0  0  0
  -29.0191    1.3501   28.3782 C   0  0  0  0  0  0  0  0  0  0  0  0
  -29.4107    0.1803   30.3782 C   0  0  0  0  0  0  0  0  0  0  0  0
  -29.2236    2.4924   27.5425 C   0  0  0  0  0  0  0  0  0  0  0  0
  -29.5873    1.2242   29.6185 C   0  0  0  0  0  0  0  0  0  0  0  0
  -28.8767    3.6034   28.0657 C   0  0  0  0  0  0  0  0  0  0  0  0
  -28.1469    3.7730   29.1607 C   0  0  0  0  0  0  0  0  0  0  0  0
  -27.3959    4.6814   29.5134 C   0  0  0  0  0  0  0  0  0  0  0  0
  -26.5913    4.7201   30.7352 C   0  0  0  0  0  0  0  0  0  0  0  0
  -26.6373    3.5579   31.5450 C   0  0  0  0  0  0  0  0  0  0  0  0
  -27.4106    2.5259   31.1520 C   0  0  0  0  0  0  0  0  0  0  0  0
  -28.0587    2.5957   30.0679 C   0  0  0  0  0  0  0  0  0  0  0  0
  -29.0011    1.7353   29.9333 C   0  0  0  0  0  0  0  0  0  0  0  0
  -29.4971    2.2150   31.1537 F   0  0  0  0  0  0  0  0  0  0  0  0
  4  6  1  0
  6  8  1  0
  7 15  1  0
 14 15  1  0
 15 16  1  0
  8  9  1  0
  9 10  2  0
 10 11  1  0
 11 12  2  0
 12 13  1  0
 13 14  2  0
 14  9  1  0
  1  2  2  0
  2  5  1  0
  5  7  2  0
  7  4  1  0
  4  3  2  0
  3  1  1  0
M  END

$$$$
