No_367-gen_results/8p0m/2024-11-26-14-13-15/
     RDKit          3D

 16 17  0  0  0  0  0  0  0  0999 V2000
  -28.0162   -0.8135   28.8779 C   0  0  0  0  0  0  0  0  0  0  0  0
  -28.4690   -0.7850   29.8287 C   0  0  0  0  0  0  0  0  0  0  0  0
  -27.0871    0.2903   28.6377 C   0  0  0  0  0  0  0  0  0  0  0  0
  -26.7676    1.0274   29.4716 C   0  0  0  0  0  0  0  0  0  0  0  0
  -29.4593   -1.9217   30.2024 C   0  0  0  0  0  0  0  0  0  0  0  0
  -27.3079    1.0334   30.7802 C   0  0  0  0  0  0  0  0  0  0  0  0
  -28.2256   -0.0215   31.0470 C   0  0  0  0  0  0  0  0  0  0  0  0
  -29.9014   -1.8474   31.4731 O   0  0  0  0  0  0  0  0  0  0  0  0
  -26.3741    0.3458   27.2383 C   0  0  0  0  0  0  0  0  0  0  0  0
  -25.2296    0.9112   27.0527 C   0  0  0  0  0  0  0  0  0  0  0  0
  -24.6180    1.2356   25.9427 C   0  0  0  0  0  0  0  0  0  0  0  0
  -23.3481    1.9119   25.7990 C   0  0  0  0  0  0  0  0  0  0  0  0
  -22.6965    2.1874   27.0566 C   0  0  0  0  0  0  0  0  0  0  0  0
  -24.2388    1.3270   28.1474 C   0  0  0  0  0  0  0  0  0  0  0  0
  -23.1449    1.7097   28.0710 C   0  0  0  0  0  0  0  0  0  0  0  0
  -27.0236   -0.0621   26.2249 O   0  0  0  0  0  0  0  0  0  0  0  0
  2  5  1  0
  5  8  1  0
  3  9  1  0
  9 10  1  0
  9 16  2  0
 10 11  2  0
 11 12  1  0
 12 13  2  0
 13 15  1  0
 15 14  2  0
 14 10  1  0
  1  2  2  0
  2  7  1  0
  7  6  2  0
  6  4  1  0
  4  3  2  0
  3  1  1  0
M  END

$$$$
