No_373-gen_results/8p0m/2024-11-26-14-13-15/
     RDKit          3D

 20 21  0  0  0  0  0  0  0  0999 V2000
  -28.0162   -0.8135   28.8779 C   0  0  0  0  0  0  0  0  0  0  0  0
  -28.4690   -0.7850   29.8287 C   0  0  0  0  0  0  0  0  0  0  0  0
  -27.1356    0.2359   28.5352 C   0  0  0  0  0  0  0  0  0  0  0  0
  -26.8745    1.2825   29.3982 C   0  0  0  0  0  0  0  0  0  0  0  0
  -28.3613    0.1987   30.9244 C   0  0  0  0  0  0  0  0  0  0  0  0
  -27.5277    1.2234   30.6356 C   0  0  0  0  0  0  0  0  0  0  0  0
  -26.3879    0.2914   27.2334 C   0  0  0  0  0  0  0  0  0  0  0  0
  -26.4937    0.9729   26.2859 C   0  0  0  0  0  0  0  0  0  0  0  0
  -27.4763    2.0646   26.3647 C   0  0  0  0  0  0  0  0  0  0  0  0
  -28.8199    2.0498   26.2008 Cl  0  0  0  0  0  0  0  0  0  0  0  0
  -26.6902    3.3781   26.6164 C   0  0  0  0  0  0  0  0  0  0  0  0
  -25.3628    3.4006   26.4920 C   0  0  0  0  0  0  0  0  0  0  0  0
  -24.5506    2.3146   26.1217 C   0  0  0  0  0  0  0  0  0  0  0  0
  -25.1011    1.1174   26.1587 C   0  0  0  0  0  0  0  0  0  0  0  0
  -25.5407   -1.0981   27.0561 C   0  0  0  0  0  0  0  0  0  0  0  0
  -23.0754    2.4570   26.0420 C   0  0  0  0  0  0  0  0  0  0  0  0
  -22.5291    1.8224   27.0692 F   0  0  0  0  0  0  0  0  0  0  0  0
  -22.6234    1.9483   24.8978 F   0  0  0  0  0  0  0  0  0  0  0  0
  -22.7525    3.7141   26.0609 F   0  0  0  0  0  0  0  0  0  0  0  0
  -24.4585    0.2276   25.5498 O   0  0  0  0  0  0  0  0  0  0  0  0
  3  7  1  0
  8  9  1  0
  9 10  1  0
  9 11  1  0
 11 12  1  0
  8 14  1  0
 13 14  1  0
  7 15  1  0
 13 16  1  0
 16 17  1  0
 16 18  1  0
 16 19  1  0
 14 20  2  0
  7  8  1  0
 12 13  1  0
  1  2  2  0
  2  5  1  0
  5  6  2  0
  6  4  1  0
  4  3  2  0
  3  1  1  0
M  END

$$$$
