No_306-gen_results/8p0m/2024-11-26-14-13-15/
     RDKit          3D

 24 26  0  0  0  0  0  0  0  0999 V2000
  -28.0162   -0.8135   28.8779 C   0  0  0  0  0  0  0  0  0  0  0  0
  -27.0636   -0.1189   28.6079 C   0  0  0  0  0  0  0  0  0  0  0  0
  -26.9716    0.7139   27.5060 C   0  0  0  0  0  0  0  0  0  0  0  0
  -28.1053    0.7744   26.6421 C   0  0  0  0  0  0  0  0  0  0  0  0
  -29.2008    0.1044   27.0527 C   0  0  0  0  0  0  0  0  0  0  0  0
  -29.2096   -0.6029   28.1853 C   0  0  0  0  0  0  0  0  0  0  0  0
  -30.3702    0.2264   26.1604 C   0  0  0  0  0  0  0  0  0  0  0  0
  -30.4773    0.3993   24.5926 Cl  0  0  0  0  0  0  0  0  0  0  0  0
  -31.5757   -0.0377   26.7857 O   0  0  0  0  0  0  0  0  0  0  0  0
  -25.6991   -0.2231   29.4289 C   0  0  0  0  0  0  0  0  0  0  0  0
  -24.5321   -0.1565   28.8556 C   0  0  0  0  0  0  0  0  0  0  0  0
  -23.2966   -0.1420   29.5966 C   0  0  0  0  0  0  0  0  0  0  0  0
  -23.3745   -0.6138   30.9080 C   0  0  0  0  0  0  0  0  0  0  0  0
  -24.6187   -0.7741   31.5487 C   0  0  0  0  0  0  0  0  0  0  0  0
  -25.8022   -0.6193   30.8001 C   0  0  0  0  0  0  0  0  0  0  0  0
  -22.0456    0.0568   28.9381 C   0  0  0  0  0  0  0  0  0  0  0  0
  -21.2180    0.7862   28.5176 N   0  0  0  0  0  0  0  0  0  0  0  0
  -32.5901   -0.6079   26.2507 C   0  0  0  0  0  0  0  0  0  0  0  0
  -32.6631   -1.9511   26.2510 C   0  0  0  0  0  0  0  0  0  0  0  0
  -33.5312   -2.6455   25.5426 C   0  0  0  0  0  0  0  0  0  0  0  0
  -33.5257   -4.1144   25.5494 C   0  0  0  0  0  0  0  0  0  0  0  0
  -32.5639   -4.7889   26.3115 C   0  0  0  0  0  0  0  0  0  0  0  0
  -31.6816   -4.0645   27.0882 C   0  0  0  0  0  0  0  0  0  0  0  0
  -31.7123   -2.7172   27.0495 C   0  0  0  0  0  0  0  0  0  0  0  0
  5  7  1  0
  7  8  1  0
  7  9  1  0
  2 10  1  0
 12 16  1  0
 16 17  3  0
  9 18  1  0
 18 19  1  0
  1  2  2  0
  2  3  1  0
  3  4  2  0
  4  5  1  0
  5  6  2  0
  6  1  1  0
 10 11  2  0
 11 12  1  0
 12 13  2  0
 13 14  1  0
 14 15  2  0
 15 10  1  0
 19 20  2  0
 20 21  1  0
 21 22  2  0
 22 23  1  0
 23 24  2  0
 24 19  1  0
M  END

$$$$
