No_3793-gen_results/8p0m/2024-11-26-14-13-15/
     RDKit          3D

 11 11  0  0  0  0  0  0  0  0999 V2000
  -28.0162   -0.8135   28.8779 C   0  0  0  0  0  0  0  0  0  0  0  0
  -28.4690   -0.7850   29.8287 C   0  0  0  0  0  0  0  0  0  0  0  0
  -28.1960    0.3478   28.0550 C   0  0  0  0  0  0  0  0  0  0  0  0
  -29.0191    1.3501   28.3782 C   0  0  0  0  0  0  0  0  0  0  0  0
  -29.6249    1.2683   29.6012 C   0  0  0  0  0  0  0  0  0  0  0  0
  -29.3821    0.1816   30.4004 C   0  0  0  0  0  0  0  0  0  0  0  0
  -27.5064    0.3551   26.8163 O   0  0  0  0  0  0  0  0  0  0  0  0
  -27.5355    1.0036   25.9118 C   0  0  0  0  0  0  0  0  0  0  0  0
  -30.5329    2.3228   30.0483 C   0  0  0  0  0  0  0  0  0  0  0  0
  -31.2826    2.8385   29.5250 N   0  0  0  0  0  0  0  0  0  0  0  0
  -32.0926    3.8797   30.0135 C   0  0  0  0  0  0  0  0  0  0  0  0
  3  7  1  0
  7  8  1  0
  5  9  1  0
  9 10  2  3
 10 11  1  0
  1  2  2  0
  2  6  1  0
  6  5  2  0
  5  4  1  0
  4  3  2  0
  3  1  1  0
M  END

$$$$
