No_3248-gen_results/8p0m/2024-11-26-14-13-15/
     RDKit          3D

 23 27  0  0  0  0  0  0  0  0999 V2000
  -28.0162   -0.8135   28.8779 C   0  0  0  0  0  0  0  0  0  0  0  0
  -27.0636   -0.1189   28.6079 C   0  0  0  0  0  0  0  0  0  0  0  0
  -27.0010    0.6913   27.4910 C   0  0  0  0  0  0  0  0  0  0  0  0
  -25.8548    1.4825   27.0830 C   0  0  0  0  0  0  0  0  0  0  0  0
  -24.6901    1.4526   27.8807 C   0  0  0  0  0  0  0  0  0  0  0  0
  -24.7379    0.6010   29.0416 C   0  0  0  0  0  0  0  0  0  0  0  0
  -25.8234   -0.1688   29.3887 C   0  0  0  0  0  0  0  0  0  0  0  0
  -29.2455   -0.0678   29.1937 C   0  0  0  0  0  0  0  0  0  0  0  0
  -29.5938    0.1182   30.4252 C   0  0  0  0  0  0  0  0  0  0  0  0
  -28.6786   -0.0141   31.4308 C   0  0  0  0  0  0  0  0  0  0  0  0
  -28.9486   -0.0817   32.6749 C   0  0  0  0  0  0  0  0  0  0  0  0
  -27.9042   -0.3023   33.6514 C   0  0  0  0  0  0  0  0  0  0  0  0
  -26.5561   -0.4172   33.2558 C   0  0  0  0  0  0  0  0  0  0  0  0
  -26.3120   -0.3869   31.9316 C   0  0  0  0  0  0  0  0  0  0  0  0
  -27.2969   -0.1771   31.0244 C   0  0  0  0  0  0  0  0  0  0  0  0
  -26.7266   -0.0934   29.8944 N   0  0  0  0  0  0  0  0  0  0  0  0
  -26.3643    1.3917   30.0591 N   0  0  0  0  0  0  0  0  0  0  0  0
  -25.5992    2.3262   30.3232 C   0  0  0  0  0  0  0  0  0  0  0  0
  -24.2660    1.6755   30.2793 C   0  0  0  0  0  0  0  0  0  0  0  0
  -27.5717    2.3120   29.6966 C   0  0  0  0  0  0  0  0  0  0  0  0
  -27.4657    3.5423   30.3399 C   0  0  0  0  0  0  0  0  0  0  0  0
  -25.9554    3.6734   30.3060 C   0  0  0  0  0  0  0  0  0  0  0  0
  -25.8380    2.1803   25.8060 C   0  0  0  0  0  0  0  0  0  0  0  0
  1  2  1  0
  1  8  1  0
  8  9  2  3
  9 10  1  0
  7 16  1  0
 15 16  1  0
 16 17  1  0
 17 18  1  0
  6 19  1  0
 18 19  1  0
 17 20  1  0
 20 21  2  0
 18 22  1  0
 21 22  1  0
  4 23  1  0
  2  3  2  0
  3  4  1  0
  4  5  2  0
  5  6  1  0
  6  7  2  0
  7  2  1  0
 10 11  2  0
 11 12  1  0
 12 13  2  0
 13 14  1  0
 14 15  2  0
 15 10  1  0
M  END

$$$$
