No_364-gen_results/8p0m/2024-11-26-14-13-15/
     RDKit          3D

  8  8  0  0  0  0  0  0  0  0999 V2000
  -28.1229   -1.3353   28.4874 O   0  0  0  0  0  0  0  0  0  0  0  0
  -27.4806   -0.4044   28.7094 C   0  0  0  0  0  0  0  0  0  0  0  0
  -26.3804   -0.0867   27.9395 C   0  0  0  0  0  0  0  0  0  0  0  0
  -27.6665    0.4468   29.8988 N   0  0  0  0  0  0  0  0  0  0  0  0
  -25.1773   -0.4388   28.3946 C   0  0  0  0  0  0  0  0  0  0  0  0
  -24.7583    0.2226   29.6633 C   0  0  0  0  0  0  0  0  0  0  0  0
  -25.5825    0.3858   30.8268 C   0  0  0  0  0  0  0  0  0  0  0  0
  -26.8288    0.6387   30.8746 C   0  0  0  0  0  0  0  0  0  0  0  0
  1  2  2  0
  2  3  1  0
  2  4  1  0
  3  5  3  0
  5  6  1  0
  6  7  2  0
  4  8  1  0
  7  8  1  0
M  END

$$$$
