No_3530-gen_results/8p0m/2024-11-26-14-13-15/
     RDKit          3D

 21 23  0  0  0  0  0  0  0  0999 V2000
  -28.0162   -0.8135   28.8779 C   0  0  0  0  0  0  0  0  0  0  0  0
  -27.0636   -0.1189   28.6079 C   0  0  0  0  0  0  0  0  0  0  0  0
  -25.7923   -0.4302   29.0761 C   0  0  0  0  0  0  0  0  0  0  0  0
  -24.5456    0.3494   28.8225 C   0  0  0  0  0  0  0  0  0  0  0  0
  -24.6586    1.4196   27.8878 C   0  0  0  0  0  0  0  0  0  0  0  0
  -25.9471    1.6811   27.3792 C   0  0  0  0  0  0  0  0  0  0  0  0
  -27.0439    0.9739   27.6871 C   0  0  0  0  0  0  0  0  0  0  0  0
  -29.2286   -0.0607   29.3105 C   0  0  0  0  0  0  0  0  0  0  0  0
  -29.1858    0.3708   30.4367 C   0  0  0  0  0  0  0  0  0  0  0  0
  -30.4182    1.0412   31.0494 C   0  0  0  0  0  0  0  0  0  0  0  0
  -30.4158    1.6203   32.3142 C   0  0  0  0  0  0  0  0  0  0  0  0
  -29.2361    1.5425   33.0717 C   0  0  0  0  0  0  0  0  0  0  0  0
  -28.0703    0.9257   32.5664 C   0  0  0  0  0  0  0  0  0  0  0  0
  -28.0458    0.3894   31.2937 C   0  0  0  0  0  0  0  0  0  0  0  0
  -23.4432    2.1313   27.5752 C   0  0  0  0  0  0  0  0  0  0  0  0
  -22.2310    1.7165   28.0696 N   0  0  0  0  0  0  0  0  0  0  0  0
  -22.1674    0.6658   28.9775 C   0  0  0  0  0  0  0  0  0  0  0  0
  -23.2896   -0.0728   29.3675 C   0  0  0  0  0  0  0  0  0  0  0  0
  -30.3206   -0.0927   28.3911 C   0  0  0  0  0  0  0  0  0  0  0  0
  -31.2058   -0.8722   28.4403 O   0  0  0  0  0  0  0  0  0  0  0  0
  -30.5619    1.0892   27.7944 O   0  0  0  0  0  0  0  0  0  0  0  0
  1  2  1  0
  1  8  1  0
  8 19  1  0
 19 20  2  0
 19 21  1  0
  8  9  1  0
  2  3  2  0
  3  4  1  0
  5  6  1  0
  6  7  2  0
  7  2  1  0
  9 10  2  0
 10 11  1  0
 11 12  2  0
 12 13  1  0
 13 14  2  0
 14  9  1  0
  4  5  2  0
  5 15  1  0
 15 16  2  0
 16 17  1  0
 17 18  2  0
 18  4  1  0
M  END

$$$$
