No_3365-gen_results/8p0m/2024-11-26-14-13-15/
     RDKit          3D

 21 21  0  0  0  0  0  0  0  0999 V2000
  -28.0162   -0.8135   28.8779 C   0  0  0  0  0  0  0  0  0  0  0  0
  -27.0636   -0.1189   28.6079 C   0  0  0  0  0  0  0  0  0  0  0  0
  -27.0010    0.6913   27.4910 C   0  0  0  0  0  0  0  0  0  0  0  0
  -27.1778    1.9037   27.5632 C   0  0  0  0  0  0  0  0  0  0  0  0
  -28.7446   -0.3657   29.8430 C   0  0  0  0  0  0  0  0  0  0  0  0
  -29.9480   -1.1049   30.1388 C   0  0  0  0  0  0  0  0  0  0  0  0
  -26.6424    0.0802   26.1997 C   0  0  0  0  0  0  0  0  0  0  0  0
  -26.7812    0.7477   24.9768 C   0  0  0  0  0  0  0  0  0  0  0  0
  -27.2816    2.7387   26.3318 C   0  0  0  0  0  0  0  0  0  0  0  0
  -26.9618    2.1404   25.0601 C   0  0  0  0  0  0  0  0  0  0  0  0
  -29.7494   -2.1706   30.0729 F   0  0  0  0  0  0  0  0  0  0  0  0
  -30.3654   -0.7746   31.4001 F   0  0  0  0  0  0  0  0  0  0  0  0
  -30.9083   -0.7737   29.2943 F   0  0  0  0  0  0  0  0  0  0  0  0
  -25.7458   -1.0187   28.6150 C   0  0  0  0  0  0  0  0  0  0  0  0
  -25.0569   -1.0359   29.9426 C   0  0  0  0  0  0  0  0  0  0  0  0
  -23.9286   -0.1551   30.0936 C   0  0  0  0  0  0  0  0  0  0  0  0
  -24.1198    0.7053   30.8020 C   0  0  0  0  0  0  0  0  0  0  0  0
  -23.6655    2.1328   30.4989 C   0  0  0  0  0  0  0  0  0  0  0  0
  -24.4419    3.1989   31.1694 C   0  0  0  0  0  0  0  0  0  0  0  0
  -25.2374    2.8644   32.3447 C   0  0  0  0  0  0  0  0  0  0  0  0
  -25.8627    3.9216   33.0358 C   0  0  0  0  0  0  0  0  0  0  0  0
  1  2  1  0
  2  3  1  0
  1  5  1  0
  5  6  1  0
  6 11  1  0
  6 12  1  0
  6 13  1  0
  2 14  1  0
 14 15  1  0
 15 16  1  0
 16 17  1  0
 17 18  2  3
 18 19  1  0
 19 20  2  3
 20 21  1  0
  3  4  2  0
  4  9  1  0
  9 10  2  0
 10  8  1  0
  8  7  2  0
  7  3  1  0
M  END

$$$$
