No_3444-gen_results/8p0m/2024-11-26-14-13-15/
     RDKit          3D

 10 10  0  0  0  0  0  0  0  0999 V2000
  -28.0162   -0.8135   28.8779 C   0  0  0  0  0  0  0  0  0  0  0  0
  -28.4690   -0.7850   29.8287 C   0  0  0  0  0  0  0  0  0  0  0  0
  -27.1356    0.2359   28.5352 C   0  0  0  0  0  0  0  0  0  0  0  0
  -26.8745    1.2825   29.3982 C   0  0  0  0  0  0  0  0  0  0  0  0
  -29.3996   -1.9131   30.3104 C   0  0  0  0  0  0  0  0  0  0  0  0
  -27.5028    1.2252   30.6283 C   0  0  0  0  0  0  0  0  0  0  0  0
  -28.3160    0.1386   30.9698 C   0  0  0  0  0  0  0  0  0  0  0  0
  -29.1374   -3.1672   30.3907 N   0  0  0  0  0  0  0  0  0  0  0  0
  -30.8233   -1.6756   30.6469 C   0  0  0  0  0  0  0  0  0  0  0  0
  -31.6527   -2.7101   30.9151 C   0  0  0  0  0  0  0  0  0  0  0  0
  2  5  1  0
  5  8  2  0
  5  9  1  0
  9 10  1  0
  1  2  2  0
  2  7  1  0
  7  6  2  0
  6  4  1  0
  4  3  2  0
  3  1  1  0
M  END

$$$$
