No_3452-gen_results/8p0m/2024-11-26-14-13-15/
     RDKit          3D

 31 34  0  0  0  0  0  0  0  0999 V2000
  -28.0162   -0.8135   28.8779 C   0  0  0  0  0  0  0  0  0  0  0  0
  -27.0636   -0.1190   28.6079 C   0  0  0  0  0  0  0  0  0  0  0  0
  -25.7647   -0.3897   29.0360 C   0  0  0  0  0  0  0  0  0  0  0  0
  -25.5296   -1.5302   29.9014 C   0  0  0  0  0  0  0  0  0  0  0  0
  -26.6888   -2.2893   30.1810 C   0  0  0  0  0  0  0  0  0  0  0  0
  -27.8727   -1.9508   29.7373 C   0  0  0  0  0  0  0  0  0  0  0  0
  -29.0153   -2.5742   30.0979 O   0  0  0  0  0  0  0  0  0  0  0  0
  -24.4090    0.2086   28.7699 C   0  0  0  0  0  0  0  0  0  0  0  0
  -24.3121    1.1955   27.8973 N   0  0  0  0  0  0  0  0  0  0  0  0
  -23.1381    1.6653   27.4749 C   0  0  0  0  0  0  0  0  0  0  0  0
  -22.9711    2.7096   26.6378 N   0  0  0  0  0  0  0  0  0  0  0  0
  -23.2156   -0.2307   29.2804 C   0  0  0  0  0  0  0  0  0  0  0  0
  -21.8685    1.2062   28.0126 C   0  0  0  0  0  0  0  0  0  0  0  0
  -21.9074    0.2482   28.9581 C   0  0  0  0  0  0  0  0  0  0  0  0
  -28.9415   -3.8909   30.5752 C   0  0  0  0  0  0  0  0  0  0  0  0
  -28.9386   -4.7791   30.1087 C   0  0  0  0  0  0  0  0  0  0  0  0
  -29.9281   -5.3612   30.2845 C   0  0  0  0  0  0  0  0  0  0  0  0
  -30.4828   -5.6190   31.6090 C   0  0  0  0  0  0  0  0  0  0  0  0
  -28.8128   -3.8812   32.1126 C   0  0  0  0  0  0  0  0  0  0  0  0
  -29.9765   -4.7628   32.5322 N   0  0  0  0  0  0  0  0  0  0  0  0
  -30.0187   -5.1554   34.0049 C   0  0  0  0  0  0  0  0  0  0  0  0
  -30.1447   -4.0726   34.7827 C   0  0  0  0  0  0  0  0  0  0  0  0
  -30.5923   -2.8645   34.3034 C   0  0  0  0  0  0  0  0  0  0  0  0
  -30.6247   -1.7166   35.1710 C   0  0  0  0  0  0  0  0  0  0  0  0
  -31.0160   -0.4137   34.6544 C   0  0  0  0  0  0  0  0  0  0  0  0
  -31.1323   -0.2413   33.5389 C   0  0  0  0  0  0  0  0  0  0  0  0
  -31.0085   -1.2645   32.5201 C   0  0  0  0  0  0  0  0  0  0  0  0
  -30.6532   -2.5284   32.9838 C   0  0  0  0  0  0  0  0  0  0  0  0
  -31.3340   -3.4235   32.1904 C   0  0  0  0  0  0  0  0  0  0  0  0
  -32.5912   -3.8068   32.7670 C   0  0  0  0  0  0  0  0  0  0  0  0
  -31.9357   -2.4928   30.9716 C   0  0  0  0  0  0  0  0  0  0  0  0
  6  7  1  0
  3  8  1  0
 10 11  1  0
  7 15  1  0
 16 17  1  0
 17 18  1  0
 15 19  1  0
 18 20  1  0
 19 20  1  0
 20 21  1  0
 21 22  2  3
 22 23  1  0
 28 29  1  0
 29 30  2  0
 29 31  1  0
 16 15  1  0
  1  2  2  0
  2  3  1  0
  3  4  2  0
  4  5  1  0
  5  6  2  0
  6  1  1  0
 23 24  2  0
 24 25  1  0
 25 26  2  0
 26 27  1  0
 27 28  2  0
 28 23  1  0
  8  9  2  0
  9 10  1  0
 10 13  2  0
 13 14  1  0
 14 12  2  0
 12  8  1  0
M  END

$$$$
