No_3306-gen_results/8p0m/2024-11-26-14-13-15/
     RDKit          3D

 18 20  0  0  0  0  0  0  0  0999 V2000
  -28.0544   -1.0498   28.7246 N   0  0  0  0  0  0  0  0  0  0  0  0
  -26.9659   -0.4722   28.7709 C   0  0  0  0  0  0  0  0  0  0  0  0
  -25.9289   -1.0196   29.5059 C   0  0  0  0  0  0  0  0  0  0  0  0
  -24.6309   -0.4459   29.5994 C   0  0  0  0  0  0  0  0  0  0  0  0
  -24.4031    0.7890   28.9309 C   0  0  0  0  0  0  0  0  0  0  0  0
  -25.4769    1.3309   28.1733 C   0  0  0  0  0  0  0  0  0  0  0  0
  -26.6735    0.7165   28.0807 C   0  0  0  0  0  0  0  0  0  0  0  0
  -28.6048   -1.5255   29.9160 C   0  0  0  0  0  0  0  0  0  0  0  0
  -27.7455   -2.4643   30.6164 C   0  0  0  0  0  0  0  0  0  0  0  0
  -26.3562   -1.8961   30.7048 O   0  0  0  0  0  0  0  0  0  0  0  0
  -27.6183    1.2976   27.1743 C   0  0  0  0  0  0  0  0  0  0  0  0
  -27.3088    2.0601   26.1796 C   0  0  0  0  0  0  0  0  0  0  0  0
  -26.0004    2.7788   26.2585 C   0  0  0  0  0  0  0  0  0  0  0  0
  -25.0203    2.3641   27.2443 C   0  0  0  0  0  0  0  0  0  0  0  0
  -28.0419   -2.7780   31.9828 C   0  0  0  0  0  0  0  0  0  0  0  0
  -29.3500   -3.6018   31.9416 C   0  0  0  0  0  0  0  0  0  0  0  0
  -29.4106   -4.2943   32.9156 O   0  0  0  0  0  0  0  0  0  0  0  0
  -28.3895   -1.5840   32.6466 O   0  0  0  0  0  0  0  0  0  0  0  0
  1  2  1  0
  1  8  1  0
  8  9  1  0
  3 10  1  0
  9 10  1  0
  9 15  1  0
 15 16  1  0
 16 17  2  0
 15 18  1  0
  2  3  2  0
  3  4  1  0
  4  5  2  0
  5  6  1  0
  7  2  1  0
  6  7  2  0
  7 11  1  0
 11 12  2  0
 12 13  1  0
 13 14  2  0
 14  6  1  0
M  END

$$$$
