No_315-gen_results/8p0m/2024-11-26-14-13-15/
     RDKit          3D

  6  5  0  0  0  0  0  0  0  0999 V2000
  -28.0727   -1.2542   28.5316 F   0  0  0  0  0  0  0  0  0  0  0  0
  -27.0607   -0.6291   28.8721 C   0  0  0  0  0  0  0  0  0  0  0  0
  -26.1267   -1.0777   29.2000 F   0  0  0  0  0  0  0  0  0  0  0  0
  -27.3970    0.4962   29.8718 C   0  0  0  0  0  0  0  0  0  0  0  0
  -26.7400    1.3256   30.1605 C   0  0  0  0  0  0  0  0  0  0  0  0
  -25.1935    0.9412   30.1478 C   0  0  0  0  0  0  0  0  0  0  0  0
  1  2  1  0
  2  3  1  0
  2  4  1  0
  4  5  2  3
  5  6  1  0
M  END

$$$$
