No_3097-gen_results/8p0m/2024-11-26-14-13-15/
     RDKit          3D

 17 18  0  0  0  0  0  0  0  0999 V2000
  -28.0162   -0.8135   28.8779 C   0  0  0  0  0  0  0  0  0  0  0  0
  -27.0636   -0.1189   28.6079 C   0  0  0  0  0  0  0  0  0  0  0  0
  -26.9716    0.7139   27.5060 C   0  0  0  0  0  0  0  0  0  0  0  0
  -28.1053    0.7744   26.6421 C   0  0  0  0  0  0  0  0  0  0  0  0
  -29.2008    0.1044   27.0527 C   0  0  0  0  0  0  0  0  0  0  0  0
  -29.2096   -0.6029   28.1853 C   0  0  0  0  0  0  0  0  0  0  0  0
  -30.2828    0.2138   26.2960 F   0  0  0  0  0  0  0  0  0  0  0  0
  -25.7134   -0.2153   29.4104 C   0  0  0  0  0  0  0  0  0  0  0  0
  -25.0723    0.9657   29.8007 C   0  0  0  0  0  0  0  0  0  0  0  0
  -24.0746    1.3715   28.7583 C   0  0  0  0  0  0  0  0  0  0  0  0
  -22.8055    1.1430   28.9515 C   0  0  0  0  0  0  0  0  0  0  0  0
  -21.8360    1.4220   27.9061 C   0  0  0  0  0  0  0  0  0  0  0  0
  -22.2854    2.0261   26.7401 C   0  0  0  0  0  0  0  0  0  0  0  0
  -23.6347    2.3527   26.6229 C   0  0  0  0  0  0  0  0  0  0  0  0
  -24.5296    2.0439   27.6217 C   0  0  0  0  0  0  0  0  0  0  0  0
  -25.1423   -1.4775   29.6930 C   0  0  0  0  0  0  0  0  0  0  0  0
  -24.7920   -1.6737   30.9338 C   0  0  0  0  0  0  0  0  0  0  0  0
  5  7  1  0
  2  8  1  0
  8  9  1  0
  9 10  1  0
  8 16  1  0
 16 17  2  0
  1  2  2  0
  2  3  1  0
  3  4  2  0
  4  5  1  0
  5  6  2  0
  6  1  1  0
 10 11  2  0
 11 12  1  0
 12 13  2  0
 13 14  1  0
 14 15  2  0
 15 10  1  0
M  END

$$$$
