No_3578-gen_results/8p0m/2024-11-26-14-13-15/
     RDKit          3D

 35 38  0  0  0  0  0  0  0  0999 V2000
  -28.0162   -0.8135   28.8779 C   0  0  0  0  0  0  0  0  0  0  0  0
  -27.0636   -0.1189   28.6079 C   0  0  0  0  0  0  0  0  0  0  0  0
  -25.7647   -0.3897   29.0360 C   0  0  0  0  0  0  0  0  0  0  0  0
  -24.5516    0.4058   28.7646 C   0  0  0  0  0  0  0  0  0  0  0  0
  -23.2300    0.1178   29.2575 C   0  0  0  0  0  0  0  0  0  0  0  0
  -22.1393    0.9427   28.9224 C   0  0  0  0  0  0  0  0  0  0  0  0
  -27.8294   -1.9287   29.8545 C   0  0  0  0  0  0  0  0  0  0  0  0
  -26.5882   -2.3272   30.2682 C   0  0  0  0  0  0  0  0  0  0  0  0
  -25.4565   -1.5432   29.9146 C   0  0  0  0  0  0  0  0  0  0  0  0
  -22.2302    1.9089   27.8723 C   0  0  0  0  0  0  0  0  0  0  0  0
  -24.5538    1.4700   27.7617 C   0  0  0  0  0  0  0  0  0  0  0  0
  -25.8192    1.7343   27.1414 C   0  0  0  0  0  0  0  0  0  0  0  0
  -23.4497    2.1614   27.3194 C   0  0  0  0  0  0  0  0  0  0  0  0
  -27.1054    1.0088   27.5868 C   0  0  0  0  0  0  0  0  0  0  0  0
  -28.3478    1.3117   26.9887 C   0  0  0  0  0  0  0  0  0  0  0  0
  -29.0617    2.2138   27.6644 C   0  0  0  0  0  0  0  0  0  0  0  0
  -28.7453    3.0677   28.3947 C   0  0  0  0  0  0  0  0  0  0  0  0
  -29.6072    4.0548   29.1055 C   0  0  0  0  0  0  0  0  0  0  0  0
  -29.1096    4.9997   30.0503 C   0  0  0  0  0  0  0  0  0  0  0  0
  -27.7285    5.0572   30.3006 C   0  0  0  0  0  0  0  0  0  0  0  0
  -26.9880    4.3221   29.6510 C   0  0  0  0  0  0  0  0  0  0  0  0
  -27.3720    3.3304   28.8105 C   0  0  0  0  0  0  0  0  0  0  0  0
  -30.6124    2.0665   27.3812 C   0  0  0  0  0  0  0  0  0  0  0  0
  -28.4543    1.0470   25.7836 O   0  0  0  0  0  0  0  0  0  0  0  0
  -25.4527    4.3991   29.9417 C   0  0  0  0  0  0  0  0  0  0  0  0
  -29.0338   -2.7262   30.2680 C   0  0  0  0  0  0  0  0  0  0  0  0
  -28.9213   -4.0338   30.5043 N   0  0  0  0  0  0  0  0  0  0  0  0
  -29.9151   -4.9241   30.2549 C   0  0  0  0  0  0  0  0  0  0  0  0
  -30.6957   -4.7707   29.1563 C   0  0  0  0  0  0  0  0  0  0  0  0
  -31.9544   -5.1805   29.3978 C   0  0  0  0  0  0  0  0  0  0  0  0
  -32.9294   -4.8235   28.4185 C   0  0  0  0  0  0  0  0  0  0  0  0
  -32.3876   -4.3649   27.2283 C   0  0  0  0  0  0  0  0  0  0  0  0
  -33.2702   -3.8338   26.3276 N   0  0  0  0  0  0  0  0  0  0  0  0
  -32.7195   -2.9550   25.3813 C   0  0  0  0  0  0  0  0  0  0  0  0
  -32.5899   -1.5213   25.6972 C   0  0  0  0  0  0  0  0  0  0  0  0
  3  4  1  0
 11 12  1  0
  2 14  1  0
 12 14  1  0
 14 15  1  0
 15 16  1  0
 16 23  1  0
 15 24  2  0
 21 25  1  0
  7 26  1  0
 26 27  1  0
 27 28  1  0
 28 29  1  0
 29 30  1  0
 30 31  1  0
 31 32  2  3
 32 33  1  0
 33 34  2  3
 34 35  1  0
 16 17  1  0
 17 18  2  0
 18 19  1  0
 19 20  2  0
 20 21  1  0
 21 22  2  0
 22 17  1  0
  1  2  2  0
  2  3  1  0
  3  9  2  0
  9  8  1  0
  8  7  2  0
  7  1  1  0
  4  5  2  0
  5  6  1  0
  6 10  2  0
 10 13  1  0
 13 11  2  0
 11  4  1  0
M  END

$$$$
