No_3914-gen_results/8p0m/2024-11-26-14-13-15/
     RDKit          3D

 35 37  0  0  0  0  0  0  0  0999 V2000
  -28.1229   -1.3353   28.4874 O   0  0  0  0  0  0  0  0  0  0  0  0
  -28.5208   -0.4363   29.0779 C   0  0  0  0  0  0  0  0  0  0  0  0
  -27.9150    0.0780   30.0386 O   0  0  0  0  0  0  0  0  0  0  0  0
  -29.8074    0.1885   28.6630 C   0  0  0  0  0  0  0  0  0  0  0  0
  -30.8246   -0.1277   29.2563 C   0  0  0  0  0  0  0  0  0  0  0  0
  -32.1083    0.3977   28.7646 C   0  0  0  0  0  0  0  0  0  0  0  0
  -32.0462    1.2674   27.6549 C   0  0  0  0  0  0  0  0  0  0  0  0
  -30.8242    1.5582   27.0408 C   0  0  0  0  0  0  0  0  0  0  0  0
  -29.6319    1.0185   27.5262 C   0  0  0  0  0  0  0  0  0  0  0  0
  -33.2776    1.8904   27.1202 C   0  0  0  0  0  0  0  0  0  0  0  0
  -33.3266    2.4043   26.0261 C   0  0  0  0  0  0  0  0  0  0  0  0
  -32.0031    2.7562   25.3126 C   0  0  0  0  0  0  0  0  0  0  0  0
  -30.7633    2.3433   25.8263 C   0  0  0  0  0  0  0  0  0  0  0  0
  -28.3418    1.2882   26.8794 C   0  0  0  0  0  0  0  0  0  0  0  0
  -27.5855    2.3771   27.3172 C   0  0  0  0  0  0  0  0  0  0  0  0
  -27.7743    0.4103   25.9550 C   0  0  0  0  0  0  0  0  0  0  0  0
  -26.5989    0.6659   25.3287 C   0  0  0  0  0  0  0  0  0  0  0  0
  -25.8024    1.7209   25.7378 C   0  0  0  0  0  0  0  0  0  0  0  0
  -26.3503    2.6420   26.7171 C   0  0  0  0  0  0  0  0  0  0  0  0
  -25.5352    3.8080   27.1350 C   0  0  0  0  0  0  0  0  0  0  0  0
  -24.5220    3.9663   26.4692 F   0  0  0  0  0  0  0  0  0  0  0  0
  -25.0683    3.6409   28.4160 F   0  0  0  0  0  0  0  0  0  0  0  0
  -26.2782    4.9250   27.1633 F   0  0  0  0  0  0  0  0  0  0  0  0
  -26.5984   -0.1908   30.4461 C   0  0  0  0  0  0  0  0  0  0  0  0
  -25.6997    0.5229   29.7919 C   0  0  0  0  0  0  0  0  0  0  0  0
  -25.0079    1.6118   30.6140 C   0  0  0  0  0  0  0  0  0  0  0  0
  -24.7695    1.0740   31.7398 F   0  0  0  0  0  0  0  0  0  0  0  0
  -25.8094    2.7219   30.7186 F   0  0  0  0  0  0  0  0  0  0  0  0
  -24.6605   -0.3160   29.2456 F   0  0  0  0  0  0  0  0  0  0  0  0
  -23.8138    1.9817   30.0762 F   0  0  0  0  0  0  0  0  0  0  0  0
  -30.9469   -0.9308   30.3096 O   0  0  0  0  0  0  0  0  0  0  0  0
  -30.8475   -0.4995   31.5760 C   0  0  0  0  0  0  0  0  0  0  0  0
  -30.3519   -1.4278   32.4876 C   0  0  0  0  0  0  0  0  0  0  0  0
  -29.8273   -0.9336   33.6843 C   0  0  0  0  0  0  0  0  0  0  0  0
  -29.2572   -0.1132   33.8099 C   0  0  0  0  0  0  0  0  0  0  0  0
  1  2  2  0
  2  3  1  0
  2  4  1  0
  9 14  1  0
 19 20  1  0
 20 21  1  0
 20 22  1  0
 20 23  1  0
  3 24  1  0
 24 25  1  0
 25 26  1  0
 26 27  1  0
 26 28  1  0
 25 29  1  0
 26 30  1  0
  5 31  1  0
 31 32  1  0
 32 33  2  3
 33 34  1  0
 34 35  2  0
  8 13  1  0
 13 12  2  0
 12 11  1  0
 11 10  2  0
 10  7  1  0
 14 15  2  0
 15 19  1  0
 19 18  2  0
 18 17  1  0
 17 16  2  0
 16 14  1  0
  4  5  2  0
  5  6  1  0
  6  7  2  0
  7  8  1  0
  8  9  2  0
  9  4  1  0
M  END

$$$$
