No_3629-gen_results/8p0m/2024-11-26-14-13-15/
     RDKit          3D

 22 24  0  0  0  0  0  0  0  0999 V2000
  -28.1146   -0.6256   29.0813 Br  0  0  0  0  0  0  0  0  0  0  0  0
  -27.4917    0.8142   29.3550 C   0  0  0  0  0  0  0  0  0  0  0  0
  -26.7306    1.3379   28.4952 C   0  0  0  0  0  0  0  0  0  0  0  0
  -26.4078    0.6761   27.2094 C   0  0  0  0  0  0  0  0  0  0  0  0
  -26.8467   -0.2597   26.7837 C   0  0  0  0  0  0  0  0  0  0  0  0
  -26.3928   -0.5806   25.4171 C   0  0  0  0  0  0  0  0  0  0  0  0
  -25.3799    0.2454   24.8661 C   0  0  0  0  0  0  0  0  0  0  0  0
  -25.4193    1.3134   26.2191 C   0  0  0  0  0  0  0  0  0  0  0  0
  -24.5690    2.4253   26.2608 C   0  0  0  0  0  0  0  0  0  0  0  0
  -23.1660    2.2099   26.1196 C   0  0  0  0  0  0  0  0  0  0  0  0
  -25.1218    3.7029   26.4441 C   0  0  0  0  0  0  0  0  0  0  0  0
  -27.7367    1.6293   30.5861 C   0  0  0  0  0  0  0  0  0  0  0  0
  -27.2672    2.6935   30.7057 C   0  0  0  0  0  0  0  0  0  0  0  0
  -27.3973    3.5821   31.8671 C   0  0  0  0  0  0  0  0  0  0  0  0
  -27.8284    3.3485   32.8097 C   0  0  0  0  0  0  0  0  0  0  0  0
  -28.4396    1.9977   32.9055 C   0  0  0  0  0  0  0  0  0  0  0  0
  -28.3668    1.1195   31.8047 C   0  0  0  0  0  0  0  0  0  0  0  0
  -26.3127    4.0824   26.4719 C   0  0  0  0  0  0  0  0  0  0  0  0
  -26.7973    5.2407   27.0851 C   0  0  0  0  0  0  0  0  0  0  0  0
  -25.8389    6.2090   27.4255 C   0  0  0  0  0  0  0  0  0  0  0  0
  -24.4495    5.9286   27.3585 C   0  0  0  0  0  0  0  0  0  0  0  0
  -24.1144    4.7070   26.9213 C   0  0  0  0  0  0  0  0  0  0  0  0
  1  2  1  0
  2  3  2  3
  3  4  1  0
  4  5  1  0
  5  6  1  0
  6  7  2  0
  4  8  1  0
  7  8  1  0
  8  9  1  0
  9 10  1  0
  9 11  1  0
  2 12  1  0
 12 13  2  0
 13 14  1  0
 14 15  2  0
 15 16  1  0
 16 17  2  0
 17 12  1  0
 11 18  2  0
 18 19  1  0
 19 20  2  0
 20 21  1  0
 21 22  2  0
 22 11  1  0
M  END

$$$$
