No_3427-gen_results/8p0m/2024-11-26-14-13-15/
     RDKit          3D

  9  8  0  0  0  0  0  0  0  0999 V2000
  -27.9505   -0.5786   29.0402 P   0  0  0  0  0  0  0  0  0  0  0  0
  -27.2401    0.0613   28.4283 O   0  0  0  0  0  0  0  0  0  0  0  0
  -27.2444   -1.9817   29.3768 O   0  0  0  0  0  0  0  0  0  0  0  0
  -28.1843   -0.0275   30.5202 O   0  0  0  0  0  0  0  0  0  0  0  0
  -29.3988   -0.9154   28.6487 O   0  0  0  0  0  0  0  0  0  0  0  0
  -25.9395    0.2581   28.6022 C   0  0  0  0  0  0  0  0  0  0  0  0
  -25.2158    1.1298   27.6854 C   0  0  0  0  0  0  0  0  0  0  0  0
  -23.8138    1.1891   27.9726 C   0  0  0  0  0  0  0  0  0  0  0  0
  -22.9906    2.2565   27.4584 C   0  0  0  0  0  0  0  0  0  0  0  0
  1  2  1  0
  1  3  1  0
  1  4  2  0
  1  5  1  0
  2  6  1  0
  6  7  1  0
  7  8  2  3
  8  9  1  0
M  END

$$$$
