No_3638-gen_results/8p0m/2024-11-26-14-13-15/
     RDKit          3D

 24 25  0  0  0  0  0  0  0  0999 V2000
  -28.0162   -0.8135   28.8779 C   0  0  0  0  0  0  0  0  0  0  0  0
  -27.0636   -0.1189   28.6079 C   0  0  0  0  0  0  0  0  0  0  0  0
  -26.8756    1.1325   28.9134 C   0  0  0  0  0  0  0  0  0  0  0  0
  -25.6883    1.9515   28.5672 C   0  0  0  0  0  0  0  0  0  0  0  0
  -24.6394    1.2834   27.8753 C   0  0  0  0  0  0  0  0  0  0  0  0
  -24.8068   -0.0513   27.6040 C   0  0  0  0  0  0  0  0  0  0  0  0
  -25.9019   -0.7670   27.9511 C   0  0  0  0  0  0  0  0  0  0  0  0
  -28.0678   -1.4475   30.2707 C   0  0  0  0  0  0  0  0  0  0  0  0
  -29.3548   -2.4005   30.8831 Cl  0  0  0  0  0  0  0  0  0  0  0  0
  -23.4501    2.0040   27.4694 C   0  0  0  0  0  0  0  0  0  0  0  0
  -22.5137    1.5004   27.3383 F   0  0  0  0  0  0  0  0  0  0  0  0
  -23.3130    3.1041   28.3541 F   0  0  0  0  0  0  0  0  0  0  0  0
  -23.7891    2.7681   26.3429 F   0  0  0  0  0  0  0  0  0  0  0  0
  -27.0008   -1.4530   31.0126 O   0  0  0  0  0  0  0  0  0  0  0  0
  -27.9029    1.9308   29.6372 C   0  0  0  0  0  0  0  0  0  0  0  0
  -28.0847    2.9265   29.4988 O   0  0  0  0  0  0  0  0  0  0  0  0
  -28.8201    1.0795   30.2528 O   0  0  0  0  0  0  0  0  0  0  0  0
  -29.9237    1.8076   30.8417 C   0  0  0  0  0  0  0  0  0  0  0  0
  -31.0757    0.9842   30.8320 C   0  0  0  0  0  0  0  0  0  0  0  0
  -32.1533    1.6186   31.0708 C   0  0  0  0  0  0  0  0  0  0  0  0
  -33.4093    0.9610   31.0439 C   0  0  0  0  0  0  0  0  0  0  0  0
  -33.3916   -0.4165   30.6885 C   0  0  0  0  0  0  0  0  0  0  0  0
  -32.2228   -1.0425   30.3456 C   0  0  0  0  0  0  0  0  0  0  0  0
  -31.0365   -0.3111   30.3802 C   0  0  0  0  0  0  0  0  0  0  0  0
  1  8  1  0
  8  9  1  0
  5 10  1  0
 10 11  1  0
 10 12  1  0
 10 13  1  0
  8 14  2  0
  3 15  1  0
 15 16  2  0
 15 17  1  0
 17 18  1  0
 18 19  1  0
  1  2  1  0
  2  3  2  0
  3  4  1  0
  4  5  2  0
  5  6  1  0
  6  7  2  0
  7  2  1  0
 19 20  2  0
 20 21  1  0
 21 22  2  0
 22 23  1  0
 23 24  2  0
 24 19  1  0
M  END

$$$$
