No_3431-gen_results/8p0m/2024-11-26-14-13-15/
     RDKit          3D

 20 23  0  0  0  0  0  0  0  0999 V2000
  -28.0162   -0.8135   28.8779 C   0  0  0  0  0  0  0  0  0  0  0  0
  -28.4690   -0.7850   29.8287 C   0  0  0  0  0  0  0  0  0  0  0  0
  -26.5042   -0.7777   28.8766 C   0  0  0  0  0  0  0  0  0  0  0  0
  -25.8103   -0.8531   30.1028 C   0  0  0  0  0  0  0  0  0  0  0  0
  -27.9906   -0.8916   31.2257 C   0  0  0  0  0  0  0  0  0  0  0  0
  -26.6042   -0.8676   31.2652 C   0  0  0  0  0  0  0  0  0  0  0  0
  -24.4436   -0.6734   29.9745 C   0  0  0  0  0  0  0  0  0  0  0  0
  -23.7579   -0.0773   29.0348 C   0  0  0  0  0  0  0  0  0  0  0  0
  -22.3098    0.0234   29.0817 C   0  0  0  0  0  0  0  0  0  0  0  0
  -21.6167    0.7242   28.0737 C   0  0  0  0  0  0  0  0  0  0  0  0
  -22.3583    1.5400   27.1683 C   0  0  0  0  0  0  0  0  0  0  0  0
  -23.7595    1.5966   27.2412 C   0  0  0  0  0  0  0  0  0  0  0  0
  -24.4431    0.8590   28.1928 C   0  0  0  0  0  0  0  0  0  0  0  0
  -25.7715    0.0513   27.9512 C   0  0  0  0  0  0  0  0  0  0  0  0
  -26.4375    0.5079   26.6357 C   0  0  0  0  0  0  0  0  0  0  0  0
  -26.1026   -0.1991   25.5771 C   0  0  0  0  0  0  0  0  0  0  0  0
  -27.3213    1.5381   26.6023 C   0  0  0  0  0  0  0  0  0  0  0  0
  -28.0268    1.7888   25.4806 C   0  0  0  0  0  0  0  0  0  0  0  0
  -26.7150   -0.0076   24.3424 C   0  0  0  0  0  0  0  0  0  0  0  0
  -27.6852    1.0512   24.3213 C   0  0  0  0  0  0  0  0  0  0  0  0
 14 15  1  0
  4  7  2  0
  7  8  1  0
 13 14  1  0
 14  3  2  0
  8  9  2  0
  9 10  1  0
 10 11  2  0
 11 12  1  0
 12 13  2  0
 13  8  1  0
  1  2  2  0
  2  5  1  0
  5  6  2  0
  6  4  1  0
  4  3  1  0
  3  1  1  0
 15 16  2  0
 16 19  1  0
 19 20  2  0
 20 18  1  0
 18 17  2  0
 17 15  1  0
M  END

$$$$
