No_3756-gen_results/8p0m/2024-11-26-14-13-15/
     RDKit          3D

 14 16  0  0  0  0  0  0  0  0999 V2000
  -28.0162   -0.8135   28.8779 C   0  0  0  0  0  0  0  0  0  0  0  0
  -28.4690   -0.7850   29.8287 C   0  0  0  0  0  0  0  0  0  0  0  0
  -27.0871    0.2903   28.6377 C   0  0  0  0  0  0  0  0  0  0  0  0
  -26.2516    0.4114   27.4223 C   0  0  0  0  0  0  0  0  0  0  0  0
  -28.3913    0.1041   30.9805 C   0  0  0  0  0  0  0  0  0  0  0  0
  -27.5332    1.1666   30.7866 C   0  0  0  0  0  0  0  0  0  0  0  0
  -26.8281    1.2557   29.6454 C   0  0  0  0  0  0  0  0  0  0  0  0
  -25.6444    1.6653   27.2216 C   0  0  0  0  0  0  0  0  0  0  0  0
  -24.6323    1.7370   26.2648 C   0  0  0  0  0  0  0  0  0  0  0  0
  -23.8428    2.9890   26.2421 C   0  0  0  0  0  0  0  0  0  0  0  0
  -24.2582    4.0862   27.0216 C   0  0  0  0  0  0  0  0  0  0  0  0
  -25.3587    3.9452   27.8294 C   0  0  0  0  0  0  0  0  0  0  0  0
  -25.9857    2.7341   28.0164 C   0  0  0  0  0  0  0  0  0  0  0  0
  -26.6415    2.5394   29.2261 N   0  0  0  0  0  0  0  0  0  0  0  0
  8  9  2  0
  9 10  1  0
 10 11  2  0
 11 12  1  0
 12 13  2  0
  3  4  2  0
  4  8  1  0
  8 13  1  0
 13 14  1  0
 14  7  2  0
  1  2  2  0
  2  5  1  0
  5  6  2  0
  6  7  1  0
  7  3  1  0
  3  1  1  0
M  END

$$$$
