No_3184-gen_results/8p0m/2024-11-26-14-13-15/
     RDKit          3D

 28 31  0  0  0  0  0  0  0  0999 V2000
  -28.0162   -0.8135   28.8779 C   0  0  0  0  0  0  0  0  0  0  0  0
  -27.0636   -0.1189   28.6079 C   0  0  0  0  0  0  0  0  0  0  0  0
  -25.7647   -0.3897   29.0360 C   0  0  0  0  0  0  0  0  0  0  0  0
  -25.5296   -1.5302   29.9014 C   0  0  0  0  0  0  0  0  0  0  0  0
  -26.6888   -2.2893   30.1810 C   0  0  0  0  0  0  0  0  0  0  0  0
  -27.8727   -1.9508   29.7373 C   0  0  0  0  0  0  0  0  0  0  0  0
  -24.5491    0.4100   28.7341 C   0  0  0  0  0  0  0  0  0  0  0  0
  -23.3309    0.0437   29.0569 C   0  0  0  0  0  0  0  0  0  0  0  0
  -23.2108   -1.2231   29.7977 C   0  0  0  0  0  0  0  0  0  0  0  0
  -24.2359   -1.9570   30.2201 C   0  0  0  0  0  0  0  0  0  0  0  0
  -22.1219    0.7661   28.7282 C   0  0  0  0  0  0  0  0  0  0  0  0
  -22.1021    1.6315   27.8117 O   0  0  0  0  0  0  0  0  0  0  0  0
  -20.9738    0.4928   29.2921 O   0  0  0  0  0  0  0  0  0  0  0  0
  -28.9997   -2.6726   30.1100 O   0  0  0  0  0  0  0  0  0  0  0  0
  -28.8835   -3.9796   30.5193 C   0  0  0  0  0  0  0  0  0  0  0  0
  -29.2429   -4.6905   31.2504 C   0  0  0  0  0  0  0  0  0  0  0  0
  -30.4851   -4.8618   31.4389 C   0  0  0  0  0  0  0  0  0  0  0  0
  -31.0921   -5.8542   32.3780 C   0  0  0  0  0  0  0  0  0  0  0  0
  -30.1529   -6.6232   33.0692 C   0  0  0  0  0  0  0  0  0  0  0  0
  -28.8404   -6.5506   32.8214 C   0  0  0  0  0  0  0  0  0  0  0  0
  -28.3402   -5.6837   31.9480 C   0  0  0  0  0  0  0  0  0  0  0  0
  -27.8295   -4.5306   29.6312 O   0  0  0  0  0  0  0  0  0  0  0  0
  -27.1779    1.0994   27.6905 C   0  0  0  0  0  0  0  0  0  0  0  0
  -27.6601    0.9122   26.4772 C   0  0  0  0  0  0  0  0  0  0  0  0
  -27.5910    1.9011   25.5446 C   0  0  0  0  0  0  0  0  0  0  0  0
  -27.0736    3.2146   25.8289 C   0  0  0  0  0  0  0  0  0  0  0  0
  -26.5335    3.3931   27.1176 C   0  0  0  0  0  0  0  0  0  0  0  0
  -26.5065    2.3611   28.0255 C   0  0  0  0  0  0  0  0  0  0  0  0
  8 11  1  0
 11 12  1  0
 11 13  2  0
  6 14  1  0
 14 15  1  0
 15 16  1  0
 15 22  2  0
  2 23  1  0
  1  2  2  0
  2  3  1  0
  4  5  1  0
  5  6  2  0
  6  1  1  0
 23 24  2  0
 24 25  1  0
 25 26  2  0
 26 27  1  0
 27 28  2  0
 28 23  1  0
  3  4  2  0
  4 10  1  0
 10  9  2  0
  9  8  1  0
  8  7  2  0
  7  3  1  0
 16 17  2  0
 17 18  1  0
 18 19  2  0
 19 20  1  0
 20 21  2  0
 21 16  1  0
M  END

$$$$
