No_3357-gen_results/8p0m/2024-11-26-14-13-15/
     RDKit          3D

 21 22  0  0  0  0  0  0  0  0999 V2000
  -28.1229   -1.3353   28.4874 O   0  0  0  0  0  0  0  0  0  0  0  0
  -27.4806   -0.4044   28.7094 C   0  0  0  0  0  0  0  0  0  0  0  0
  -26.3804   -0.0867   27.9394 C   0  0  0  0  0  0  0  0  0  0  0  0
  -27.4232    0.1749   30.0549 N   0  0  0  0  0  0  0  0  0  0  0  0
  -26.1558    0.1159   26.9677 C   0  0  0  0  0  0  0  0  0  0  0  0
  -24.9232    0.5762   26.2595 C   0  0  0  0  0  0  0  0  0  0  0  0
  -24.0117    0.9874   27.0174 C   0  0  0  0  0  0  0  0  0  0  0  0
  -24.0240    0.8450   28.4091 C   0  0  0  0  0  0  0  0  0  0  0  0
  -25.2019    0.3692   28.9190 C   0  0  0  0  0  0  0  0  0  0  0  0
  -28.5287   -0.3756   30.8685 C   0  0  0  0  0  0  0  0  0  0  0  0
  -22.9236    1.3234   29.2523 C   0  0  0  0  0  0  0  0  0  0  0  0
  -21.8414    1.6180   28.9043 O   0  0  0  0  0  0  0  0  0  0  0  0
  -23.2231    1.4642   30.5779 O   0  0  0  0  0  0  0  0  0  0  0  0
  -26.8705    1.3696   30.4594 C   0  0  0  0  0  0  0  0  0  0  0  0
  -24.8412   -0.5389   29.9150 F   0  0  0  0  0  0  0  0  0  0  0  0
  -27.8812    2.4845   30.3139 C   0  0  0  0  0  0  0  0  0  0  0  0
  -27.6592    3.4055   30.7135 C   0  0  0  0  0  0  0  0  0  0  0  0
  -28.5694    4.6524   30.5348 C   0  0  0  0  0  0  0  0  0  0  0  0
  -29.7091    4.4210   29.8146 C   0  0  0  0  0  0  0  0  0  0  0  0
  -29.9108    3.1537   29.2962 C   0  0  0  0  0  0  0  0  0  0  0  0
  -29.0020    2.1706   29.5058 C   0  0  0  0  0  0  0  0  0  0  0  0
  1  2  2  0
  2  3  1  0
  2  4  1  0
  4 10  1  0
  8 11  1  0
 11 12  2  0
 11 13  1  0
  4 14  1  0
  9 15  1  0
 14 16  1  0
  3  5  2  0
  5  6  1  0
  6  7  2  0
  7  8  1  0
  8  9  2  0
  9  3  1  0
 16 17  2  0
 17 18  1  0
 18 19  2  0
 19 20  1  0
 20 21  2  0
 21 16  1  0
M  END

$$$$
