No_3504-gen_results/8p0m/2024-11-26-14-13-15/
     RDKit          3D

 13 13  0  0  0  0  0  0  0  0999 V2000
  -28.0162   -0.8135   28.8779 C   0  0  0  0  0  0  0  0  0  0  0  0
  -28.4690   -0.7850   29.8287 C   0  0  0  0  0  0  0  0  0  0  0  0
  -26.5042   -0.7777   28.8766 C   0  0  0  0  0  0  0  0  0  0  0  0
  -25.6540   -0.6597   27.7191 C   0  0  0  0  0  0  0  0  0  0  0  0
  -27.9180   -0.9374   31.1824 C   0  0  0  0  0  0  0  0  0  0  0  0
  -26.5424   -0.9399   31.2606 C   0  0  0  0  0  0  0  0  0  0  0  0
  -25.7907   -0.9042   30.1750 C   0  0  0  0  0  0  0  0  0  0  0  0
  -25.8971    0.3174   26.7571 C   0  0  0  0  0  0  0  0  0  0  0  0
  -26.7732    0.4611   26.2492 C   0  0  0  0  0  0  0  0  0  0  0  0
  -27.2001    1.2755   25.4900 C   0  0  0  0  0  0  0  0  0  0  0  0
  -28.5287    1.4503   24.9107 C   0  0  0  0  0  0  0  0  0  0  0  0
  -29.2700    0.3921   25.2238 C   0  0  0  0  0  0  0  0  0  0  0  0
  -28.9893   -0.6171   25.8515 C   0  0  0  0  0  0  0  0  0  0  0  0
  3  4  1  0
  4  8  1  0
  8  9  2  3
  9 10  1  0
 10 11  2  3
 11 12  1  0
 12 13  2  0
  1  2  2  0
  2  5  1  0
  5  6  2  0
  6  7  1  0
  7  3  2  0
  3  1  1  0
M  END

$$$$
