No_3288-gen_results/8p0m/2024-11-26-14-13-15/
     RDKit          3D

 24 25  0  0  0  0  0  0  0  0999 V2000
  -28.0162   -0.8135   28.8779 C   0  0  0  0  0  0  0  0  0  0  0  0
  -27.0636   -0.1189   28.6079 C   0  0  0  0  0  0  0  0  0  0  0  0
  -26.9287    1.1713   29.0083 C   0  0  0  0  0  0  0  0  0  0  0  0
  -25.7702    2.0341   28.6884 C   0  0  0  0  0  0  0  0  0  0  0  0
  -24.7141    1.4431   27.9188 C   0  0  0  0  0  0  0  0  0  0  0  0
  -24.8590    0.0783   27.5836 C   0  0  0  0  0  0  0  0  0  0  0  0
  -25.9647   -0.6606   27.9164 C   0  0  0  0  0  0  0  0  0  0  0  0
  -27.9821   -1.6367   30.0748 N   0  0  0  0  0  0  0  0  0  0  0  0
  -29.2163   -0.4132   28.6627 O   0  0  0  0  0  0  0  0  0  0  0  0
  -29.0156   -2.4825   30.5856 C   0  0  0  0  0  0  0  0  0  0  0  0
  -23.3343    2.2875   27.5163 Cl  0  0  0  0  0  0  0  0  0  0  0  0
  -26.6535   -2.0472   30.6398 C   0  0  0  0  0  0  0  0  0  0  0  0
  -28.9320   -3.8212   30.2959 C   0  0  0  0  0  0  0  0  0  0  0  0
  -29.8390   -4.5824   30.6202 O   0  0  0  0  0  0  0  0  0  0  0  0
  -27.9112   -4.3204   29.5727 O   0  0  0  0  0  0  0  0  0  0  0  0
  -25.6273    3.4530   29.0865 C   0  0  0  0  0  0  0  0  0  0  0  0
  -25.7149    4.3171   28.1825 O   0  0  0  0  0  0  0  0  0  0  0  0
  -25.5517    3.7027   30.3591 O   0  0  0  0  0  0  0  0  0  0  0  0
  -31.0806   -4.3256   30.2230 C   0  0  0  0  0  0  0  0  0  0  0  0
  -31.7794   -3.5556   30.3231 C   0  0  0  0  0  0  0  0  0  0  0  0
  -31.4089   -5.4414   29.1262 C   0  0  0  0  0  0  0  0  0  0  0  0
  -33.0869   -3.3811   29.7703 C   0  0  0  0  0  0  0  0  0  0  0  0
  -32.6332   -5.3865   28.4951 C   0  0  0  0  0  0  0  0  0  0  0  0
  -33.4947   -4.3596   28.8298 C   0  0  0  0  0  0  0  0  0  0  0  0
  1  2  1  0
  1  8  1  0
  1  9  2  0
  8 10  1  0
  5 11  1  0
  8 12  1  0
 10 13  1  0
 13 14  1  0
 13 15  2  0
  4 16  1  0
 16 17  2  0
 16 18  1  0
 14 19  1  0
 19 20  2  0
 20 22  1  0
 22 24  2  0
 24 23  1  0
 23 21  2  0
 21 19  1  0
  2  3  2  0
  3  4  1  0
  4  5  2  0
  5  6  1  0
  6  7  2  0
  7  2  1  0
M  END

$$$$
