No_3641-gen_results/8p0m/2024-11-26-14-13-15/
     RDKit          3D

 35 39  0  0  0  0  0  0  0  0999 V2000
  -28.0162   -0.8135   28.8779 C   0  0  0  0  0  0  0  0  0  0  0  0
  -28.4690   -0.7850   29.8287 C   0  0  0  0  0  0  0  0  0  0  0  0
  -28.1960    0.3478   28.0550 C   0  0  0  0  0  0  0  0  0  0  0  0
  -29.0191    1.3501   28.3782 C   0  0  0  0  0  0  0  0  0  0  0  0
  -29.4107    0.1803   30.3782 C   0  0  0  0  0  0  0  0  0  0  0  0
  -29.6059    1.2495   29.6193 C   0  0  0  0  0  0  0  0  0  0  0  0
  -27.5401    0.3372   26.8421 F   0  0  0  0  0  0  0  0  0  0  0  0
  -30.1234   -0.0575   31.9740 S   0  0  0  0  0  0  0  0  0  0  0  0
  -30.0501    0.8166   32.6994 O   0  0  0  0  0  0  0  0  0  0  0  0
  -29.4579   -1.3263   32.4054 O   0  0  0  0  0  0  0  0  0  0  0  0
  -31.6522   -0.4874   31.5411 N   0  0  0  0  0  0  0  0  0  0  0  0
  -32.4060   -1.1609   31.9166 C   0  0  0  0  0  0  0  0  0  0  0  0
  -33.1169   -1.9593   31.5292 C   0  0  0  0  0  0  0  0  0  0  0  0
  -34.1052   -2.8391   32.1779 C   0  0  0  0  0  0  0  0  0  0  0  0
  -34.2431   -2.6251   33.5598 C   0  0  0  0  0  0  0  0  0  0  0  0
  -33.4767   -1.7057   34.1820 C   0  0  0  0  0  0  0  0  0  0  0  0
  -32.5623   -0.9244   33.5157 C   0  0  0  0  0  0  0  0  0  0  0  0
  -35.2535   -3.4563   34.2480 C   0  0  0  0  0  0  0  0  0  0  0  0
  -35.9615   -4.2556   33.7804 C   0  0  0  0  0  0  0  0  0  0  0  0
  -36.6927   -4.9102   34.0729 C   0  0  0  0  0  0  0  0  0  0  0  0
  -37.0056   -4.8560   35.5877 C   0  0  0  0  0  0  0  0  0  0  0  0
  -36.2911   -3.9989   36.2909 C   0  0  0  0  0  0  0  0  0  0  0  0
  -35.3557   -3.2170   35.6963 C   0  0  0  0  0  0  0  0  0  0  0  0
  -36.3671   -3.6771   37.7633 C   0  0  0  0  0  0  0  0  0  0  0  0
  -37.0996   -4.1339   38.5973 N   0  0  0  0  0  0  0  0  0  0  0  0
  -35.4323   -2.9700   38.3082 O   0  0  0  0  0  0  0  0  0  0  0  0
  -38.2108   -4.9881   38.2099 C   0  0  0  0  0  0  0  0  0  0  0  0
  -38.9607   -5.4355   39.3487 C   0  0  0  0  0  0  0  0  0  0  0  0
  -40.0337   -6.2080   39.1715 C   0  0  0  0  0  0  0  0  0  0  0  0
  -40.3885   -6.5864   37.8346 C   0  0  0  0  0  0  0  0  0  0  0  0
  -39.6622   -6.1514   36.7741 C   0  0  0  0  0  0  0  0  0  0  0  0
  -38.5721   -5.3022   36.9738 C   0  0  0  0  0  0  0  0  0  0  0  0
  -37.8870   -5.0293   35.9012 N   0  0  0  0  0  0  0  0  0  0  0  0
  -38.9353   -5.1589   34.7195 C   0  0  0  0  0  0  0  0  0  0  0  0
  -39.5145   -3.9726   34.3138 C   0  0  0  0  0  0  0  0  0  0  0  0
  3  7  1  0
  5  8  1  0
  8  9  2  0
  8 10  2  0
  8 11  1  0
 11 12  1  0
 15 18  1  0
 22 24  1  0
 24 25  1  0
 24 26  2  0
 25 27  1  0
 21 33  1  0
 32 33  1  0
 33 34  1  0
 34 35  1  0
 12 13  2  0
 13 14  1  0
 14 15  2  0
 15 16  1  0
 16 17  2  0
 17 12  1  0
 18 19  2  0
 19 20  1  0
 20 21  2  0
 21 22  1  0
 22 23  2  0
 23 18  1  0
  1  2  2  0
  2  5  1  0
  5  6  2  0
  6  4  1  0
  4  3  2  0
  3  1  1  0
 27 28  2  0
 28 29  1  0
 29 30  2  0
 30 31  1  0
 31 32  2  0
 32 27  1  0
M  END

$$$$
