No_3404-gen_results/8p0m/2024-11-26-14-13-15/
     RDKit          3D

 24 27  0  0  0  0  0  0  0  0999 V2000
  -28.0162   -0.8135   28.8779 C   0  0  0  0  0  0  0  0  0  0  0  0
  -27.0636   -0.1190   28.6079 C   0  0  0  0  0  0  0  0  0  0  0  0
  -26.9716    0.7139   27.5060 C   0  0  0  0  0  0  0  0  0  0  0  0
  -28.1053    0.7744   26.6421 C   0  0  0  0  0  0  0  0  0  0  0  0
  -29.2041    0.1179   27.0477 C   0  0  0  0  0  0  0  0  0  0  0  0
  -29.2127   -0.6088   28.1281 C   0  0  0  0  0  0  0  0  0  0  0  0
  -25.7106    1.4518   27.1380 C   0  0  0  0  0  0  0  0  0  0  0  0
  -24.6052    0.9253   27.6902 C   0  0  0  0  0  0  0  0  0  0  0  0
  -24.5938    0.0936   28.8218 C   0  0  0  0  0  0  0  0  0  0  0  0
  -25.7077   -0.4530   29.2468 C   0  0  0  0  0  0  0  0  0  0  0  0
  -23.2701    1.6921   27.4122 C   0  0  0  0  0  0  0  0  0  0  0  0
  -22.1196    1.1734   27.8460 N   0  0  0  0  0  0  0  0  0  0  0  0
  -23.2554    2.7666   26.6106 N   0  0  0  0  0  0  0  0  0  0  0  0
  -30.3607    0.2949   26.2716 N   0  0  0  0  0  0  0  0  0  0  0  0
  -31.4906    0.4751   26.7535 C   0  0  0  0  0  0  0  0  0  0  0  0
  -30.2746    0.1440   24.8301 C   0  0  0  0  0  0  0  0  0  0  0  0
  -25.6522   -1.5012   30.2867 C   0  0  0  0  0  0  0  0  0  0  0  0
  -24.7969   -1.9832   30.6890 C   0  0  0  0  0  0  0  0  0  0  0  0
  -27.0437   -1.9235   30.7404 C   0  0  0  0  0  0  0  0  0  0  0  0
  -28.1809   -1.6902   30.0221 C   0  0  0  0  0  0  0  0  0  0  0  0
  -32.5964    0.3276   26.0498 C   0  0  0  0  0  0  0  0  0  0  0  0
  -31.3748   -0.1055   24.0894 C   0  0  0  0  0  0  0  0  0  0  0  0
  -32.6027    0.1707   24.6491 C   0  0  0  0  0  0  0  0  0  0  0  0
  -21.9490    0.2467   28.7396 C   0  0  0  0  0  0  0  0  0  0  0  0
  1  2  2  0
  2  3  1  0
  3  4  1  0
  4  5  1  0
  1  6  1  0
  5  6  2  0
  3  7  1  0
  7  8  1  0
  8  9  2  0
  2 10  1  0
  9 10  1  0
  8 11  1  0
 11 12  2  3
 11 13  1  0
  5 14  1  0
 14 15  1  0
 14 16  1  0
 10 17  1  0
 17 18  2  0
 17 19  1  0
  1 20  1  0
 19 20  2  0
 15 21  2  0
 16 22  2  0
 21 23  1  0
 22 23  1  0
 12 24  1  0
M  END

$$$$
