No_3797-gen_results/8p0m/2024-11-26-14-13-15/
     RDKit          3D

 16 16  0  0  0  0  0  0  0  0999 V2000
  -28.0162   -0.8135   28.8779 C   0  0  0  0  0  0  0  0  0  0  0  0
  -27.0636   -0.1190   28.6079 C   0  0  0  0  0  0  0  0  0  0  0  0
  -26.9716    0.7139   27.5060 C   0  0  0  0  0  0  0  0  0  0  0  0
  -28.1053    0.7744   26.6421 C   0  0  0  0  0  0  0  0  0  0  0  0
  -29.2008    0.1044   27.0527 C   0  0  0  0  0  0  0  0  0  0  0  0
  -29.2096   -0.6029   28.1853 C   0  0  0  0  0  0  0  0  0  0  0  0
  -30.3702    0.2264   26.1604 C   0  0  0  0  0  0  0  0  0  0  0  0
  -30.2991    0.2342   24.9383 N   0  0  0  0  0  0  0  0  0  0  0  0
  -31.4463   -0.2775   26.6942 O   0  0  0  0  0  0  0  0  0  0  0  0
  -25.7874   -0.2077   29.3814 N   0  0  0  0  0  0  0  0  0  0  0  0
  -24.6132   -0.3740   28.8733 C   0  0  0  0  0  0  0  0  0  0  0  0
  -23.8048    0.2416   28.4056 C   0  0  0  0  0  0  0  0  0  0  0  0
  -23.7979    1.6634   28.0588 C   0  0  0  0  0  0  0  0  0  0  0  0
  -22.6759    2.2979   27.4638 C   0  0  0  0  0  0  0  0  0  0  0  0
  -21.4342    1.6225   27.5831 C   0  0  0  0  0  0  0  0  0  0  0  0
  -21.2553    0.4091   28.1738 C   0  0  0  0  0  0  0  0  0  0  0  0
  5  7  1  0
  7  8  1  0
  7  9  2  0
  2 10  1  0
 10 11  1  0
 11 12  2  3
 12 13  1  0
 13 14  2  3
 14 15  1  0
 15 16  2  0
  1  2  2  0
  2  3  1  0
  3  4  2  0
  4  5  1  0
  5  6  2  0
  6  1  1  0
M  END

$$$$
