No_3780-gen_results/8p0m/2024-11-26-14-13-15/
     RDKit          3D

 18 20  0  0  0  0  0  0  0  0999 V2000
  -28.0162   -0.8135   28.8779 C   0  0  0  0  0  0  0  0  0  0  0  0
  -28.4690   -0.7850   29.8287 C   0  0  0  0  0  0  0  0  0  0  0  0
  -27.1356    0.2359   28.5352 C   0  0  0  0  0  0  0  0  0  0  0  0
  -26.8050    1.0509   29.2763 C   0  0  0  0  0  0  0  0  0  0  0  0
  -29.4120   -1.8886   30.3141 C   0  0  0  0  0  0  0  0  0  0  0  0
  -27.3211    1.1276   30.6065 C   0  0  0  0  0  0  0  0  0  0  0  0
  -28.1972    0.0819   30.9803 C   0  0  0  0  0  0  0  0  0  0  0  0
  -29.7150   -2.8973   30.2068 O   0  0  0  0  0  0  0  0  0  0  0  0
  -26.4724    0.2133   27.1152 C   0  0  0  0  0  0  0  0  0  0  0  0
  -25.4688    1.1042   26.8538 C   0  0  0  0  0  0  0  0  0  0  0  0
  -25.1528    2.1437   27.7913 C   0  0  0  0  0  0  0  0  0  0  0  0
  -25.7677    2.1155   29.0417 C   0  0  0  0  0  0  0  0  0  0  0  0
  -30.4413   -1.2399   31.3078 N   0  0  0  0  0  0  0  0  0  0  0  0
  -31.4968   -1.6640   31.5423 C   0  0  0  0  0  0  0  0  0  0  0  0
  -24.1103    3.1080   27.3966 C   0  0  0  0  0  0  0  0  0  0  0  0
  -23.4406    2.8523   26.2382 N   0  0  0  0  0  0  0  0  0  0  0  0
  -23.7407    1.8807   25.3544 C   0  0  0  0  0  0  0  0  0  0  0  0
  -24.7252    0.9845   25.6410 C   0  0  0  0  0  0  0  0  0  0  0  0
  2  5  1  0
  5  8  2  0
  5 13  1  0
 13 14  1  0
 11 15  2  0
 15 16  1  0
 16 17  2  0
 17 18  1  0
 18 10  2  0
  4 12  2  0
 12 11  1  0
 11 10  1  0
 10  9  1  0
  9  3  2  0
  1  2  2  0
  2  7  1  0
  7  6  2  0
  6  4  1  0
  4  3  1  0
  3  1  1  0
M  END

$$$$
