No_3564-gen_results/8p0m/2024-11-26-14-13-15/
     RDKit          3D

 20 23  0  0  0  0  0  0  0  0999 V2000
  -28.0162   -0.8135   28.8779 C   0  0  0  0  0  0  0  0  0  0  0  0
  -27.0636   -0.1190   28.6079 C   0  0  0  0  0  0  0  0  0  0  0  0
  -25.7647   -0.3897   29.0360 C   0  0  0  0  0  0  0  0  0  0  0  0
  -25.5296   -1.5302   29.9014 C   0  0  0  0  0  0  0  0  0  0  0  0
  -26.6888   -2.2893   30.1810 C   0  0  0  0  0  0  0  0  0  0  0  0
  -27.8727   -1.9508   29.7373 C   0  0  0  0  0  0  0  0  0  0  0  0
  -24.5491    0.4100   28.7341 C   0  0  0  0  0  0  0  0  0  0  0  0
  -23.3309    0.0437   29.0569 C   0  0  0  0  0  0  0  0  0  0  0  0
  -22.1994    0.8236   28.7067 C   0  0  0  0  0  0  0  0  0  0  0  0
  -22.3657    1.8184   27.6957 C   0  0  0  0  0  0  0  0  0  0  0  0
  -24.6193    1.4577   27.7557 C   0  0  0  0  0  0  0  0  0  0  0  0
  -23.5641    2.1491   27.3161 C   0  0  0  0  0  0  0  0  0  0  0  0
  -29.2336   -2.8867   30.2113 Cl  0  0  0  0  0  0  0  0  0  0  0  0
  -23.7198    3.1940   26.4559 O   0  0  0  0  0  0  0  0  0  0  0  0
  -25.0719    3.2088   25.9628 C   0  0  0  0  0  0  0  0  0  0  0  0
  -25.8374    1.8514   27.1245 C   0  0  0  0  0  0  0  0  0  0  0  0
  -26.7689    2.6172   28.0294 C   0  0  0  0  0  0  0  0  0  0  0  0
  -26.4777    0.9986   26.1734 C   0  0  0  0  0  0  0  0  0  0  0  0
  -27.4581    1.6263   28.8416 C   0  0  0  0  0  0  0  0  0  0  0  0
  -27.5070    3.5557   27.1335 C   0  0  0  0  0  0  0  0  0  0  0  0
  3  7  1  0
  6 13  1  0
 12 14  1  0
 14 15  1  0
 11 16  1  0
 15 16  1  0
 16 17  1  0
 16 18  1  0
  2 19  1  0
 17 19  2  0
 17 20  1  0
  7  8  2  0
  8  9  1  0
  9 10  2  0
 10 12  1  0
 12 11  2  0
 11  7  1  0
  1  2  2  0
  2  3  1  0
  3  4  2  0
  4  5  1  0
  5  6  2  0
  6  1  1  0
M  END

$$$$
