No_3390-gen_results/8p0m/2024-11-26-14-13-15/
     RDKit          3D

 35 37  0  0  0  0  0  0  0  0999 V2000
  -28.1493   -0.8198   28.9079 Cl  0  0  0  0  0  0  0  0  0  0  0  0
  -26.9116   -0.0797   28.9452 C   0  0  0  0  0  0  0  0  0  0  0  0
  -26.0490   -0.0718   27.8591 C   0  0  0  0  0  0  0  0  0  0  0  0
  -24.7194    0.4034   27.9174 C   0  0  0  0  0  0  0  0  0  0  0  0
  -24.2099    0.9302   29.0839 C   0  0  0  0  0  0  0  0  0  0  0  0
  -25.0231    0.9078   30.1875 C   0  0  0  0  0  0  0  0  0  0  0  0
  -26.2532    0.3904   30.1401 C   0  0  0  0  0  0  0  0  0  0  0  0
  -22.8500    1.4478   29.0593 C   0  0  0  0  0  0  0  0  0  0  0  0
  -22.1347    1.6551   28.1050 O   0  0  0  0  0  0  0  0  0  0  0  0
  -22.3524    1.6616   30.3233 O   0  0  0  0  0  0  0  0  0  0  0  0
  -27.0741    0.3447   31.4322 C   0  0  0  0  0  0  0  0  0  0  0  0
  -26.6046   -0.3227   32.2700 O   0  0  0  0  0  0  0  0  0  0  0  0
  -28.1246    1.0112   31.4800 O   0  0  0  0  0  0  0  0  0  0  0  0
  -28.3687    2.0174   30.9647 C   0  0  0  0  0  0  0  0  0  0  0  0
  -29.0770    2.9972   31.7638 C   0  0  0  0  0  0  0  0  0  0  0  0
  -29.4866    2.8006   32.9156 C   0  0  0  0  0  0  0  0  0  0  0  0
  -30.1954    3.7741   33.7725 C   0  0  0  0  0  0  0  0  0  0  0  0
  -30.4168    5.0215   33.1268 C   0  0  0  0  0  0  0  0  0  0  0  0
  -30.0216    5.3082   31.8958 C   0  0  0  0  0  0  0  0  0  0  0  0
  -29.2691    4.3121   31.1161 C   0  0  0  0  0  0  0  0  0  0  0  0
  -31.2413    6.1972   34.0949 Cl  0  0  0  0  0  0  0  0  0  0  0  0
  -28.8577    4.6273   29.7999 C   0  0  0  0  0  0  0  0  0  0  0  0
  -29.3357    5.5143   29.3581 F   0  0  0  0  0  0  0  0  0  0  0  0
  -29.0219    3.4900   29.0557 F   0  0  0  0  0  0  0  0  0  0  0  0
  -27.4607    4.7977   29.8412 F   0  0  0  0  0  0  0  0  0  0  0  0
  -30.6373    3.4376   35.1184 C   0  0  0  0  0  0  0  0  0  0  0  0
  -29.8446    3.7532   36.1201 C   0  0  0  0  0  0  0  0  0  0  0  0
  -28.5117    4.2212   35.9705 C   0  0  0  0  0  0  0  0  0  0  0  0
  -27.8485    4.2695   34.9275 C   0  0  0  0  0  0  0  0  0  0  0  0
  -26.4235    4.7932   35.0626 C   0  0  0  0  0  0  0  0  0  0  0  0
  -25.5816    4.9216   33.8796 C   0  0  0  0  0  0  0  0  0  0  0  0
  -24.5309    5.7812   33.9286 C   0  0  0  0  0  0  0  0  0  0  0  0
  -24.2861    6.6488   34.9750 C   0  0  0  0  0  0  0  0  0  0  0  0
  -25.0704    6.5546   36.0864 C   0  0  0  0  0  0  0  0  0  0  0  0
  -26.1787    5.7393   36.1425 C   0  0  0  0  0  0  0  0  0  0  0  0
  1  2  1  0
  5  8  1  0
  8  9  2  0
  8 10  1  0
  7 11  1  0
 11 12  2  0
 11 13  1  0
 13 14  1  0
 18 21  1  0
 20 22  1  0
 22 23  1  0
 22 24  1  0
 22 25  1  0
 17 26  1  0
 26 27  2  3
 27 28  1  0
 28 29  2  3
 29 30  1  0
 14 15  1  0
 15 16  2  0
 16 17  1  0
 17 18  2  0
 18 19  1  0
 19 20  2  0
 20 15  1  0
  2  3  2  0
  3  4  1  0
  4  5  2  0
  5  6  1  0
  6  7  2  0
  7  2  1  0
 30 31  2  0
 31 32  1  0
 32 33  2  0
 33 34  1  0
 34 35  2  0
 35 30  1  0
M  END

$$$$
