No_3965-gen_results/8p0m/2024-11-26-14-13-15/
     RDKit          3D

 16 17  0  0  0  0  0  0  0  0999 V2000
  -28.0162   -0.8135   28.8779 C   0  0  0  0  0  0  0  0  0  0  0  0
  -28.4690   -0.7850   29.8287 C   0  0  0  0  0  0  0  0  0  0  0  0
  -26.5455   -0.8762   28.8500 C   0  0  0  0  0  0  0  0  0  0  0  0
  -25.8041   -1.0324   30.0571 C   0  0  0  0  0  0  0  0  0  0  0  0
  -26.5373   -1.0386   31.2171 C   0  0  0  0  0  0  0  0  0  0  0  0
  -27.8843   -0.9532   31.1862 C   0  0  0  0  0  0  0  0  0  0  0  0
  -24.3655   -1.1134   30.0483 C   0  0  0  0  0  0  0  0  0  0  0  0
  -23.7447   -1.3690   30.8125 C   0  0  0  0  0  0  0  0  0  0  0  0
  -22.2072   -1.2504   30.8577 C   0  0  0  0  0  0  0  0  0  0  0  0
  -21.6856   -0.8191   29.6527 C   0  0  0  0  0  0  0  0  0  0  0  0
  -23.7345   -0.6112   28.7797 C   0  0  0  0  0  0  0  0  0  0  0  0
  -22.4343   -0.4609   28.6549 C   0  0  0  0  0  0  0  0  0  0  0  0
  -30.0606   -0.6641   29.9175 C   0  0  0  0  0  0  0  0  0  0  0  0
  -30.5636    0.3079   30.5429 O   0  0  0  0  0  0  0  0  0  0  0  0
  -30.7140   -1.4695   29.2514 O   0  0  0  0  0  0  0  0  0  0  0  0
  -25.9075   -0.8119   27.7122 F   0  0  0  0  0  0  0  0  0  0  0  0
  4  7  1  0
  2 13  1  0
 13 14  1  0
 13 15  2  0
  3 16  1  0
  7  8  2  0
  8  9  1  0
  9 10  2  0
 10 12  1  0
 12 11  2  0
 11  7  1  0
  1  2  2  0
  2  6  1  0
  6  5  2  0
  5  4  1  0
  4  3  2  0
  3  1  1  0
M  END

$$$$
