No_3477-gen_results/8p0m/2024-11-26-14-13-15/
     RDKit          3D

 15 16  0  0  0  0  0  0  0  0999 V2000
  -28.0162   -0.8135   28.8779 C   0  0  0  0  0  0  0  0  0  0  0  0
  -27.0636   -0.1189   28.6079 C   0  0  0  0  0  0  0  0  0  0  0  0
  -25.7647   -0.3897   29.0360 C   0  0  0  0  0  0  0  0  0  0  0  0
  -25.5296   -1.5302   29.9014 C   0  0  0  0  0  0  0  0  0  0  0  0
  -26.6888   -2.2893   30.1810 C   0  0  0  0  0  0  0  0  0  0  0  0
  -27.8727   -1.9508   29.7373 C   0  0  0  0  0  0  0  0  0  0  0  0
  -24.6993    0.3604   28.7753 F   0  0  0  0  0  0  0  0  0  0  0  0
  -29.2297   -2.9278   30.1916 Cl  0  0  0  0  0  0  0  0  0  0  0  0
  -27.1621    1.0369   27.8163 O   0  0  0  0  0  0  0  0  0  0  0  0
  -27.4664    0.9024   26.5152 C   0  0  0  0  0  0  0  0  0  0  0  0
  -28.7232    0.8865   26.1728 C   0  0  0  0  0  0  0  0  0  0  0  0
  -29.0874    0.4398   24.9060 C   0  0  0  0  0  0  0  0  0  0  0  0
  -28.0603    0.1774   23.9767 C   0  0  0  0  0  0  0  0  0  0  0  0
  -26.4896    0.4746   25.6075 C   0  0  0  0  0  0  0  0  0  0  0  0
  -26.7448    0.1348   24.3864 C   0  0  0  0  0  0  0  0  0  0  0  0
  3  7  1  0
  6  8  1  0
  2  9  1  0
  9 10  1  0
  1  2  2  0
  2  3  1  0
  3  4  2  0
  4  5  1  0
  5  6  2  0
  6  1  1  0
 10 11  2  0
 11 12  1  0
 12 13  2  0
 13 15  1  0
 15 14  2  0
 14 10  1  0
M  END

$$$$
