No_3353-gen_results/8p0m/2024-11-26-14-13-15/
     RDKit          3D

 17 17  0  0  0  0  0  0  0  0999 V2000
  -28.0162   -0.8135   28.8779 C   0  0  0  0  0  0  0  0  0  0  0  0
  -28.4690   -0.7850   29.8287 C   0  0  0  0  0  0  0  0  0  0  0  0
  -26.5455   -0.8762   28.8500 C   0  0  0  0  0  0  0  0  0  0  0  0
  -25.8041   -1.0324   30.0571 C   0  0  0  0  0  0  0  0  0  0  0  0
  -26.5373   -1.0386   31.2171 C   0  0  0  0  0  0  0  0  0  0  0  0
  -27.8843   -0.9532   31.1862 C   0  0  0  0  0  0  0  0  0  0  0  0
  -24.3555   -1.1121   30.0346 C   0  0  0  0  0  0  0  0  0  0  0  0
  -23.6610    0.1027   29.8448 C   0  0  0  0  0  0  0  0  0  0  0  0
  -23.2716    0.5565   28.6955 C   0  0  0  0  0  0  0  0  0  0  0  0
  -22.7184    1.8389   28.4706 C   0  0  0  0  0  0  0  0  0  0  0  0
  -23.3656    2.4207   27.4092 C   0  0  0  0  0  0  0  0  0  0  0  0
  -24.5703    2.4662   27.3141 C   0  0  0  0  0  0  0  0  0  0  0  0
  -25.1539    1.4594   26.5631 C   0  0  0  0  0  0  0  0  0  0  0  0
  -26.5317    1.5316   26.2612 C   0  0  0  0  0  0  0  0  0  0  0  0
  -27.1550    0.4516   25.6151 C   0  0  0  0  0  0  0  0  0  0  0  0
  -25.3870    3.6021   27.6301 C   0  0  0  0  0  0  0  0  0  0  0  0
  -26.7545    3.6557   27.4269 C   0  0  0  0  0  0  0  0  0  0  0  0
  4  7  1  0
  7  8  1  0
  8  9  2  3
  9 10  1  0
 10 11  1  0
 11 12  1  0
 12 13  1  0
 13 14  2  3
 14 15  1  0
 12 16  1  0
 16 17  2  0
  1  2  2  0
  2  6  1  0
  6  5  2  0
  5  4  1  0
  4  3  2  0
  3  1  1  0
M  END

$$$$
