No_3836-gen_results/8p0m/2024-11-26-14-13-15/
     RDKit          3D

 20 21  0  0  0  0  0  0  0  0999 V2000
  -28.0162   -0.8135   28.8779 C   0  0  0  0  0  0  0  0  0  0  0  0
  -27.0636   -0.1189   28.6079 C   0  0  0  0  0  0  0  0  0  0  0  0
  -27.0010    0.6913   27.4910 C   0  0  0  0  0  0  0  0  0  0  0  0
  -25.8548    1.4825   27.0830 C   0  0  0  0  0  0  0  0  0  0  0  0
  -24.6901    1.4526   27.8807 C   0  0  0  0  0  0  0  0  0  0  0  0
  -24.7379    0.6010   29.0416 C   0  0  0  0  0  0  0  0  0  0  0  0
  -25.8234   -0.1688   29.3887 C   0  0  0  0  0  0  0  0  0  0  0  0
  -28.7568   -0.5479   30.0191 N   0  0  0  0  0  0  0  0  0  0  0  0
  -29.7597   -1.3260   30.5171 C   0  0  0  0  0  0  0  0  0  0  0  0
  -30.2314   -2.2937   29.8869 C   0  0  0  0  0  0  0  0  0  0  0  0
  -31.4006   -2.6851   29.8625 C   0  0  0  0  0  0  0  0  0  0  0  0
  -31.8665   -3.8465   29.0951 C   0  0  0  0  0  0  0  0  0  0  0  0
  -30.9822   -4.9383   29.0122 C   0  0  0  0  0  0  0  0  0  0  0  0
  -29.6151   -4.7160   29.4389 C   0  0  0  0  0  0  0  0  0  0  0  0
  -29.2194   -3.4953   29.9766 C   0  0  0  0  0  0  0  0  0  0  0  0
  -30.3356   -0.7798   31.5511 O   0  0  0  0  0  0  0  0  0  0  0  0
  -23.5166    2.1948   27.5436 C   0  0  0  0  0  0  0  0  0  0  0  0
  -23.5906    2.9364   26.6224 F   0  0  0  0  0  0  0  0  0  0  0  0
  -22.4341    1.3066   27.2171 F   0  0  0  0  0  0  0  0  0  0  0  0
  -23.0324    2.8629   28.6803 F   0  0  0  0  0  0  0  0  0  0  0  0
  1  2  1  0
  1  8  1  0
  8  9  1  0
  9 10  1  0
  9 16  2  0
  5 17  1  0
 17 18  1  0
 17 19  1  0
 17 20  1  0
  2  3  2  0
  3  4  1  0
  4  5  2  0
  5  6  1  0
  6  7  2  0
  7  2  1  0
 10 11  2  0
 11 12  1  0
 12 13  2  0
 13 14  1  0
 14 15  2  0
 15 10  1  0
M  END

$$$$
