No_3438-gen_results/8p0m/2024-11-26-14-13-15/
     RDKit          3D

 10 11  0  0  0  0  0  0  0  0999 V2000
  -28.0544   -1.0498   28.7246 N   0  0  0  0  0  0  0  0  0  0  0  0
  -26.9659   -0.4722   28.7709 C   0  0  0  0  0  0  0  0  0  0  0  0
  -26.8423    0.7388   29.2341 C   0  0  0  0  0  0  0  0  0  0  0  0
  -27.9523    1.4476   29.6919 C   0  0  0  0  0  0  0  0  0  0  0  0
  -29.1477   -0.4833   29.2435 C   0  0  0  0  0  0  0  0  0  0  0  0
  -29.1466    0.7686   29.7055 C   0  0  0  0  0  0  0  0  0  0  0  0
  -25.7856   -1.0922   28.3304 N   0  0  0  0  0  0  0  0  0  0  0  0
  -24.6586   -1.0794   28.9522 C   0  0  0  0  0  0  0  0  0  0  0  0
  -24.2117    0.2481   29.2530 C   0  0  0  0  0  0  0  0  0  0  0  0
  -25.4083    1.1142   29.7172 C   0  0  0  0  0  0  0  0  0  0  0  0
  1  2  2  0
  3  4  2  0
  4  6  1  0
  6  5  2  0
  5  1  1  0
  2  3  1  0
  3 10  1  0
 10  9  2  0
  9  8  1  0
  8  7  2  0
  7  2  1  0
M  END

$$$$
