No_3659-gen_results/8p0m/2024-11-26-14-13-15/
     RDKit          3D

 10 11  0  0  0  0  0  0  0  0999 V2000
  -28.0544   -1.0498   28.7246 N   0  0  0  0  0  0  0  0  0  0  0  0
  -26.9659   -0.4722   28.7709 C   0  0  0  0  0  0  0  0  0  0  0  0
  -26.5486    0.3876   27.8310 C   0  0  0  0  0  0  0  0  0  0  0  0
  -27.4665    0.7388   26.8314 C   0  0  0  0  0  0  0  0  0  0  0  0
  -28.6992    0.2175   26.8921 C   0  0  0  0  0  0  0  0  0  0  0  0
  -29.0128   -0.5588   27.9370 C   0  0  0  0  0  0  0  0  0  0  0  0
  -25.9571   -0.8486   29.7128 N   0  0  0  0  0  0  0  0  0  0  0  0
  -24.6752   -0.4656   29.6015 C   0  0  0  0  0  0  0  0  0  0  0  0
  -24.3298    0.5546   28.6742 C   0  0  0  0  0  0  0  0  0  0  0  0
  -25.1547    0.9359   27.7238 C   0  0  0  0  0  0  0  0  0  0  0  0
  1  2  2  0
  3  4  2  0
  4  5  1  0
  5  6  2  0
  6  1  1  0
  2  3  1  0
  3 10  1  0
 10  9  2  0
  9  8  1  0
  8  7  2  0
  7  2  1  0
M  END

$$$$
