No_3166-gen_results/8p0m/2024-11-26-14-13-15/
     RDKit          3D

 18 19  0  0  0  0  0  0  0  0999 V2000
  -28.1229   -1.3353   28.4874 O   0  0  0  0  0  0  0  0  0  0  0  0
  -27.0637   -0.8242   28.8687 C   0  0  0  0  0  0  0  0  0  0  0  0
  -25.9464   -1.0396   28.8492 C   0  0  0  0  0  0  0  0  0  0  0  0
  -25.3522   -2.2524   28.5471 C   0  0  0  0  0  0  0  0  0  0  0  0
  -27.2573    0.6208   29.4840 N   0  0  0  0  0  0  0  0  0  0  0  0
  -26.2615    1.3937   29.8365 C   0  0  0  0  0  0  0  0  0  0  0  0
  -24.9553    0.9041   29.8149 C   0  0  0  0  0  0  0  0  0  0  0  0
  -24.6763   -0.2883   29.3924 C   0  0  0  0  0  0  0  0  0  0  0  0
  -24.0664   -2.7890   28.9558 C   0  0  0  0  0  0  0  0  0  0  0  0
  -23.0335   -2.0020   29.3354 C   0  0  0  0  0  0  0  0  0  0  0  0
  -23.3187   -0.7677   29.6037 C   0  0  0  0  0  0  0  0  0  0  0  0
  -26.6041    2.6316   30.3355 N   0  0  0  0  0  0  0  0  0  0  0  0
  -27.5466    3.2828   30.3518 C   0  0  0  0  0  0  0  0  0  0  0  0
  -28.6644    2.9300   29.8429 C   0  0  0  0  0  0  0  0  0  0  0  0
  -29.8978    3.4344   29.9193 C   0  0  0  0  0  0  0  0  0  0  0  0
  -30.9980    2.8264   29.3397 C   0  0  0  0  0  0  0  0  0  0  0  0
  -30.8250    1.6260   28.6414 C   0  0  0  0  0  0  0  0  0  0  0  0
  -29.5876    1.0700   28.5129 C   0  0  0  0  0  0  0  0  0  0  0  0
  1  2  2  0
  2  3  1  0
  2  5  1  0
  6  7  1  0
  6 12  1  0
 12 13  2  3
 13 14  1  0
 14 15  1  0
 15 16  2  3
 16 17  1  0
 17 18  2  0
  8  7  1  0
  6  5  1  0
  3  4  2  0
  4  9  1  0
  9 10  2  0
 10 11  1  0
 11  8  2  0
  8  3  1  0
M  END

$$$$
