No_3798-gen_results/8p0m/2024-11-26-14-13-15/
     RDKit          3D

 32 34  0  0  0  0  0  0  0  0999 V2000
  -28.0162   -0.8135   28.8779 C   0  0  0  0  0  0  0  0  0  0  0  0
  -28.4690   -0.7850   29.8287 C   0  0  0  0  0  0  0  0  0  0  0  0
  -27.0871    0.2903   28.6377 C   0  0  0  0  0  0  0  0  0  0  0  0
  -26.2516    0.4114   27.4223 C   0  0  0  0  0  0  0  0  0  0  0  0
  -28.3913    0.1041   30.9805 C   0  0  0  0  0  0  0  0  0  0  0  0
  -27.5332    1.1666   30.7866 C   0  0  0  0  0  0  0  0  0  0  0  0
  -26.8281    1.2557   29.6454 C   0  0  0  0  0  0  0  0  0  0  0  0
  -26.1100    1.6187   27.1366 F   0  0  0  0  0  0  0  0  0  0  0  0
  -24.5992   -0.4829   27.5689 Br  0  0  0  0  0  0  0  0  0  0  0  0
  -26.9143   -0.1162   26.3135 F   0  0  0  0  0  0  0  0  0  0  0  0
  -29.4665   -2.0239   30.2150 C   0  0  0  0  0  0  0  0  0  0  0  0
  -29.9140   -2.0424   31.4149 O   0  0  0  0  0  0  0  0  0  0  0  0
  -29.9264   -2.6776   29.3377 O   0  0  0  0  0  0  0  0  0  0  0  0
  -27.3103    2.1812   31.8409 C   0  0  0  0  0  0  0  0  0  0  0  0
  -26.5546    3.0919   31.6768 C   0  0  0  0  0  0  0  0  0  0  0  0
  -26.1381    4.0590   32.0872 C   0  0  0  0  0  0  0  0  0  0  0  0
  -25.0420    5.0212   31.7253 C   0  0  0  0  0  0  0  0  0  0  0  0
  -24.7555    4.8534   30.3991 C   0  0  0  0  0  0  0  0  0  0  0  0
  -25.2353    3.8091   29.6508 C   0  0  0  0  0  0  0  0  0  0  0  0
  -26.0642    2.9717   30.2071 C   0  0  0  0  0  0  0  0  0  0  0  0
  -26.2771    3.7033   29.2619 Cl  0  0  0  0  0  0  0  0  0  0  0  0
  -25.3270    1.3912   29.4939 O   0  0  0  0  0  0  0  0  0  0  0  0
  -24.6928    0.9592   30.6803 C   0  0  0  0  0  0  0  0  0  0  0  0
  -23.8838    3.4210   28.5856 Cl  0  0  0  0  0  0  0  0  0  0  0  0
  -23.2649    0.9078   30.5029 C   0  0  0  0  0  0  0  0  0  0  0  0
  -25.1159    0.1478   31.7141 C   0  0  0  0  0  0  0  0  0  0  0  0
  -24.2566   -0.6168   32.4930 C   0  0  0  0  0  0  0  0  0  0  0  0
  -22.4083   -0.0152   31.1629 C   0  0  0  0  0  0  0  0  0  0  0  0
  -22.9747   -0.7368   32.1858 C   0  0  0  0  0  0  0  0  0  0  0  0
  -25.9670    2.6963   31.1757 F   0  0  0  0  0  0  0  0  0  0  0  0
  -27.7357    2.2327   28.9673 O   0  0  0  0  0  0  0  0  0  0  0  0
  -28.4535    2.7090   28.4128 C   0  0  0  0  0  0  0  0  0  0  0  0
  1  2  1  0
  3  4  1  0
  5  6  1  0
  3  7  1  0
  6  7  1  0
  4  8  1  0
  4  9  1  0
  4 10  1  0
  2 11  1  0
 11 12  2  0
 11 13  1  0
  6 14  1  0
 15 16  1  0
 16 17  2  0
 17 18  1  0
 18 19  2  0
 15 20  1  0
 19 20  1  0
 20 21  1  0
  7 22  1  0
 22 23  1  0
 19 24  1  0
 20 30  1  0
  7 31  1  0
 31 32  1  0
 14 15  1  0
  3  1  1  0
  2  5  1  0
 23 25  2  0
 25 28  1  0
 28 29  2  0
 29 27  1  0
 27 26  2  0
 26 23  1  0
M  END

$$$$
