No_3821-gen_results/8p0m/2024-11-26-14-13-15/
     RDKit          3D

 17 18  0  0  0  0  0  0  0  0999 V2000
  -28.0162   -0.8135   28.8779 C   0  0  0  0  0  0  0  0  0  0  0  0
  -27.0636   -0.1189   28.6079 C   0  0  0  0  0  0  0  0  0  0  0  0
  -27.0010    0.6913   27.4910 C   0  0  0  0  0  0  0  0  0  0  0  0
  -25.8548    1.4825   27.0830 C   0  0  0  0  0  0  0  0  0  0  0  0
  -24.6901    1.4526   27.8807 C   0  0  0  0  0  0  0  0  0  0  0  0
  -23.4878    2.1451   27.6011 C   0  0  0  0  0  0  0  0  0  0  0  0
  -25.8122   -0.1656   29.4299 C   0  0  0  0  0  0  0  0  0  0  0  0
  -24.6457    0.5887   29.0806 C   0  0  0  0  0  0  0  0  0  0  0  0
  -28.6694   -0.4862   30.2406 C   0  0  0  0  0  0  0  0  0  0  0  0
  -22.4600    1.5995   27.2436 N   0  0  0  0  0  0  0  0  0  0  0  0
  -29.4307   -1.4847   30.6374 F   0  0  0  0  0  0  0  0  0  0  0  0
  -29.4913    0.5893   30.1946 F   0  0  0  0  0  0  0  0  0  0  0  0
  -27.7845   -0.3514   31.2315 F   0  0  0  0  0  0  0  0  0  0  0  0
  -23.6416    3.4392   27.4197 O   0  0  0  0  0  0  0  0  0  0  0  0
  -21.9577    0.4135   27.8508 C   0  0  0  0  0  0  0  0  0  0  0  0
  -22.4730   -0.2335   28.7711 C   0  0  0  0  0  0  0  0  0  0  0  0
  -23.8374   -0.4016   29.1177 C   0  0  0  0  0  0  0  0  0  0  0  0
  1  2  1  0
  5  6  1  0
  1  9  1  0
  6 10  1  0
  9 11  1  0
  9 12  1  0
  9 13  1  0
  6 14  2  0
 10 15  1  0
 15 16  2  0
  8 17  1  0
 16 17  1  0
  2  3  2  0
  3  4  1  0
  4  5  2  0
  5  8  1  0
  8  7  2  0
  7  2  1  0
M  END

$$$$
