No_3471-gen_results/8p0m/2024-11-26-14-13-15/
     RDKit          3D

 24 26  0  0  0  0  0  0  0  0999 V2000
  -28.0162   -0.8135   28.8779 C   0  0  0  0  0  0  0  0  0  0  0  0
  -28.4690   -0.7850   29.8287 C   0  0  0  0  0  0  0  0  0  0  0  0
  -26.5042   -0.7777   28.8766 C   0  0  0  0  0  0  0  0  0  0  0  0
  -25.8103   -0.8531   30.1028 C   0  0  0  0  0  0  0  0  0  0  0  0
  -27.9906   -0.8916   31.2257 C   0  0  0  0  0  0  0  0  0  0  0  0
  -26.6042   -0.8676   31.2652 C   0  0  0  0  0  0  0  0  0  0  0  0
  -23.9859   -0.7976   30.1716 Br  0  0  0  0  0  0  0  0  0  0  0  0
  -30.3292   -0.8398   29.8324 Cl  0  0  0  0  0  0  0  0  0  0  0  0
  -25.7389   -0.7486   27.7443 O   0  0  0  0  0  0  0  0  0  0  0  0
  -25.4742    0.4808   27.1654 C   0  0  0  0  0  0  0  0  0  0  0  0
  -24.2672    0.9960   27.3478 C   0  0  0  0  0  0  0  0  0  0  0  0
  -23.9683    2.0437   27.1998 C   0  0  0  0  0  0  0  0  0  0  0  0
  -24.6710    2.9278   26.2265 C   0  0  0  0  0  0  0  0  0  0  0  0
  -26.4023    1.0590   26.3567 C   0  0  0  0  0  0  0  0  0  0  0  0
  -26.0028    2.3636   25.8940 C   0  0  0  0  0  0  0  0  0  0  0  0
  -24.2839    4.1195   25.8623 O   0  0  0  0  0  0  0  0  0  0  0  0
  -27.5796    0.5330   25.8736 C   0  0  0  0  0  0  0  0  0  0  0  0
  -28.1194    1.1004   24.6518 C   0  0  0  0  0  0  0  0  0  0  0  0
  -29.4033    1.5385   24.6734 C   0  0  0  0  0  0  0  0  0  0  0  0
  -30.1699    1.5983   25.7035 C   0  0  0  0  0  0  0  0  0  0  0  0
  -31.4359    2.0632   25.6481 C   0  0  0  0  0  0  0  0  0  0  0  0
  -31.9326    2.4530   24.3883 C   0  0  0  0  0  0  0  0  0  0  0  0
  -31.1901    2.4220   23.2396 C   0  0  0  0  0  0  0  0  0  0  0  0
  -29.8974    1.9758   23.3815 C   0  0  0  0  0  0  0  0  0  0  0  0
  4  7  1  0
  2  8  1  0
  3  9  1  0
  9 10  1  0
 13 16  1  0
 14 17  1  0
 17 18  2  3
 18 19  1  0
 10 11  2  0
 11 12  1  0
 12 13  2  0
 13 15  1  0
 15 14  2  0
 14 10  1  0
  1  2  2  0
  2  5  1  0
  5  6  2  0
  6  4  1  0
  4  3  2  0
  3  1  1  0
 19 20  2  0
 20 21  1  0
 21 22  2  0
 22 23  1  0
 23 24  2  0
 24 19  1  0
M  END

$$$$
