No_356-gen_results/8p0m/2024-11-26-14-13-15/
     RDKit          3D

 12 12  0  0  0  0  0  0  0  0999 V2000
  -28.0162   -0.8135   28.8779 C   0  0  0  0  0  0  0  0  0  0  0  0
  -28.4690   -0.7850   29.8287 C   0  0  0  0  0  0  0  0  0  0  0  0
  -27.0871    0.2903   28.6377 C   0  0  0  0  0  0  0  0  0  0  0  0
  -26.9102    0.8486   27.4199 C   0  0  0  0  0  0  0  0  0  0  0  0
  -29.6069   -1.6266   30.1338 C   0  0  0  0  0  0  0  0  0  0  0  0
  -25.7234    1.3208   27.0407 C   0  0  0  0  0  0  0  0  0  0  0  0
  -24.6229    1.5356   27.9411 C   0  0  0  0  0  0  0  0  0  0  0  0
  -24.7675    0.9407   29.1932 C   0  0  0  0  0  0  0  0  0  0  0  0
  -25.9505    0.2473   29.4560 C   0  0  0  0  0  0  0  0  0  0  0  0
  -30.3574   -1.5469   29.2946 F   0  0  0  0  0  0  0  0  0  0  0  0
  -29.3703   -2.9669   30.2880 F   0  0  0  0  0  0  0  0  0  0  0  0
  -30.2517   -1.3708   31.2959 F   0  0  0  0  0  0  0  0  0  0  0  0
  1  2  1  0
  1  3  1  0
  2  5  1  0
  5 10  1  0
  5 11  1  0
  5 12  1  0
  3  4  2  0
  4  6  1  0
  6  7  2  0
  7  8  1  0
  8  9  2  0
  9  3  1  0
M  END

$$$$
