No_3190-gen_results/8p0m/2024-11-26-14-13-15/
     RDKit          3D

 21 23  0  0  0  0  0  0  0  0999 V2000
  -28.0162   -0.8135   28.8779 C   0  0  0  0  0  0  0  0  0  0  0  0
  -27.0636   -0.1189   28.6079 C   0  0  0  0  0  0  0  0  0  0  0  0
  -25.7923   -0.4302   29.0761 C   0  0  0  0  0  0  0  0  0  0  0  0
  -24.5456    0.3494   28.8225 C   0  0  0  0  0  0  0  0  0  0  0  0
  -23.2409    0.0217   29.3323 C   0  0  0  0  0  0  0  0  0  0  0  0
  -27.8820   -1.8995   29.8633 C   0  0  0  0  0  0  0  0  0  0  0  0
  -26.6526   -2.3142   30.3138 C   0  0  0  0  0  0  0  0  0  0  0  0
  -25.5153   -1.5607   29.9787 C   0  0  0  0  0  0  0  0  0  0  0  0
  -23.2160   -1.2277   30.0505 C   0  0  0  0  0  0  0  0  0  0  0  0
  -24.2438   -1.9369   30.3995 C   0  0  0  0  0  0  0  0  0  0  0  0
  -24.5818    1.5617   27.9589 C   0  0  0  0  0  0  0  0  0  0  0  0
  -24.7842    2.6368   28.4794 N   0  0  0  0  0  0  0  0  0  0  0  0
  -24.3933    1.4236   26.5531 C   0  0  0  0  0  0  0  0  0  0  0  0
  -24.9619    3.7962   27.7539 C   0  0  0  0  0  0  0  0  0  0  0  0
  -24.4556    2.5463   25.7597 C   0  0  0  0  0  0  0  0  0  0  0  0
  -25.2013    5.0444   28.3171 N   0  0  0  0  0  0  0  0  0  0  0  0
  -24.7210    3.7760   26.3509 C   0  0  0  0  0  0  0  0  0  0  0  0
  -25.6664    5.1005   29.6212 C   0  0  0  0  0  0  0  0  0  0  0  0
  -25.7996    6.4101   30.1643 C   0  0  0  0  0  0  0  0  0  0  0  0
  -25.0430    6.2370   27.6519 C   0  0  0  0  0  0  0  0  0  0  0  0
  -25.9614    6.5921   31.4433 N   0  0  0  0  0  0  0  0  0  0  0  0
  4 11  1  0
 14 16  1  0
 16 18  1  0
 18 19  2  3
 16 20  1  0
 19 21  1  0
  1  2  2  0
  2  3  1  0
  8  7  1  0
  7  6  2  0
  6  1  1  0
  3  4  2  0
  4  5  1  0
  5  9  2  0
  9 10  1  0
 10  8  2  0
  8  3  1  0
 11 12  2  0
 12 14  1  0
 14 17  2  0
 17 15  1  0
 15 13  2  0
 13 11  1  0
M  END

$$$$
