No_3893-gen_results/8p0m/2024-11-26-14-13-15/
     RDKit          3D

 23 25  0  0  0  0  0  0  0  0999 V2000
  -28.0162   -0.8135   28.8779 C   0  0  0  0  0  0  0  0  0  0  0  0
  -27.0636   -0.1189   28.6079 C   0  0  0  0  0  0  0  0  0  0  0  0
  -25.7923   -0.4302   29.0761 C   0  0  0  0  0  0  0  0  0  0  0  0
  -24.5456    0.3494   28.8225 C   0  0  0  0  0  0  0  0  0  0  0  0
  -24.6586    1.4196   27.8878 C   0  0  0  0  0  0  0  0  0  0  0  0
  -25.9471    1.6811   27.3792 C   0  0  0  0  0  0  0  0  0  0  0  0
  -27.0439    0.9739   27.6871 C   0  0  0  0  0  0  0  0  0  0  0  0
  -29.2096   -0.0265   29.3432 C   0  0  0  0  0  0  0  0  0  0  0  0
  -29.4825   -0.0930   30.5632 C   0  0  0  0  0  0  0  0  0  0  0  0
  -30.3517   -0.5003   28.4834 N   0  0  0  0  0  0  0  0  0  0  0  0
  -23.4564    2.1651   27.6147 C   0  0  0  0  0  0  0  0  0  0  0  0
  -23.4779    3.1214   26.7918 N   0  0  0  0  0  0  0  0  0  0  0  0
  -22.2925    1.7799   28.0076 O   0  0  0  0  0  0  0  0  0  0  0  0
  -31.5232    0.2305   28.4215 C   0  0  0  0  0  0  0  0  0  0  0  0
  -32.1164    0.1195   29.7242 C   0  0  0  0  0  0  0  0  0  0  0  0
  -31.2394    0.3927   30.8875 C   0  0  0  0  0  0  0  0  0  0  0  0
  -33.2832    1.1175   29.9272 C   0  0  0  0  0  0  0  0  0  0  0  0
  -33.0466    2.3764   30.0686 C   0  0  0  0  0  0  0  0  0  0  0  0
  -32.0358    2.9206   29.5079 C   0  0  0  0  0  0  0  0  0  0  0  0
  -31.7828    4.3771   29.6260 C   0  0  0  0  0  0  0  0  0  0  0  0
  -32.7507    5.0909   30.2640 C   0  0  0  0  0  0  0  0  0  0  0  0
  -33.8339    4.5091   30.7989 C   0  0  0  0  0  0  0  0  0  0  0  0
  -33.9964    3.1642   30.7120 C   0  0  0  0  0  0  0  0  0  0  0  0
  1  2  1  0
  1  8  1  0
  5 11  1  0
 11 12  1  0
 11 13  2  0
 15 17  1  0
 17 18  1  0
 18 19  2  0
 19 20  1  0
 20 21  2  0
 21 22  1  0
 22 23  2  0
 23 18  1  0
  2  3  2  0
  3  4  1  0
  4  5  2  0
  5  6  1  0
  6  7  2  0
  7  2  1  0
  8  9  2  0
  9 16  1  0
 16 15  2  0
 15 14  1  0
 14 10  2  0
 10  8  1  0
M  END

$$$$
