No_3135-gen_results/8p0m/2024-11-26-14-13-15/
     RDKit          3D

 12 12  0  0  0  0  0  0  0  0999 V2000
  -28.0162   -0.8135   28.8779 C   0  0  0  0  0  0  0  0  0  0  0  0
  -28.4690   -0.7850   29.8287 C   0  0  0  0  0  0  0  0  0  0  0  0
  -26.5042   -0.7777   28.8766 C   0  0  0  0  0  0  0  0  0  0  0  0
  -25.7623   -0.0022   27.9705 C   0  0  0  0  0  0  0  0  0  0  0  0
  -24.3914    0.1198   28.1381 C   0  0  0  0  0  0  0  0  0  0  0  0
  -23.7115   -0.7200   29.0863 C   0  0  0  0  0  0  0  0  0  0  0  0
  -22.2952   -0.5807   29.2689 C   0  0  0  0  0  0  0  0  0  0  0  0
  -27.9776   -1.4826   31.0816 C   0  0  0  0  0  0  0  0  0  0  0  0
  -26.5869   -1.6416   31.0603 C   0  0  0  0  0  0  0  0  0  0  0  0
  -25.8434   -1.2669   30.0370 C   0  0  0  0  0  0  0  0  0  0  0  0
  -24.4071   -1.2359   30.0939 C   0  0  0  0  0  0  0  0  0  0  0  0
  -23.8379   -1.8911   31.0491 F   0  0  0  0  0  0  0  0  0  0  0  0
  3  4  1  0
  4  5  2  3
  5  6  1  0
  6  7  2  0
 10 11  1  0
 11 12  1  0
  1  2  2  0
  2  8  1  0
  8  9  2  0
  9 10  1  0
 10  3  2  0
  3  1  1  0
M  END

$$$$
