No_325-gen_results/8p0m/2024-11-26-14-13-15/
     RDKit          3D

 27 29  0  0  0  0  0  0  0  0999 V2000
  -28.0162   -0.8135   28.8779 C   0  0  0  0  0  0  0  0  0  0  0  0
  -27.0636   -0.1190   28.6079 C   0  0  0  0  0  0  0  0  0  0  0  0
  -25.7647   -0.3897   29.0360 C   0  0  0  0  0  0  0  0  0  0  0  0
  -24.5516    0.4058   28.7646 C   0  0  0  0  0  0  0  0  0  0  0  0
  -24.6957    1.4480   27.7988 C   0  0  0  0  0  0  0  0  0  0  0  0
  -25.9755    1.7250   27.3077 C   0  0  0  0  0  0  0  0  0  0  0  0
  -27.0718    1.0134   27.6535 C   0  0  0  0  0  0  0  0  0  0  0  0
  -28.6043   -0.4743   30.2323 C   0  0  0  0  0  0  0  0  0  0  0  0
  -28.2472    0.2907   30.9004 N   0  0  0  0  0  0  0  0  0  0  0  0
  -29.6448   -1.3787   30.5490 O   0  0  0  0  0  0  0  0  0  0  0  0
  -28.8529    0.5816   32.2842 C   0  0  0  0  0  0  0  0  0  0  0  0
  -23.5008    2.2412   27.5186 C   0  0  0  0  0  0  0  0  0  0  0  0
  -23.7419    3.2620   26.8811 F   0  0  0  0  0  0  0  0  0  0  0  0
  -22.7591    2.5556   28.5846 F   0  0  0  0  0  0  0  0  0  0  0  0
  -22.5987    1.4692   26.7022 F   0  0  0  0  0  0  0  0  0  0  0  0
  -28.3734    1.3554   27.0666 C   0  0  0  0  0  0  0  0  0  0  0  0
  -29.0754    2.0087   27.6316 O   0  0  0  0  0  0  0  0  0  0  0  0
  -28.6983    0.5570   25.9874 O   0  0  0  0  0  0  0  0  0  0  0  0
  -25.5187   -1.3777   29.8942 F   0  0  0  0  0  0  0  0  0  0  0  0
  -28.7175    1.5615   32.7356 C   0  0  0  0  0  0  0  0  0  0  0  0
  -27.7107    2.6037   32.3430 C   0  0  0  0  0  0  0  0  0  0  0  0
  -27.1272    2.3458   31.0533 C   0  0  0  0  0  0  0  0  0  0  0  0
  -27.4661    1.3434   30.4725 C   0  0  0  0  0  0  0  0  0  0  0  0
  -26.2393    3.4911   30.6442 C   0  0  0  0  0  0  0  0  0  0  0  0
  -26.4926    4.8171   30.9960 C   0  0  0  0  0  0  0  0  0  0  0  0
  -26.7402    5.0289   32.2944 C   0  0  0  0  0  0  0  0  0  0  0  0
  -27.7778    4.0488   32.9528 C   0  0  0  0  0  0  0  0  0  0  0  0
  1  2  2  3
  2  3  1  0
  3  4  1  0
  4  5  1  0
  5  6  1  0
  2  7  1  0
  6  7  1  0
  1  8  1  0
  8  9  1  0
  8 10  2  0
  9 11  1  0
  5 12  1  0
 12 13  1  0
 12 14  1  0
 12 15  1  0
  7 16  1  0
 16 17  2  0
 16 18  1  0
  3 19  1  0
 20 21  1  0
  9 23  1  0
 22 23  1  0
 11 20  1  0
 21 27  2  0
 27 26  1  0
 26 25  2  0
 25 24  1  0
 24 22  2  0
 22 21  1  0
M  END

$$$$
