No_3819-gen_results/8p0m/2024-11-26-14-13-15/
     RDKit          3D

 18 19  0  0  0  0  0  0  0  0999 V2000
  -28.0162   -0.8135   28.8779 C   0  0  0  0  0  0  0  0  0  0  0  0
  -28.4690   -0.7850   29.8287 C   0  0  0  0  0  0  0  0  0  0  0  0
  -26.5455   -0.8762   28.8500 C   0  0  0  0  0  0  0  0  0  0  0  0
  -25.8041   -1.0324   30.0571 C   0  0  0  0  0  0  0  0  0  0  0  0
  -27.9437   -0.9869   31.2075 C   0  0  0  0  0  0  0  0  0  0  0  0
  -26.5825   -1.0386   31.2231 C   0  0  0  0  0  0  0  0  0  0  0  0
  -30.0606   -0.7371   29.9024 C   0  0  0  0  0  0  0  0  0  0  0  0
  -30.6056   -0.0348   29.0093 N   0  0  0  0  0  0  0  0  0  0  0  0
  -30.1203    1.0098   28.5447 C   0  0  0  0  0  0  0  0  0  0  0  0
  -30.3257    1.1953   27.0449 C   0  0  0  0  0  0  0  0  0  0  0  0
  -31.0377    0.4313   26.3733 C   0  0  0  0  0  0  0  0  0  0  0  0
  -31.7018   -0.6733   27.0209 C   0  0  0  0  0  0  0  0  0  0  0  0
  -31.4372   -0.9369   28.2714 C   0  0  0  0  0  0  0  0  0  0  0  0
  -30.6558   -1.2443   30.9205 O   0  0  0  0  0  0  0  0  0  0  0  0
  -25.7288   -0.7563   27.5868 C   0  0  0  0  0  0  0  0  0  0  0  0
  -26.1839   -0.0790   26.6036 N   0  0  0  0  0  0  0  0  0  0  0  0
  -25.5160    0.1223   25.4932 C   0  0  0  0  0  0  0  0  0  0  0  0
  -24.6326   -1.1634   27.6507 O   0  0  0  0  0  0  0  0  0  0  0  0
  2  7  1  0
  7  8  1  0
  8  9  1  0
 10 11  1  0
  8 13  1  0
 12 13  1  0
  7 14  2  0
  3 15  1  0
 15 16  1  0
 16 17  1  0
 15 18  2  0
  9 10  1  0
 11 12  1  0
  1  2  2  0
  2  5  1  0
  5  6  2  0
  6  4  1  0
  4  3  2  0
  3  1  1  0
M  END

$$$$
