No_3867-gen_results/8p0m/2024-11-26-14-13-15/
     RDKit          3D

 22 24  0  0  0  0  0  0  0  0999 V2000
  -28.0162   -0.8135   28.8779 C   0  0  0  0  0  0  0  0  0  0  0  0
  -28.4690   -0.7850   29.8287 C   0  0  0  0  0  0  0  0  0  0  0  0
  -26.5042   -0.7777   28.8766 C   0  0  0  0  0  0  0  0  0  0  0  0
  -25.8103   -0.8531   30.1028 C   0  0  0  0  0  0  0  0  0  0  0  0
  -27.9906   -0.8916   31.2257 C   0  0  0  0  0  0  0  0  0  0  0  0
  -26.6042   -0.8676   31.2652 C   0  0  0  0  0  0  0  0  0  0  0  0
  -24.4858   -0.8015   30.1495 N   0  0  0  0  0  0  0  0  0  0  0  0
  -23.7751   -0.6199   30.9088 C   0  0  0  0  0  0  0  0  0  0  0  0
  -22.3447   -0.5930   30.7647 N   0  0  0  0  0  0  0  0  0  0  0  0
  -23.3189   -1.1837   29.1822 C   0  0  0  0  0  0  0  0  0  0  0  0
  -22.1634   -0.9238   29.6007 C   0  0  0  0  0  0  0  0  0  0  0  0
  -30.0818   -0.7543   29.8392 C   0  0  0  0  0  0  0  0  0  0  0  0
  -30.4978   -0.3204   28.8762 O   0  0  0  0  0  0  0  0  0  0  0  0
  -30.8086   -1.2107   30.8806 N   0  0  0  0  0  0  0  0  0  0  0  0
  -32.2516   -1.1625   30.8154 C   0  0  0  0  0  0  0  0  0  0  0  0
  -32.8249   -1.9212   31.5830 C   0  0  0  0  0  0  0  0  0  0  0  0
  -32.1962   -2.6208   32.6793 C   0  0  0  0  0  0  0  0  0  0  0  0
  -30.7905   -2.6745   32.7115 C   0  0  0  0  0  0  0  0  0  0  0  0
  -30.1258   -2.0856   31.7858 C   0  0  0  0  0  0  0  0  0  0  0  0
  -28.6828   -1.9249   31.9902 C   0  0  0  0  0  0  0  0  0  0  0  0
  -28.1598   -2.4028   32.9953 O   0  0  0  0  0  0  0  0  0  0  0  0
  -28.2451   -2.7749   31.4380 F   0  0  0  0  0  0  0  0  0  0  0  0
  4  7  1  0
  7  8  1  0
  8  9  2  0
  7 10  1  0
  9 11  1  0
 10 11  2  0
  2 12  1  0
 12 13  2  0
 12 14  1  0
 14 15  1  0
 16 17  1  0
 14 19  1  0
 18 19  1  0
 19 20  1  0
 20 21  2  0
 20 22  1  0
 15 16  1  0
 17 18  1  0
  1  2  2  0
  2  5  1  0
  5  6  2  0
  6  4  1  0
  4  3  2  0
  3  1  1  0
M  END

$$$$
