No_3661-gen_results/8p0m/2024-11-26-14-13-15/
     RDKit          3D

 17 18  0  0  0  0  0  0  0  0999 V2000
  -28.0162   -0.8135   28.8779 C   0  0  0  0  0  0  0  0  0  0  0  0
  -27.0636   -0.1189   28.6079 C   0  0  0  0  0  0  0  0  0  0  0  0
  -26.9716    0.7139   27.5060 C   0  0  0  0  0  0  0  0  0  0  0  0
  -25.8206    1.4910   27.1160 C   0  0  0  0  0  0  0  0  0  0  0  0
  -24.6562    1.4242   27.9180 C   0  0  0  0  0  0  0  0  0  0  0  0
  -23.4598    2.1165   27.6160 C   0  0  0  0  0  0  0  0  0  0  0  0
  -22.3449    1.9937   28.4413 C   0  0  0  0  0  0  0  0  0  0  0  0
  -22.3657    0.9905   29.4427 C   0  0  0  0  0  0  0  0  0  0  0  0
  -23.4794    0.3053   29.7917 C   0  0  0  0  0  0  0  0  0  0  0  0
  -24.6337    0.4667   29.0059 C   0  0  0  0  0  0  0  0  0  0  0  0
  -25.7698   -0.2579   29.3337 C   0  0  0  0  0  0  0  0  0  0  0  0
  -28.7107   -0.5725   30.0093 N   0  0  0  0  0  0  0  0  0  0  0  0
  -28.5487    0.4082   30.6767 C   0  0  0  0  0  0  0  0  0  0  0  0
  -28.8603    1.0035   31.6329 C   0  0  0  0  0  0  0  0  0  0  0  0
  -28.7876    1.8223   32.2785 C   0  0  0  0  0  0  0  0  0  0  0  0
  -27.7527    2.8397   31.9295 C   0  0  0  0  0  0  0  0  0  0  0  0
  -27.0400    2.4611   30.7793 C   0  0  0  0  0  0  0  0  0  0  0  0
  1  2  2  3
  2  3  1  0
  3  4  1  0
  4  5  1  0
  2 11  1  0
 10 11  1  0
  1 12  1  0
 12 13  2  3
 13 14  1  0
 14 15  2  3
 15 16  1  0
 16 17  2  0
  5  6  2  0
  6  7  1  0
  7  8  2  0
  8  9  1  0
  9 10  2  0
 10  5  1  0
M  END

$$$$
