No_3916-gen_results/8p0m/2024-11-26-14-13-15/
     RDKit          3D

 15 17  0  0  0  0  0  0  0  0999 V2000
  -28.0162   -0.8135   28.8779 C   0  0  0  0  0  0  0  0  0  0  0  0
  -27.0636   -0.1189   28.6079 C   0  0  0  0  0  0  0  0  0  0  0  0
  -26.9716    0.7139   27.5060 C   0  0  0  0  0  0  0  0  0  0  0  0
  -28.1053    0.7744   26.6421 C   0  0  0  0  0  0  0  0  0  0  0  0
  -29.2008    0.1044   27.0527 C   0  0  0  0  0  0  0  0  0  0  0  0
  -29.2096   -0.6029   28.1853 C   0  0  0  0  0  0  0  0  0  0  0  0
  -30.3045    0.2267   26.2604 O   0  0  0  0  0  0  0  0  0  0  0  0
  -25.7141   -0.2197   29.4065 C   0  0  0  0  0  0  0  0  0  0  0  0
  -24.5540    0.0545   28.8651 C   0  0  0  0  0  0  0  0  0  0  0  0
  -23.3204   -0.0571   29.5801 C   0  0  0  0  0  0  0  0  0  0  0  0
  -22.0807    0.3295   28.9748 C   0  0  0  0  0  0  0  0  0  0  0  0
  -22.0148    1.1139   27.8441 C   0  0  0  0  0  0  0  0  0  0  0  0
  -23.2245    1.4284   27.1739 C   0  0  0  0  0  0  0  0  0  0  0  0
  -24.4830    0.9684   27.6695 C   0  0  0  0  0  0  0  0  0  0  0  0
  -25.7343    1.1757   26.9851 C   0  0  0  0  0  0  0  0  0  0  0  0
  5  7  1  0
  1  2  2  0
  3  4  2  0
  4  5  1  0
  5  6  2  0
  6  1  1  0
  2  3  1  0
  3 15  1  0
 15 14  2  0
  9  8  2  0
  8  2  1  0
  9 10  1  0
 10 11  2  0
 11 12  1  0
 12 13  2  0
 13 14  1  0
 14  9  1  0
M  END

$$$$
