No_3611-gen_results/8p0m/2024-11-26-14-13-15/
     RDKit          3D

 17 18  0  0  0  0  0  0  0  0999 V2000
  -28.0162   -0.8135   28.8779 C   0  0  0  0  0  0  0  0  0  0  0  0
  -27.0636   -0.1189   28.6079 C   0  0  0  0  0  0  0  0  0  0  0  0
  -27.0010    0.6913   27.4910 C   0  0  0  0  0  0  0  0  0  0  0  0
  -28.1373    0.7363   26.6350 C   0  0  0  0  0  0  0  0  0  0  0  0
  -29.2360    0.0765   27.0690 C   0  0  0  0  0  0  0  0  0  0  0  0
  -29.2177   -0.6429   28.1747 C   0  0  0  0  0  0  0  0  0  0  0  0
  -30.4152    0.1590   26.1819 C   0  0  0  0  0  0  0  0  0  0  0  0
  -30.2345   -0.0473   25.0293 F   0  0  0  0  0  0  0  0  0  0  0  0
  -31.2854   -0.8303   26.6461 F   0  0  0  0  0  0  0  0  0  0  0  0
  -31.0272    1.3453   26.3144 F   0  0  0  0  0  0  0  0  0  0  0  0
  -25.8331    1.3648   27.1078 O   0  0  0  0  0  0  0  0  0  0  0  0
  -24.7965    1.1992   27.9549 C   0  0  0  0  0  0  0  0  0  0  0  0
  -24.0281    2.3127   28.2920 C   0  0  0  0  0  0  0  0  0  0  0  0
  -22.7417    2.1488   28.9628 C   0  0  0  0  0  0  0  0  0  0  0  0
  -22.2965    0.7694   29.2735 C   0  0  0  0  0  0  0  0  0  0  0  0
  -23.0942   -0.3304   28.9211 C   0  0  0  0  0  0  0  0  0  0  0  0
  -24.2374   -0.1112   28.1676 C   0  0  0  0  0  0  0  0  0  0  0  0
  5  7  1  0
  7  8  1  0
  7  9  1  0
  7 10  1  0
  3 11  1  0
 11 12  1  0
 12 13  2  0
 13 14  1  0
 14 15  2  0
 15 16  1  0
 16 17  2  0
 17 12  1  0
  1  2  2  0
  2  3  1  0
  3  4  2  0
  4  5  1  0
  5  6  2  0
  6  1  1  0
M  END

$$$$
