No_3510-gen_results/8p0m/2024-11-26-14-13-15/
     RDKit          3D

 25 26  0  0  0  0  0  0  0  0999 V2000
  -28.0162   -0.8135   28.8779 C   0  0  0  0  0  0  0  0  0  0  0  0
  -27.0636   -0.1189   28.6079 C   0  0  0  0  0  0  0  0  0  0  0  0
  -25.7647   -0.3897   29.0360 C   0  0  0  0  0  0  0  0  0  0  0  0
  -24.5516    0.4058   28.7646 C   0  0  0  0  0  0  0  0  0  0  0  0
  -24.6957    1.4480   27.7988 C   0  0  0  0  0  0  0  0  0  0  0  0
  -25.9755    1.7250   27.3077 C   0  0  0  0  0  0  0  0  0  0  0  0
  -27.0718    1.0134   27.6535 C   0  0  0  0  0  0  0  0  0  0  0  0
  -27.8782   -2.0157   29.2475 F   0  0  0  0  0  0  0  0  0  0  0  0
  -28.7519   -0.1981   29.9326 F   0  0  0  0  0  0  0  0  0  0  0  0
  -23.4898    2.2236   27.5224 C   0  0  0  0  0  0  0  0  0  0  0  0
  -23.5960    3.1710   26.7266 O   0  0  0  0  0  0  0  0  0  0  0  0
  -22.3002    1.8603   27.8893 O   0  0  0  0  0  0  0  0  0  0  0  0
  -28.2427    1.2804   27.0973 O   0  0  0  0  0  0  0  0  0  0  0  0
  -28.4511    1.2596   25.7831 C   0  0  0  0  0  0  0  0  0  0  0  0
  -29.3751    0.4278   25.3239 C   0  0  0  0  0  0  0  0  0  0  0  0
  -30.3624    0.7615   25.2286 O   0  0  0  0  0  0  0  0  0  0  0  0
  -28.8179   -0.5728   24.5483 O   0  0  0  0  0  0  0  0  0  0  0  0
  -23.5273    0.2943   29.6768 C   0  0  0  0  0  0  0  0  0  0  0  0
  -22.4025   -0.5647   29.2444 C   0  0  0  0  0  0  0  0  0  0  0  0
  -23.9582   -0.2163   31.0835 C   0  0  0  0  0  0  0  0  0  0  0  0
  -24.5127    0.7024   31.9550 C   0  0  0  0  0  0  0  0  0  0  0  0
  -25.2222    0.3114   33.1045 C   0  0  0  0  0  0  0  0  0  0  0  0
  -25.0366   -1.0550   33.3963 C   0  0  0  0  0  0  0  0  0  0  0  0
  -23.3390   -1.3276   31.5974 C   0  0  0  0  0  0  0  0  0  0  0  0
  -24.0398   -1.7732   32.8189 C   0  0  0  0  0  0  0  0  0  0  0  0
  1  2  2  3
  2  3  1  0
  3  4  1  0
  4  5  1  0
  5  6  1  0
  2  7  1  0
  6  7  1  0
  1  8  1  0
  1  9  1  0
  5 10  1  0
 10 11  2  0
 10 12  1  0
  7 13  1  0
 13 14  1  0
 14 15  1  0
 15 16  2  0
 15 17  1  0
  4 18  1  0
 18 19  1  0
 18 20  1  0
 20 21  2  0
 21 22  1  0
 22 23  2  0
 23 25  1  0
 25 24  2  0
 24 20  1  0
M  END

$$$$
