No_378-gen_results/8p0m/2024-11-26-14-13-15/
     RDKit          3D

 22 24  0  0  0  0  0  0  0  0999 V2000
  -28.0162   -0.8135   28.8779 C   0  0  0  0  0  0  0  0  0  0  0  0
  -27.0636   -0.1189   28.6079 C   0  0  0  0  0  0  0  0  0  0  0  0
  -26.8756    1.1325   28.9134 C   0  0  0  0  0  0  0  0  0  0  0  0
  -27.9014    1.8066   29.6436 C   0  0  0  0  0  0  0  0  0  0  0  0
  -29.0458   -0.2316   29.7181 C   0  0  0  0  0  0  0  0  0  0  0  0
  -28.9402    1.0517   30.0597 C   0  0  0  0  0  0  0  0  0  0  0  0
  -30.3294   -1.2509   30.1909 Cl  0  0  0  0  0  0  0  0  0  0  0  0
  -25.6528    1.9343   28.4399 C   0  0  0  0  0  0  0  0  0  0  0  0
  -24.9134    1.6968   27.6747 C   0  0  0  0  0  0  0  0  0  0  0  0
  -23.6884    2.4502   27.3176 C   0  0  0  0  0  0  0  0  0  0  0  0
  -25.4655    3.2516   29.1803 C   0  0  0  0  0  0  0  0  0  0  0  0
  -24.5049    4.1789   28.6650 C   0  0  0  0  0  0  0  0  0  0  0  0
  -23.5707    3.6987   27.7738 C   0  0  0  0  0  0  0  0  0  0  0  0
  -22.8433    2.0701   26.3248 F   0  0  0  0  0  0  0  0  0  0  0  0
  -26.0121   -0.6960   27.8183 O   0  0  0  0  0  0  0  0  0  0  0  0
  -25.1381   -1.6098   28.4270 C   0  0  0  0  0  0  0  0  0  0  0  0
  -23.9486   -1.0941   29.0902 C   0  0  0  0  0  0  0  0  0  0  0  0
  -23.9398   -0.8310   30.4759 C   0  0  0  0  0  0  0  0  0  0  0  0
  -23.1085    0.0765   31.0590 C   0  0  0  0  0  0  0  0  0  0  0  0
  -22.0453    0.5264   30.2438 C   0  0  0  0  0  0  0  0  0  0  0  0
  -22.0238    0.1059   28.8625 C   0  0  0  0  0  0  0  0  0  0  0  0
  -22.9777   -0.5579   28.3166 C   0  0  0  0  0  0  0  0  0  0  0  0
  5  7  1  0
  3  8  1  0
 10 14  1  0
  2 15  1  0
 15 16  1  0
 16 17  1  0
 17 18  2  0
 18 19  1  0
 19 20  2  0
 20 21  1  0
 21 22  2  0
 22 17  1  0
  8  9  2  0
  9 10  1  0
 10 13  2  0
 13 12  1  0
 12 11  2  0
 11  8  1  0
  1  2  2  0
  2  3  1  0
  3  4  2  0
  4  6  1  0
  6  5  2  0
  5  1  1  0
M  END

$$$$
