No_3144-gen_results/8p0m/2024-11-26-14-13-15/
     RDKit          3D

 19 21  0  0  0  0  0  0  0  0999 V2000
  -28.0162   -0.8135   28.8779 C   0  0  0  0  0  0  0  0  0  0  0  0
  -28.4690   -0.7850   29.8287 C   0  0  0  0  0  0  0  0  0  0  0  0
  -28.1960    0.3478   28.0550 C   0  0  0  0  0  0  0  0  0  0  0  0
  -29.0191    1.3501   28.3782 C   0  0  0  0  0  0  0  0  0  0  0  0
  -29.6249    1.2683   29.6012 C   0  0  0  0  0  0  0  0  0  0  0  0
  -29.3791    0.1469   30.3923 C   0  0  0  0  0  0  0  0  0  0  0  0
  -27.5010    0.3600   26.8208 O   0  0  0  0  0  0  0  0  0  0  0  0
  -26.4998    1.3493   26.6628 C   0  0  0  0  0  0  0  0  0  0  0  0
  -25.2305    0.7454   26.6079 C   0  0  0  0  0  0  0  0  0  0  0  0
  -24.0883    1.5675   26.6409 C   0  0  0  0  0  0  0  0  0  0  0  0
  -22.7984    1.1183   26.9409 C   0  0  0  0  0  0  0  0  0  0  0  0
  -22.6664    0.1132   27.9159 C   0  0  0  0  0  0  0  0  0  0  0  0
  -23.9013   -0.6433   28.2247 C   0  0  0  0  0  0  0  0  0  0  0  0
  -25.0639   -0.3856   27.5506 C   0  0  0  0  0  0  0  0  0  0  0  0
  -21.4410   -0.1279   28.6258 C   0  0  0  0  0  0  0  0  0  0  0  0
  -26.8243    2.4258   26.2235 O   0  0  0  0  0  0  0  0  0  0  0  0
  -23.7314   -1.7651   29.1185 C   0  0  0  0  0  0  0  0  0  0  0  0
  -21.4388   -1.1813   29.5516 N   0  0  0  0  0  0  0  0  0  0  0  0
  -22.5803   -1.8783   29.8205 C   0  0  0  0  0  0  0  0  0  0  0  0
  3  7  1  0
  7  8  1  0
  8  9  1  0
  8 16  2  0
  1  2  2  0
  2  6  1  0
  6  5  2  0
  5  4  1  0
  4  3  2  0
  3  1  1  0
 13 17  1  0
 17 19  2  0
 19 18  1  0
 18 15  2  0
 15 12  1  0
  9 10  2  0
 10 11  1  0
 11 12  2  0
 12 13  1  0
 13 14  2  0
 14  9  1  0
M  END

$$$$
