No_3011-gen_results/8p0m/2024-11-26-14-13-15/
     RDKit          3D

 14 15  0  0  0  0  0  0  0  0999 V2000
  -28.1229   -1.3353   28.4874 O   0  0  0  0  0  0  0  0  0  0  0  0
  -27.0637   -0.8242   28.8687 C   0  0  0  0  0  0  0  0  0  0  0  0
  -26.4017   -0.0623   28.6224 C   0  0  0  0  0  0  0  0  0  0  0  0
  -26.7496   -1.3992   30.2054 F   0  0  0  0  0  0  0  0  0  0  0  0
  -24.9068   -0.0147   28.6883 C   0  0  0  0  0  0  0  0  0  0  0  0
  -23.9741    0.8812   28.0751 C   0  0  0  0  0  0  0  0  0  0  0  0
  -24.5496    1.8560   27.2067 C   0  0  0  0  0  0  0  0  0  0  0  0
  -25.8901    1.8777   27.0271 C   0  0  0  0  0  0  0  0  0  0  0  0
  -26.6889    1.0097   27.5631 C   0  0  0  0  0  0  0  0  0  0  0  0
  -22.5512    0.8753   28.3669 C   0  0  0  0  0  0  0  0  0  0  0  0
  -21.7147    1.5406   27.5773 N   0  0  0  0  0  0  0  0  0  0  0  0
  -22.0771   -0.0111   29.2546 N   0  0  0  0  0  0  0  0  0  0  0  0
  -22.7777   -0.7658   30.0943 C   0  0  0  0  0  0  0  0  0  0  0  0
  -24.2196   -0.8367   29.7672 C   0  0  0  0  0  0  0  0  0  0  0  0
  1  2  2  0
  2  3  1  0
  2  4  1  0
 11 10  1  0
  3  5  2  0
  6  7  2  0
  7  8  1  0
  8  9  2  0
  9  3  1  0
  5  6  1  0
  6 10  1  0
 10 12  2  0
 12 13  1  0
 13 14  2  0
 14  5  1  0
M  END

$$$$
