No_3311-gen_results/8p0m/2024-11-26-14-13-15/
     RDKit          3D

 13 14  0  0  0  0  0  0  0  0999 V2000
  -28.0162   -0.8135   28.8779 C   0  0  0  0  0  0  0  0  0  0  0  0
  -27.0636   -0.1189   28.6079 C   0  0  0  0  0  0  0  0  0  0  0  0
  -26.8756    1.1325   28.9134 C   0  0  0  0  0  0  0  0  0  0  0  0
  -27.9014    1.8066   29.6436 C   0  0  0  0  0  0  0  0  0  0  0  0
  -29.0458   -0.2316   29.7181 C   0  0  0  0  0  0  0  0  0  0  0  0
  -28.9402    1.0517   30.0597 C   0  0  0  0  0  0  0  0  0  0  0  0
  -30.1632   -1.1170   30.1252 C   0  0  0  0  0  0  0  0  0  0  0  0
  -31.3174   -0.9747   29.5525 C   0  0  0  0  0  0  0  0  0  0  0  0
  -32.3910   -1.8737   29.8832 C   0  0  0  0  0  0  0  0  0  0  0  0
  -29.8994   -2.1431   31.0918 C   0  0  0  0  0  0  0  0  0  0  0  0
  -30.9575   -3.0347   31.4346 C   0  0  0  0  0  0  0  0  0  0  0  0
  -32.1595   -2.8579   30.8404 C   0  0  0  0  0  0  0  0  0  0  0  0
  -26.0313   -0.6982   27.8475 F   0  0  0  0  0  0  0  0  0  0  0  0
  5  7  1  0
  2 13  1  0
  1  2  2  0
  2  3  1  0
  3  4  2  0
  4  6  1  0
  6  5  2  0
  5  1  1  0
  7  8  2  0
  8  9  1  0
  9 12  2  0
 12 11  1  0
 11 10  2  0
 10  7  1  0
M  END

$$$$
