No_3988-gen_results/8p0m/2024-11-26-14-13-15/
     RDKit          3D

 17 17  0  0  0  0  0  0  0  0999 V2000
  -28.0162   -0.8135   28.8779 C   0  0  0  0  0  0  0  0  0  0  0  0
  -27.0636   -0.1189   28.6079 C   0  0  0  0  0  0  0  0  0  0  0  0
  -27.0425    0.2440   27.4277 F   0  0  0  0  0  0  0  0  0  0  0  0
  -27.8750   -1.6429   29.9472 O   0  0  0  0  0  0  0  0  0  0  0  0
  -26.9044    1.1856   29.4613 C   0  0  0  0  0  0  0  0  0  0  0  0
  -25.7038    1.7938   29.3948 C   0  0  0  0  0  0  0  0  0  0  0  0
  -25.3977    2.9591   29.2497 C   0  0  0  0  0  0  0  0  0  0  0  0
  -25.3246    3.5529   28.3188 C   0  0  0  0  0  0  0  0  0  0  0  0
  -24.5303    3.0740   27.1606 C   0  0  0  0  0  0  0  0  0  0  0  0
  -23.8252    1.8947   27.3692 C   0  0  0  0  0  0  0  0  0  0  0  0
  -24.5732    0.8873   28.7269 C   0  0  0  0  0  0  0  0  0  0  0  0
  -25.5440   -1.1553   28.8515 Cl  0  0  0  0  0  0  0  0  0  0  0  0
  -23.2568    0.5082   29.4596 C   0  0  0  0  0  0  0  0  0  0  0  0
  -29.2259   -0.5684   28.5259 N   0  0  0  0  0  0  0  0  0  0  0  0
  -30.4636   -1.1091   29.0024 C   0  0  0  0  0  0  0  0  0  0  0  0
  -23.3876    0.5423   30.7867 C   0  0  0  0  0  0  0  0  0  0  0  0
  -22.2413    0.0193   28.7622 C   0  0  0  0  0  0  0  0  0  0  0  0
  1  2  1  0
  2  3  1  0
  1  4  1  0
  2  5  1  0
  5  6  1  0
  2 12  1  0
 11 13  1  0
  1 14  1  0
 14 15  1  0
 13 16  1  0
 13 17  1  0
  6  7  2  0
  7  8  1  0
  8  9  2  0
  9 10  1  0
 10 11  2  0
 11  6  1  0
M  END

$$$$
