No_3187-gen_results/8p0m/2024-11-26-14-13-15/
     RDKit          3D

 14 14  0  0  0  0  0  0  0  0999 V2000
  -28.0727   -1.2542   28.5316 F   0  0  0  0  0  0  0  0  0  0  0  0
  -28.2662   -0.4214   29.1931 C   0  0  0  0  0  0  0  0  0  0  0  0
  -29.4400   -0.1817   29.3649 F   0  0  0  0  0  0  0  0  0  0  0  0
  -27.6959   -0.7085   30.4324 F   0  0  0  0  0  0  0  0  0  0  0  0
  -27.5418    0.7768   28.6351 C   0  0  0  0  0  0  0  0  0  0  0  0
  -26.9446    0.8609   27.6283 C   0  0  0  0  0  0  0  0  0  0  0  0
  -26.2129    2.0007   27.0846 C   0  0  0  0  0  0  0  0  0  0  0  0
  -25.3049    1.9540   25.9768 C   0  0  0  0  0  0  0  0  0  0  0  0
  -25.1674    0.6792   25.3737 C   0  0  0  0  0  0  0  0  0  0  0  0
  -25.8299   -0.4437   25.7845 C   0  0  0  0  0  0  0  0  0  0  0  0
  -26.5722   -0.3581   26.8504 C   0  0  0  0  0  0  0  0  0  0  0  0
  -27.7178    1.9175   29.3477 F   0  0  0  0  0  0  0  0  0  0  0  0
  -24.4622    3.3073   25.5123 Cl  0  0  0  0  0  0  0  0  0  0  0  0
  -26.3327    3.1294   27.6744 F   0  0  0  0  0  0  0  0  0  0  0  0
  1  2  1  0
  2  3  1  0
  2  4  1  0
  2  5  1  0
  5 12  1  0
  8 13  1  0
  7 14  1  0
  5  6  1  0
  6  7  2  0
  7  8  1  0
  8  9  2  0
  9 10  1  0
 10 11  2  0
 11  6  1  0
M  END

$$$$
