No_3716-gen_results/8p0m/2024-11-26-14-13-15/
     RDKit          3D

 35 38  0  0  0  0  0  0  0  0999 V2000
  -28.0162   -0.8135   28.8779 C   0  0  0  0  0  0  0  0  0  0  0  0
  -27.0636   -0.1189   28.6079 C   0  0  0  0  0  0  0  0  0  0  0  0
  -25.7923   -0.4302   29.0761 C   0  0  0  0  0  0  0  0  0  0  0  0
  -25.5756   -1.5654   29.9363 C   0  0  0  0  0  0  0  0  0  0  0  0
  -26.7354   -2.3004   30.2173 C   0  0  0  0  0  0  0  0  0  0  0  0
  -27.9184   -1.9537   29.7629 C   0  0  0  0  0  0  0  0  0  0  0  0
  -29.2678   -2.8890   30.2152 Cl  0  0  0  0  0  0  0  0  0  0  0  0
  -27.1068    1.1096   27.7591 C   0  0  0  0  0  0  0  0  0  0  0  0
  -26.6107    2.1768   27.8697 C   0  0  0  0  0  0  0  0  0  0  0  0
  -26.6373    3.2700   26.9096 C   0  0  0  0  0  0  0  0  0  0  0  0
  -27.3028    3.0426   25.7003 C   0  0  0  0  0  0  0  0  0  0  0  0
  -27.7920    0.8766   26.4300 C   0  0  0  0  0  0  0  0  0  0  0  0
  -27.8536    1.8252   25.5025 C   0  0  0  0  0  0  0  0  0  0  0  0
  -28.5715    1.5876   24.2380 C   0  0  0  0  0  0  0  0  0  0  0  0
  -29.6848    2.3045   24.0758 C   0  0  0  0  0  0  0  0  0  0  0  0
  -30.7610    1.9535   23.2400 C   0  0  0  0  0  0  0  0  0  0  0  0
  -31.8090    2.8690   22.9845 C   0  0  0  0  0  0  0  0  0  0  0  0
  -31.9549    4.0391   23.7394 C   0  0  0  0  0  0  0  0  0  0  0  0
  -30.9625    4.3430   24.6965 C   0  0  0  0  0  0  0  0  0  0  0  0
  -29.8871    3.6275   24.8626 C   0  0  0  0  0  0  0  0  0  0  0  0
  -28.2157    0.6066   23.5087 N   0  0  0  0  0  0  0  0  0  0  0  0
  -32.9916    2.3786   21.8776 Cl  0  0  0  0  0  0  0  0  0  0  0  0
  -25.9696    4.5606   27.2701 C   0  0  0  0  0  0  0  0  0  0  0  0
  -26.2822    5.2615   28.0038 N   0  0  0  0  0  0  0  0  0  0  0  0
  -26.0846    5.1663   29.3274 C   0  0  0  0  0  0  0  0  0  0  0  0
  -26.9293    5.5679   30.1828 C   0  0  0  0  0  0  0  0  0  0  0  0
  -26.1293    6.7257   27.6703 C   0  0  0  0  0  0  0  0  0  0  0  0
  -27.0228    5.0250   31.3887 C   0  0  0  0  0  0  0  0  0  0  0  0
  -26.0155    4.1658   31.8897 C   0  0  0  0  0  0  0  0  0  0  0  0
  -25.0621    3.7057   30.9920 C   0  0  0  0  0  0  0  0  0  0  0  0
  -25.1380    4.1136   29.6739 C   0  0  0  0  0  0  0  0  0  0  0  0
  -24.7513    4.6064   26.7645 O   0  0  0  0  0  0  0  0  0  0  0  0
  -27.2371    7.4114   27.2660 C   0  0  0  0  0  0  0  0  0  0  0  0
  -28.3141    7.0168   27.0207 C   0  0  0  0  0  0  0  0  0  0  0  0
  -29.4294    7.7338   26.5014 C   0  0  0  0  0  0  0  0  0  0  0  0
  6  7  1  0
  2  8  1  0
 13 14  1  0
 14 15  1  0
 14 21  1  0
 17 22  1  0
 10 23  1  0
 23 24  1  0
 24 25  1  0
 24 27  1  0
 23 32  2  0
 27 33  2  3
 33 34  1  0
 34 35  2  0
 15 16  2  0
 16 17  1  0
 17 18  2  0
 18 19  1  0
 19 20  2  0
 20 15  1  0
  1  2  2  0
  2  3  1  0
  3  4  2  0
  4  5  1  0
  5  6  2  0
  6  1  1  0
 25 26  2  0
 26 28  1  0
 28 29  2  0
 29 30  1  0
 30 31  2  0
 31 25  1  0
  8  9  2  0
  9 10  1  0
 10 11  2  0
 11 13  1  0
 13 12  2  0
 12  8  1  0
M  END

$$$$
