No_3178-gen_results/8p0m/2024-11-26-14-13-15/
     RDKit          3D

 14 15  0  0  0  0  0  0  0  0999 V2000
  -28.0162   -0.8135   28.8779 C   0  0  0  0  0  0  0  0  0  0  0  0
  -28.4690   -0.7850   29.8287 C   0  0  0  0  0  0  0  0  0  0  0  0
  -27.1356    0.2359   28.5352 C   0  0  0  0  0  0  0  0  0  0  0  0
  -26.3351    0.2900   27.2835 C   0  0  0  0  0  0  0  0  0  0  0  0
  -28.3692    0.1957   30.9236 C   0  0  0  0  0  0  0  0  0  0  0  0
  -27.5158    1.2655   30.6540 C   0  0  0  0  0  0  0  0  0  0  0  0
  -26.8411    1.2942   29.4761 C   0  0  0  0  0  0  0  0  0  0  0  0
  -25.3612    0.7750   26.9674 C   0  0  0  0  0  0  0  0  0  0  0  0
  -24.7235    0.7751   25.7101 C   0  0  0  0  0  0  0  0  0  0  0  0
  -23.5270    1.4470   25.4014 C   0  0  0  0  0  0  0  0  0  0  0  0
  -22.9359    2.0696   26.4995 C   0  0  0  0  0  0  0  0  0  0  0  0
  -24.4549    1.5015   27.8781 C   0  0  0  0  0  0  0  0  0  0  0  0
  -23.3023    2.0898   27.6726 C   0  0  0  0  0  0  0  0  0  0  0  0
  -26.8898   -0.5832   26.4264 O   0  0  0  0  0  0  0  0  0  0  0  0
  3  4  1  0
  4  8  1  0
  4 14  2  0
  1  2  2  0
  2  5  1  0
  5  6  2  0
  6  7  1  0
  7  3  2  0
  3  1  1  0
  8  9  2  0
  9 10  1  0
 10 11  2  0
 11 13  1  0
 13 12  2  0
 12  8  1  0
M  END

$$$$
