No_3238-gen_results/8p0m/2024-11-26-14-13-15/
     RDKit          3D

 32 35  0  0  0  0  0  0  0  0999 V2000
  -28.1229   -1.3353   28.4874 O   0  0  0  0  0  0  0  0  0  0  0  0
  -27.4806   -0.4044   28.7094 C   0  0  0  0  0  0  0  0  0  0  0  0
  -26.3804   -0.0867   27.9394 C   0  0  0  0  0  0  0  0  0  0  0  0
  -27.4232    0.1749   30.0549 N   0  0  0  0  0  0  0  0  0  0  0  0
  -26.1558    0.1159   26.9677 C   0  0  0  0  0  0  0  0  0  0  0  0
  -27.1674    0.2216   25.9335 C   0  0  0  0  0  0  0  0  0  0  0  0
  -28.3369    0.6480   26.2612 C   0  0  0  0  0  0  0  0  0  0  0  0
  -29.3467    0.6897   25.1945 C   0  0  0  0  0  0  0  0  0  0  0  0
  -30.6911    0.9918   25.5014 C   0  0  0  0  0  0  0  0  0  0  0  0
  -30.9981    1.3501   26.8244 C   0  0  0  0  0  0  0  0  0  0  0  0
  -30.0567    1.3477   27.8123 C   0  0  0  0  0  0  0  0  0  0  0  0
  -28.7823    1.0049   27.5465 C   0  0  0  0  0  0  0  0  0  0  0  0
  -27.9118   -0.0131   30.9705 C   0  0  0  0  0  0  0  0  0  0  0  0
  -28.3779    2.4923   27.7783 C   0  0  0  0  0  0  0  0  0  0  0  0
  -30.5811    1.1751   29.1642 C   0  0  0  0  0  0  0  0  0  0  0  0
  -26.8152   -0.0623   24.5181 C   0  0  0  0  0  0  0  0  0  0  0  0
  -27.6339   -0.3409   31.9171 C   0  0  0  0  0  0  0  0  0  0  0  0
  -31.3612    0.2235   29.6033 C   0  0  0  0  0  0  0  0  0  0  0  0
  -31.8212    0.1531   30.8939 C   0  0  0  0  0  0  0  0  0  0  0  0
  -32.6321   -0.9383   31.3493 C   0  0  0  0  0  0  0  0  0  0  0  0
  -32.9834   -1.8749   30.3723 C   0  0  0  0  0  0  0  0  0  0  0  0
  -32.5709   -1.8664   29.0847 C   0  0  0  0  0  0  0  0  0  0  0  0
  -31.7720   -0.8266   28.7094 C   0  0  0  0  0  0  0  0  0  0  0  0
  -26.7356   -0.0384   32.3776 C   0  0  0  0  0  0  0  0  0  0  0  0
  -25.8013    0.2702   30.4956 C   0  0  0  0  0  0  0  0  0  0  0  0
  -25.6047    0.1941   31.8417 C   0  0  0  0  0  0  0  0  0  0  0  0
  -25.0467    0.1000   28.9324 C   0  0  0  0  0  0  0  0  0  0  0  0
  -27.2303    2.9785   28.0779 C   0  0  0  0  0  0  0  0  0  0  0  0
  -26.8960    4.3299   28.3577 C   0  0  0  0  0  0  0  0  0  0  0  0
  -25.5660    4.7124   28.7542 C   0  0  0  0  0  0  0  0  0  0  0  0
  -25.3483    5.9164   29.0649 O   0  0  0  0  0  0  0  0  0  0  0  0
  -24.5544    4.0108   28.2924 O   0  0  0  0  0  0  0  0  0  0  0  0
  1  2  2  0
  2  3  1  0
  2  4  1  0
  3  5  1  0
  5  6  1  0
  6  7  1  0
  4 13  1  0
 12 14  1  0
 11 15  1  0
  6 16  1  0
 17 24  1  0
  4 25  1  0
 25 26  1  0
  3 27  1  0
 25 27  1  0
 14 28  2  3
 28 29  1  0
 29 30  1  0
 30 31  2  0
 30 32  1  0
 15 18  1  0
 13 17  1  0
 24 26  1  0
 18 19  2  0
 19 20  1  0
 20 21  2  0
 21 22  1  0
 22 23  2  0
 23 18  1  0
  7  8  2  0
  8  9  1  0
  9 10  2  0
 10 11  1  0
 11 12  2  0
 12  7  1  0
M  END

$$$$
