No_3792-gen_results/8p0m/2024-11-26-14-13-15/
     RDKit          3D

 16 16  0  0  0  0  0  0  0  0999 V2000
  -28.0162   -0.8135   28.8779 C   0  0  0  0  0  0  0  0  0  0  0  0
  -27.0636   -0.1189   28.6079 C   0  0  0  0  0  0  0  0  0  0  0  0
  -26.9716    0.7139   27.5060 C   0  0  0  0  0  0  0  0  0  0  0  0
  -25.8205    1.4909   27.1160 C   0  0  0  0  0  0  0  0  0  0  0  0
  -24.6562    1.4242   27.9180 C   0  0  0  0  0  0  0  0  0  0  0  0
  -24.6847    0.5901   29.0659 C   0  0  0  0  0  0  0  0  0  0  0  0
  -25.8099   -0.1265   29.3338 C   0  0  0  0  0  0  0  0  0  0  0  0
  -27.8678   -1.9973   29.2855 F   0  0  0  0  0  0  0  0  0  0  0  0
  -29.1875   -0.4656   28.7433 F   0  0  0  0  0  0  0  0  0  0  0  0
  -23.4769    2.2148   27.6186 C   0  0  0  0  0  0  0  0  0  0  0  0
  -22.3392    1.8148   28.0669 O   0  0  0  0  0  0  0  0  0  0  0  0
  -23.4939    3.1065   26.6477 O   0  0  0  0  0  0  0  0  0  0  0  0
  -27.9762    0.7964   26.6576 O   0  0  0  0  0  0  0  0  0  0  0  0
  -28.5008    2.0516   26.4194 C   0  0  0  0  0  0  0  0  0  0  0  0
  -29.8532    2.0209   26.5768 C   0  0  0  0  0  0  0  0  0  0  0  0
  -30.4103    3.0315   26.4539 O   0  0  0  0  0  0  0  0  0  0  0  0
  1  2  2  3
  2  3  1  0
  3  4  1  0
  4  5  1  0
  5  6  1  0
  2  7  1  0
  6  7  1  0
  1  8  1  0
  1  9  1  0
  5 10  1  0
 10 11  2  0
 10 12  1  0
  3 13  1  0
 13 14  1  0
 14 15  1  0
 15 16  2  0
M  END

$$$$
