No_3217-gen_results/8p0m/2024-11-26-14-13-15/
     RDKit          3D

 23 25  0  0  0  0  0  0  0  0999 V2000
  -28.0162   -0.8135   28.8779 C   0  0  0  0  0  0  0  0  0  0  0  0
  -28.4690   -0.7850   29.8287 C   0  0  0  0  0  0  0  0  0  0  0  0
  -28.1816    0.4277   28.1134 C   0  0  0  0  0  0  0  0  0  0  0  0
  -28.9841    1.4155   28.5154 C   0  0  0  0  0  0  0  0  0  0  0  0
  -29.3802    0.1384   30.4612 C   0  0  0  0  0  0  0  0  0  0  0  0
  -29.5415    1.2736   29.7242 C   0  0  0  0  0  0  0  0  0  0  0  0
  -27.4452    0.4872   26.7726 C   0  0  0  0  0  0  0  0  0  0  0  0
  -27.8631    0.8051   25.7558 C   0  0  0  0  0  0  0  0  0  0  0  0
  -25.9834    0.1507   26.8453 C   0  0  0  0  0  0  0  0  0  0  0  0
  -25.2834   -0.1443   27.9938 C   0  0  0  0  0  0  0  0  0  0  0  0
  -24.5068    0.7420   28.6839 C   0  0  0  0  0  0  0  0  0  0  0  0
  -23.7210    0.3670   29.7634 C   0  0  0  0  0  0  0  0  0  0  0  0
  -23.7332   -0.9493   30.2449 C   0  0  0  0  0  0  0  0  0  0  0  0
  -24.4889   -1.8870   29.5451 C   0  0  0  0  0  0  0  0  0  0  0  0
  -25.2532   -1.4848   28.4616 C   0  0  0  0  0  0  0  0  0  0  0  0
  -25.3925    0.6575   25.6925 C   0  0  0  0  0  0  0  0  0  0  0  0
  -29.2313    1.1135   25.5745 N   0  0  0  0  0  0  0  0  0  0  0  0
  -27.1512    1.0562   24.5722 C   0  0  0  0  0  0  0  0  0  0  0  0
  -25.9068    0.8979   24.5827 N   0  0  0  0  0  0  0  0  0  0  0  0
  -29.6480    2.3215   25.5820 C   0  0  0  0  0  0  0  0  0  0  0  0
  -30.1707    0.0479   25.5275 C   0  0  0  0  0  0  0  0  0  0  0  0
  -31.4907    0.3762   25.8994 C   0  0  0  0  0  0  0  0  0  0  0  0
  -32.1288   -0.5705   26.6018 C   0  0  0  0  0  0  0  0  0  0  0  0
  3  7  1  0
  9 10  1  0
  8 17  1  0
 17 20  1  0
 17 21  1  0
 21 22  1  0
 22 23  2  0
  7  8  2  0
  8 18  1  0
 18 19  2  0
 19 16  1  0
 16  9  2  0
  9  7  1  0
  1  2  2  0
  2  5  1  0
  5  6  2  0
  6  4  1  0
  4  3  2  0
  3  1  1  0
 10 11  2  0
 11 12  1  0
 12 13  2  0
 13 14  1  0
 14 15  2  0
 15 10  1  0
M  END

$$$$
