No_3516-gen_results/8p0m/2024-11-26-14-13-15/
     RDKit          3D

 22 24  0  0  0  0  0  0  0  0999 V2000
  -28.0162   -0.8135   28.8779 C   0  0  0  0  0  0  0  0  0  0  0  0
  -28.4690   -0.7850   29.8287 C   0  0  0  0  0  0  0  0  0  0  0  0
  -27.0871    0.2903   28.6377 C   0  0  0  0  0  0  0  0  0  0  0  0
  -26.2516    0.4114   27.4223 C   0  0  0  0  0  0  0  0  0  0  0  0
  -28.3913    0.1041   30.9805 C   0  0  0  0  0  0  0  0  0  0  0  0
  -27.5332    1.1666   30.7866 C   0  0  0  0  0  0  0  0  0  0  0  0
  -26.8281    1.2557   29.6454 C   0  0  0  0  0  0  0  0  0  0  0  0
  -25.1895    0.4695   27.3612 N   0  0  0  0  0  0  0  0  0  0  0  0
  -27.0305    0.4896   26.1416 C   0  0  0  0  0  0  0  0  0  0  0  0
  -24.2141    0.1848   28.3667 C   0  0  0  0  0  0  0  0  0  0  0  0
  -22.9587    0.8907   28.4399 C   0  0  0  0  0  0  0  0  0  0  0  0
  -24.3342   -0.8873   29.2807 C   0  0  0  0  0  0  0  0  0  0  0  0
  -22.6196    2.0460   27.6500 C   0  0  0  0  0  0  0  0  0  0  0  0
  -21.9230    0.3241   29.2801 C   0  0  0  0  0  0  0  0  0  0  0  0
  -22.1546   -0.7047   30.1149 N   0  0  0  0  0  0  0  0  0  0  0  0
  -23.3399   -1.2929   30.1158 C   0  0  0  0  0  0  0  0  0  0  0  0
  -28.2611    1.0135   25.9992 C   0  0  0  0  0  0  0  0  0  0  0  0
  -28.8326    0.9892   24.7357 C   0  0  0  0  0  0  0  0  0  0  0  0
  -30.1722    1.4286   24.5902 C   0  0  0  0  0  0  0  0  0  0  0  0
  -30.8712    1.9924   25.6735 C   0  0  0  0  0  0  0  0  0  0  0  0
  -30.2739    2.0732   26.9262 C   0  0  0  0  0  0  0  0  0  0  0  0
  -29.0575    1.5940   27.1397 C   0  0  0  0  0  0  0  0  0  0  0  0
  3  4  1  0
  4  8  1  0
  4  9  1  0
  8 10  1  0
 11 13  1  0
  9 17  1  0
 17 18  2  0
 18 19  1  0
 19 20  2  0
 20 21  1  0
 21 22  2  0
 22 17  1  0
 10 11  2  0
 11 14  1  0
 14 15  2  0
 15 16  1  0
 16 12  2  0
 12 10  1  0
  1  2  2  0
  2  5  1  0
  5  6  2  0
  6  7  1  0
  7  3  2  0
  3  1  1  0
M  END

$$$$
