No_3534-gen_results/8p0m/2024-11-26-14-13-15/
     RDKit          3D

 11 11  0  0  0  0  0  0  0  0999 V2000
  -28.0162   -0.8135   28.8779 C   0  0  0  0  0  0  0  0  0  0  0  0
  -27.0636   -0.1189   28.6079 C   0  0  0  0  0  0  0  0  0  0  0  0
  -25.7647   -0.3897   29.0360 C   0  0  0  0  0  0  0  0  0  0  0  0
  -25.5296   -1.5302   29.9014 C   0  0  0  0  0  0  0  0  0  0  0  0
  -26.6888   -2.2893   30.1810 C   0  0  0  0  0  0  0  0  0  0  0  0
  -27.8727   -1.9508   29.7373 C   0  0  0  0  0  0  0  0  0  0  0  0
  -24.3819    0.5593   28.6789 Cl  0  0  0  0  0  0  0  0  0  0  0  0
  -29.0263   -2.8156   30.1581 C   0  0  0  0  0  0  0  0  0  0  0  0
  -29.2659   -2.7366   31.4779 F   0  0  0  0  0  0  0  0  0  0  0  0
  -30.1172   -2.4124   29.5280 F   0  0  0  0  0  0  0  0  0  0  0  0
  -28.7862   -4.1038   29.8918 F   0  0  0  0  0  0  0  0  0  0  0  0
  3  7  1  0
  6  8  1  0
  8  9  1  0
  8 10  1  0
  8 11  1  0
  1  2  2  0
  2  3  1  0
  3  4  2  0
  4  5  1  0
  5  6  2  0
  6  1  1  0
M  END

$$$$
