No_3056-gen_results/8p0m/2024-11-26-14-13-15/
     RDKit          3D

 15 16  0  0  0  0  0  0  0  0999 V2000
  -28.0162   -0.8135   28.8779 C   0  0  0  0  0  0  0  0  0  0  0  0
  -27.0636   -0.1190   28.6079 C   0  0  0  0  0  0  0  0  0  0  0  0
  -25.7923   -0.4302   29.0761 C   0  0  0  0  0  0  0  0  0  0  0  0
  -25.5756   -1.5654   29.9363 C   0  0  0  0  0  0  0  0  0  0  0  0
  -26.7354   -2.3004   30.2173 C   0  0  0  0  0  0  0  0  0  0  0  0
  -27.9184   -1.9537   29.7629 C   0  0  0  0  0  0  0  0  0  0  0  0
  -27.3243    1.0850   27.8190 C   0  0  0  0  0  0  0  0  0  0  0  0
  -27.6406    1.1118   26.7083 N   0  0  0  0  0  0  0  0  0  0  0  0
  -27.9924   -0.0062   26.0870 C   0  0  0  0  0  0  0  0  0  0  0  0
  -28.3769    0.1683   24.6428 C   0  0  0  0  0  0  0  0  0  0  0  0
  -27.7739    2.3324   25.8882 C   0  0  0  0  0  0  0  0  0  0  0  0
  -28.2620    2.4463   24.6613 C   0  0  0  0  0  0  0  0  0  0  0  0
  -28.4671    1.2781   23.9652 C   0  0  0  0  0  0  0  0  0  0  0  0
  -26.8828    2.1946   28.4378 O   0  0  0  0  0  0  0  0  0  0  0  0
  -29.2957   -2.8450   30.1989 Cl  0  0  0  0  0  0  0  0  0  0  0  0
  2  7  1  0
  7  8  1  0
  8  9  1  0
  8 11  1  0
 10 13  1  0
 12 13  1  0
  7 14  2  0
  6 15  1  0
  9 10  1  0
 12 11  1  0
  1  2  2  0
  2  3  1  0
  3  4  2  0
  4  5  1  0
  5  6  2  0
  6  1  1  0
M  END

$$$$
