No_3263-gen_results/8p0m/2024-11-26-14-13-15/
     RDKit          3D

 14 14  0  0  0  0  0  0  0  0999 V2000
  -28.0162   -0.8135   28.8779 C   0  0  0  0  0  0  0  0  0  0  0  0
  -28.4690   -0.7850   29.8287 C   0  0  0  0  0  0  0  0  0  0  0  0
  -27.1356    0.2359   28.5352 C   0  0  0  0  0  0  0  0  0  0  0  0
  -26.8050    1.0509   29.2763 C   0  0  0  0  0  0  0  0  0  0  0  0
  -28.2372    0.1503   30.9300 C   0  0  0  0  0  0  0  0  0  0  0  0
  -27.3522    1.1239   30.6071 C   0  0  0  0  0  0  0  0  0  0  0  0
  -26.5755   -0.0057   27.1381 C   0  0  0  0  0  0  0  0  0  0  0  0
  -25.9182    1.1915   26.5563 C   0  0  0  0  0  0  0  0  0  0  0  0
  -25.2536    1.1067   25.3886 C   0  0  0  0  0  0  0  0  0  0  0  0
  -25.9919    2.4499   27.1773 C   0  0  0  0  0  0  0  0  0  0  0  0
  -26.7940    3.2045   26.9119 C   0  0  0  0  0  0  0  0  0  0  0  0
  -24.7078    2.7275   27.9224 C   0  0  0  0  0  0  0  0  0  0  0  0
  -23.7054    2.0479   27.8931 F   0  0  0  0  0  0  0  0  0  0  0  0
  -24.6873    3.7411   28.7970 F   0  0  0  0  0  0  0  0  0  0  0  0
  3  7  1  0
  7  8  2  3
  8  9  1  0
  8 10  1  0
 10 11  1  0
 10 12  1  0
 12 13  1  0
 12 14  1  0
  1  2  2  0
  2  5  1  0
  5  6  2  0
  6  4  1  0
  4  3  2  0
  3  1  1  0
M  END

$$$$
