No_3369-gen_results/8p0m/2024-11-26-14-13-15/
     RDKit          3D

 31 33  0  0  0  0  0  0  0  0999 V2000
  -28.0162   -0.8135   28.8779 C   0  0  0  0  0  0  0  0  0  0  0  0
  -27.0636   -0.1189   28.6079 C   0  0  0  0  0  0  0  0  0  0  0  0
  -25.7647   -0.3897   29.0360 C   0  0  0  0  0  0  0  0  0  0  0  0
  -25.5296   -1.5302   29.9014 C   0  0  0  0  0  0  0  0  0  0  0  0
  -26.6888   -2.2893   30.1810 C   0  0  0  0  0  0  0  0  0  0  0  0
  -27.8727   -1.9508   29.7373 C   0  0  0  0  0  0  0  0  0  0  0  0
  -28.9304   -2.7298   30.1154 O   0  0  0  0  0  0  0  0  0  0  0  0
  -24.5394    0.4211   28.7421 C   0  0  0  0  0  0  0  0  0  0  0  0
  -23.3459    0.1143   29.1690 C   0  0  0  0  0  0  0  0  0  0  0  0
  -22.1936    0.8740   28.7553 C   0  0  0  0  0  0  0  0  0  0  0  0
  -22.3615    1.8342   27.6952 C   0  0  0  0  0  0  0  0  0  0  0  0
  -24.5980    1.3584   27.6395 C   0  0  0  0  0  0  0  0  0  0  0  0
  -23.5460    2.0827   27.2326 C   0  0  0  0  0  0  0  0  0  0  0  0
  -28.7750   -3.9925   30.6471 C   0  0  0  0  0  0  0  0  0  0  0  0
  -28.8148   -4.9984   29.8176 C   0  0  0  0  0  0  0  0  0  0  0  0
  -30.1874   -5.0876   29.3249 C   0  0  0  0  0  0  0  0  0  0  0  0
  -30.3357   -5.8377   28.3881 O   0  0  0  0  0  0  0  0  0  0  0  0
  -31.2086   -4.8292   30.0808 N   0  0  0  0  0  0  0  0  0  0  0  0
  -32.5584   -5.0201   29.6324 C   0  0  0  0  0  0  0  0  0  0  0  0
  -33.2386   -5.9896   29.7147 C   0  0  0  0  0  0  0  0  0  0  0  0
  -32.9324   -6.8628   30.7342 C   0  0  0  0  0  0  0  0  0  0  0  0
  -32.7801   -6.3889   31.9514 C   0  0  0  0  0  0  0  0  0  0  0  0
  -32.4099   -7.2587   33.0445 C   0  0  0  0  0  0  0  0  0  0  0  0
  -32.3168   -8.6269   32.8073 C   0  0  0  0  0  0  0  0  0  0  0  0
  -32.5308   -9.1197   31.5273 C   0  0  0  0  0  0  0  0  0  0  0  0
  -32.8262   -8.2672   30.5152 C   0  0  0  0  0  0  0  0  0  0  0  0
  -32.5103   -4.1222   28.3279 C   0  0  0  0  0  0  0  0  0  0  0  0
  -32.5513   -2.8823   28.5591 O   0  0  0  0  0  0  0  0  0  0  0  0
  -32.4923   -1.9591   27.4850 C   0  0  0  0  0  0  0  0  0  0  0  0
  -32.5645   -2.4980   26.2729 C   0  0  0  0  0  0  0  0  0  0  0  0
  -32.3688   -1.7037   25.2543 O   0  0  0  0  0  0  0  0  0  0  0  0
  6  7  1  0
  3  8  1  0
  7 14  1  0
 14 15  1  0
 15 16  1  0
 16 17  2  0
 16 18  1  0
 18 19  1  0
 19 20  2  3
 20 21  1  0
 19 27  1  0
 27 28  1  0
 28 29  1  0
 29 30  2  3
 30 31  1  0
  1  2  2  0
  2  3  1  0
  3  4  2  0
  4  5  1  0
  5  6  2  0
  6  1  1  0
 21 22  2  0
 22 23  1  0
 23 24  2  0
 24 25  1  0
 25 26  2  0
 26 21  1  0
  8  9  2  0
  9 10  1  0
 10 11  2  0
 11 13  1  0
 13 12  2  0
 12  8  1  0
M  END

$$$$
