No_3052-gen_results/8p0m/2024-11-26-14-13-15/
     RDKit          3D

 19 20  0  0  0  0  0  0  0  0999 V2000
  -28.0162   -0.8135   28.8779 C   0  0  0  0  0  0  0  0  0  0  0  0
  -27.0636   -0.1190   28.6079 C   0  0  0  0  0  0  0  0  0  0  0  0
  -27.0010    0.6913   27.4910 C   0  0  0  0  0  0  0  0  0  0  0  0
  -25.8548    1.4825   27.0830 C   0  0  0  0  0  0  0  0  0  0  0  0
  -24.6901    1.4526   27.8807 C   0  0  0  0  0  0  0  0  0  0  0  0
  -24.7379    0.6010   29.0416 C   0  0  0  0  0  0  0  0  0  0  0  0
  -25.8234   -0.1688   29.3887 C   0  0  0  0  0  0  0  0  0  0  0  0
  -28.0376   -1.5350   30.2052 C   0  0  0  0  0  0  0  0  0  0  0  0
  -26.8442   -1.7371   30.8935 C   0  0  0  0  0  0  0  0  0  0  0  0
  -25.7143   -0.9991   30.5312 C   0  0  0  0  0  0  0  0  0  0  0  0
  -23.5086    2.2476   27.5581 C   0  0  0  0  0  0  0  0  0  0  0  0
  -23.1310    2.9169   28.5238 F   0  0  0  0  0  0  0  0  0  0  0  0
  -22.4331    1.4360   27.1454 F   0  0  0  0  0  0  0  0  0  0  0  0
  -23.7699    3.1258   26.5858 F   0  0  0  0  0  0  0  0  0  0  0  0
  -28.1297    0.7676   26.5482 C   0  0  0  0  0  0  0  0  0  0  0  0
  -29.1533    0.7736   26.8025 O   0  0  0  0  0  0  0  0  0  0  0  0
  -27.7610    0.3452   25.2092 N   0  0  0  0  0  0  0  0  0  0  0  0
  -26.4861    0.2490   24.7701 C   0  0  0  0  0  0  0  0  0  0  0  0
  -28.7632    0.2712   24.2498 C   0  0  0  0  0  0  0  0  0  0  0  0
  5 11  1  0
 11 12  1  0
 11 13  1  0
 11 14  1  0
  3 15  1  0
 15 16  2  0
 15 17  1  0
 17 18  1  0
 17 19  1  0
  2  3  1  0
  3  4  2  0
  4  5  1  0
  5  6  2  0
  6  7  1  0
  1  2  2  0
  2  7  1  0
  7 10  2  0
 10  9  1  0
  9  8  2  0
  8  1  1  0
M  END

$$$$
