No_3563-gen_results/8p0m/2024-11-26-14-13-15/
     RDKit          3D

 15 16  0  0  0  0  0  0  0  0999 V2000
  -28.0162   -0.8135   28.8779 C   0  0  0  0  0  0  0  0  0  0  0  0
  -28.4690   -0.7850   29.8287 C   0  0  0  0  0  0  0  0  0  0  0  0
  -26.5455   -0.8762   28.8500 C   0  0  0  0  0  0  0  0  0  0  0  0
  -25.8041   -1.0324   30.0571 C   0  0  0  0  0  0  0  0  0  0  0  0
  -27.9437   -0.9869   31.2075 C   0  0  0  0  0  0  0  0  0  0  0  0
  -26.5825   -1.0386   31.2231 C   0  0  0  0  0  0  0  0  0  0  0  0
  -30.0638   -0.7948   30.0639 C   0  0  0  0  0  0  0  0  0  0  0  0
  -30.6628   -0.1112   29.3727 O   0  0  0  0  0  0  0  0  0  0  0  0
  -30.6426   -1.6913   30.9433 N   0  0  0  0  0  0  0  0  0  0  0  0
  -32.0640   -1.7670   30.9981 C   0  0  0  0  0  0  0  0  0  0  0  0
  -24.5225   -1.0553   30.0416 F   0  0  0  0  0  0  0  0  0  0  0  0
  -32.5015   -2.7738   31.5275 C   0  0  0  0  0  0  0  0  0  0  0  0
  -31.6773   -3.7562   32.2742 C   0  0  0  0  0  0  0  0  0  0  0  0
  -30.2800   -3.6212   32.1785 C   0  0  0  0  0  0  0  0  0  0  0  0
  -29.7664   -2.6736   31.4659 C   0  0  0  0  0  0  0  0  0  0  0  0
  2  7  1  0
  7  8  2  0
  7  9  1  0
  9 10  1  0
  4 11  1  0
 12 13  1  0
  9 15  1  0
 14 15  1  0
 10 12  1  0
 13 14  1  0
  1  2  2  0
  2  5  1  0
  5  6  2  0
  6  4  1  0
  4  3  2  0
  3  1  1  0
M  END

$$$$
