No_3041-gen_results/8p0m/2024-11-26-14-13-15/
     RDKit          3D

 33 36  0  0  0  0  0  0  0  0999 V2000
  -28.0162   -0.8135   28.8779 C   0  0  0  0  0  0  0  0  0  0  0  0
  -27.0636   -0.1189   28.6079 C   0  0  0  0  0  0  0  0  0  0  0  0
  -25.7647   -0.3897   29.0360 C   0  0  0  0  0  0  0  0  0  0  0  0
  -25.5296   -1.5302   29.9014 C   0  0  0  0  0  0  0  0  0  0  0  0
  -26.6577   -2.2915   30.2035 C   0  0  0  0  0  0  0  0  0  0  0  0
  -27.8548   -1.9555   29.7630 C   0  0  0  0  0  0  0  0  0  0  0  0
  -24.4274    0.2189   28.7748 C   0  0  0  0  0  0  0  0  0  0  0  0
  -23.2556   -0.1087   29.1633 C   0  0  0  0  0  0  0  0  0  0  0  0
  -22.0642    0.5997   28.8225 C   0  0  0  0  0  0  0  0  0  0  0  0
  -22.0229    1.5757   27.8809 C   0  0  0  0  0  0  0  0  0  0  0  0
  -24.3583    1.3838   27.8033 C   0  0  0  0  0  0  0  0  0  0  0  0
  -23.2203    2.0164   27.4454 C   0  0  0  0  0  0  0  0  0  0  0  0
  -28.9083   -2.7018   30.1005 F   0  0  0  0  0  0  0  0  0  0  0  0
  -23.3010    3.0627   26.5750 O   0  0  0  0  0  0  0  0  0  0  0  0
  -24.1224    3.3846   25.9376 C   0  0  0  0  0  0  0  0  0  0  0  0
  -27.1678    0.9639   27.7409 O   0  0  0  0  0  0  0  0  0  0  0  0
  -28.4208    1.4740   27.5530 C   0  0  0  0  0  0  0  0  0  0  0  0
  -28.5010    2.3980   26.7483 C   0  0  0  0  0  0  0  0  0  0  0  0
  -29.7524    2.9817   26.4526 C   0  0  0  0  0  0  0  0  0  0  0  0
  -30.8823    2.5370   26.9614 C   0  0  0  0  0  0  0  0  0  0  0  0
  -30.7542    1.4723   27.8420 C   0  0  0  0  0  0  0  0  0  0  0  0
  -29.5671    0.9665   28.1746 C   0  0  0  0  0  0  0  0  0  0  0  0
  -29.3539   -0.5304   29.1371 P   0  0  0  0  0  0  0  0  0  0  0  0
  -30.6585   -1.2546   28.9619 O   0  0  0  0  0  0  0  0  0  0  0  0
  -29.7126    0.4179   30.4597 O   0  0  0  0  0  0  0  0  0  0  0  0
  -31.3895   -1.6714   29.8936 C   0  0  0  0  0  0  0  0  0  0  0  0
  -32.1987   -2.7720   29.3985 C   0  0  0  0  0  0  0  0  0  0  0  0
  -32.2697   -2.9473   28.2503 F   0  0  0  0  0  0  0  0  0  0  0  0
  -33.4601   -2.5641   29.8752 F   0  0  0  0  0  0  0  0  0  0  0  0
  -32.3170   -0.6619   30.4593 N   0  0  0  0  0  0  0  0  0  0  0  0
  -33.5837   -1.0738   30.5578 C   0  0  0  0  0  0  0  0  0  0  0  0
  -34.1271   -1.2517   31.8848 C   0  0  0  0  0  0  0  0  0  0  0  0
  -34.4569   -0.3806   29.5663 C   0  0  0  0  0  0  0  0  0  0  0  0
  3  7  1  0
  6 13  1  0
 12 14  1  0
 14 15  1  0
  2 16  1  0
 16 17  1  0
  1 23  1  0
 22 23  1  0
 23 24  1  0
 23 25  1  0
 24 26  1  0
 26 27  1  0
 27 28  1  0
 27 29  1  0
 26 30  1  0
 30 31  2  3
 31 32  1  0
 31 33  1  0
  7  8  2  0
  8  9  1  0
  9 10  2  0
 10 12  1  0
 12 11  2  0
 11  7  1  0
  1  2  2  0
  2  3  1  0
  3  4  2  0
  4  5  1  0
  5  6  2  0
  6  1  1  0
 17 18  2  0
 18 19  1  0
 19 20  2  0
 20 21  1  0
 21 22  2  0
 22 17  1  0
M  END

$$$$
