No_3048-gen_results/8p0m/2024-11-26-14-13-15/
     RDKit          3D

 25 25  0  0  0  0  0  0  0  0999 V2000
  -28.0162   -0.8135   28.8779 C   0  0  0  0  0  0  0  0  0  0  0  0
  -28.4690   -0.7850   29.8287 C   0  0  0  0  0  0  0  0  0  0  0  0
  -26.5042   -0.7777   28.8766 C   0  0  0  0  0  0  0  0  0  0  0  0
  -25.8103   -0.8531   30.1028 C   0  0  0  0  0  0  0  0  0  0  0  0
  -27.9906   -0.8916   31.2257 C   0  0  0  0  0  0  0  0  0  0  0  0
  -26.6042   -0.8676   31.2652 C   0  0  0  0  0  0  0  0  0  0  0  0
  -30.0739   -0.8360   29.8615 C   0  0  0  0  0  0  0  0  0  0  0  0
  -30.6825   -0.0696   30.6918 O   0  0  0  0  0  0  0  0  0  0  0  0
  -30.6262   -1.5652   29.0172 O   0  0  0  0  0  0  0  0  0  0  0  0
  -25.5363   -0.7204   27.4838 Cl  0  0  0  0  0  0  0  0  0  0  0  0
  -24.0485   -0.8018   30.2254 P   0  0  0  0  0  0  0  0  0  0  0  0
  -23.4784    0.2538   29.5674 O   0  0  0  0  0  0  0  0  0  0  0  0
  -23.7409   -0.5667   31.7099 O   0  0  0  0  0  0  0  0  0  0  0  0
  -23.5677   -2.1667   29.8479 O   0  0  0  0  0  0  0  0  0  0  0  0
  -22.3891    0.1184   28.7540 C   0  0  0  0  0  0  0  0  0  0  0  0
  -22.0567    1.3955   27.8984 C   0  0  0  0  0  0  0  0  0  0  0  0
  -23.0514    2.0294   27.5924 O   0  0  0  0  0  0  0  0  0  0  0  0
  -23.4753    2.2096   26.2743 C   0  0  0  0  0  0  0  0  0  0  0  0
  -24.8105    1.7116   26.1437 C   0  0  0  0  0  0  0  0  0  0  0  0
  -25.8695    2.4387   26.5590 C   0  0  0  0  0  0  0  0  0  0  0  0
  -27.2115    2.1248   26.1565 C   0  0  0  0  0  0  0  0  0  0  0  0
  -28.3286    2.5717   26.8826 C   0  0  0  0  0  0  0  0  0  0  0  0
  -29.6169    2.1832   26.5325 C   0  0  0  0  0  0  0  0  0  0  0  0
  -29.7411    1.3239   25.4210 C   0  0  0  0  0  0  0  0  0  0  0  0
  -28.6900    0.8629   24.7132 C   0  0  0  0  0  0  0  0  0  0  0  0
  2  7  1  0
  7  8  2  0
  7  9  1  0
  3 10  1  0
  4 11  1  0
 11 12  1  0
 11 13  1  0
 11 14  1  0
 12 15  1  0
 15 16  1  0
 16 17  1  0
 17 18  1  0
 18 19  1  0
 19 20  1  0
 20 21  2  3
 21 22  1  0
 22 23  2  3
 23 24  1  0
 24 25  2  0
  1  2  2  0
  2  5  1  0
  5  6  2  0
  6  4  1  0
  4  3  2  0
  3  1  1  0
M  END

$$$$
