No_3123-gen_results/8p0m/2024-11-26-14-13-15/
     RDKit          3D

 25 27  0  0  0  0  0  0  0  0999 V2000
  -28.0162   -0.8135   28.8779 C   0  0  0  0  0  0  0  0  0  0  0  0
  -27.0636   -0.1189   28.6079 C   0  0  0  0  0  0  0  0  0  0  0  0
  -25.7647   -0.3897   29.0360 C   0  0  0  0  0  0  0  0  0  0  0  0
  -25.5296   -1.5302   29.9014 C   0  0  0  0  0  0  0  0  0  0  0  0
  -26.6888   -2.2893   30.1810 C   0  0  0  0  0  0  0  0  0  0  0  0
  -27.8727   -1.9508   29.7373 C   0  0  0  0  0  0  0  0  0  0  0  0
  -28.9304   -2.7298   30.1154 O   0  0  0  0  0  0  0  0  0  0  0  0
  -24.5394    0.4211   28.7421 C   0  0  0  0  0  0  0  0  0  0  0  0
  -24.0907    1.3926   29.5983 C   0  0  0  0  0  0  0  0  0  0  0  0
  -23.0076    2.1308   29.1866 N   0  0  0  0  0  0  0  0  0  0  0  0
  -24.6627    1.6971   30.6889 O   0  0  0  0  0  0  0  0  0  0  0  0
  -29.3202   -2.7690   31.4400 C   0  0  0  0  0  0  0  0  0  0  0  0
  -29.7462   -4.0803   31.8020 C   0  0  0  0  0  0  0  0  0  0  0  0
  -31.1174   -4.2599   31.5945 C   0  0  0  0  0  0  0  0  0  0  0  0
  -31.8416   -3.3672   31.0122 C   0  0  0  0  0  0  0  0  0  0  0  0
  -29.3440   -4.2955   33.1908 O   0  0  0  0  0  0  0  0  0  0  0  0
  -32.8602   -3.4206   30.5278 C   0  0  0  0  0  0  0  0  0  0  0  0
  -33.6453   -2.3196   29.8577 C   0  0  0  0  0  0  0  0  0  0  0  0
  -33.0031   -1.0752   29.8276 C   0  0  0  0  0  0  0  0  0  0  0  0
  -31.7452   -0.9501   30.3823 C   0  0  0  0  0  0  0  0  0  0  0  0
  -31.1831   -1.9736   30.9484 C   0  0  0  0  0  0  0  0  0  0  0  0
  -30.3841   -1.8333   31.7739 O   0  0  0  0  0  0  0  0  0  0  0  0
  -31.6713   -4.4980   32.8464 F   0  0  0  0  0  0  0  0  0  0  0  0
  -31.2479   -5.6346   30.7870 C   0  0  0  0  0  0  0  0  0  0  0  0
  -31.2237    0.2748   30.4461 O   0  0  0  0  0  0  0  0  0  0  0  0
  6  7  1  0
  3  8  1  0
  8  9  1  0
  9 10  2  0
  9 11  1  0
  7 12  1  0
 12 13  1  0
 13 14  1  0
 14 15  1  0
 13 16  1  0
 12 22  1  0
 21 22  1  0
 14 23  1  0
 14 24  1  0
 20 25  1  0
 15 17  2  0
 17 18  1  0
 18 19  2  0
 19 20  1  0
 20 21  2  0
 21 15  1  0
  1  2  2  0
  2  3  1  0
  3  4  2  0
  4  5  1  0
  5  6  2  0
  6  1  1  0
M  END

$$$$
