No_3801-gen_results/8p0m/2024-11-26-14-13-15/
     RDKit          3D

 23 24  0  0  0  0  0  0  0  0999 V2000
  -28.0162   -0.8135   28.8779 C   0  0  0  0  0  0  0  0  0  0  0  0
  -28.4690   -0.7850   29.8287 C   0  0  0  0  0  0  0  0  0  0  0  0
  -26.5455   -0.8762   28.8500 C   0  0  0  0  0  0  0  0  0  0  0  0
  -25.8041   -1.0324   30.0571 C   0  0  0  0  0  0  0  0  0  0  0  0
  -27.9437   -0.9869   31.2075 C   0  0  0  0  0  0  0  0  0  0  0  0
  -26.5825   -1.0386   31.2231 C   0  0  0  0  0  0  0  0  0  0  0  0
  -30.2809   -0.7232   29.8834 Cl  0  0  0  0  0  0  0  0  0  0  0  0
  -24.3690   -1.1185   30.0640 C   0  0  0  0  0  0  0  0  0  0  0  0
  -23.6811    0.1519   30.0835 C   0  0  0  0  0  0  0  0  0  0  0  0
  -23.9535    1.1868   30.6649 C   0  0  0  0  0  0  0  0  0  0  0  0
  -23.2487    2.3503   30.4164 N   0  0  0  0  0  0  0  0  0  0  0  0
  -22.4221    0.2541   29.2570 C   0  0  0  0  0  0  0  0  0  0  0  0
  -21.8487    1.3022   28.8220 C   0  0  0  0  0  0  0  0  0  0  0  0
  -22.3503    2.4966   29.4938 C   0  0  0  0  0  0  0  0  0  0  0  0
  -25.8267   -0.8192   27.7255 F   0  0  0  0  0  0  0  0  0  0  0  0
  -20.7787    1.4485   27.8958 C   0  0  0  0  0  0  0  0  0  0  0  0
  -23.8117   -2.3985   30.1479 C   0  0  0  0  0  0  0  0  0  0  0  0
  -24.9498    1.3694   31.4987 F   0  0  0  0  0  0  0  0  0  0  0  0
  -23.3583   -2.8782   28.9871 N   0  0  0  0  0  0  0  0  0  0  0  0
  -19.8076    1.9238   28.1414 F   0  0  0  0  0  0  0  0  0  0  0  0
  -21.3828    2.1825   26.7711 F   0  0  0  0  0  0  0  0  0  0  0  0
  -20.4518    0.1678   27.4463 F   0  0  0  0  0  0  0  0  0  0  0  0
  -29.0383   -1.0792   32.7708 Br  0  0  0  0  0  0  0  0  0  0  0  0
  2  7  1  0
  4  8  1  0
  8  9  1  0
  3 15  1  0
 13 16  1  0
  8 17  1  0
 10 18  1  0
 17 19  1  0
 16 20  1  0
 16 21  1  0
 16 22  1  0
  5 23  1  0
  9 10  2  0
 10 11  1  0
 11 14  2  0
 14 13  1  0
 13 12  2  0
 12  9  1  0
  1  2  2  0
  2  5  1  0
  5  6  2  0
  6  4  1  0
  4  3  2  0
  3  1  1  0
M  END

$$$$
