No_3537-gen_results/8p0m/2024-11-26-14-13-15/
     RDKit          3D

 35 38  0  0  0  0  0  0  0  0999 V2000
  -28.0162   -0.8135   28.8779 C   0  0  0  0  0  0  0  0  0  0  0  0
  -27.0636   -0.1190   28.6079 C   0  0  0  0  0  0  0  0  0  0  0  0
  -25.7923   -0.4302   29.0761 C   0  0  0  0  0  0  0  0  0  0  0  0
  -24.5456    0.3494   28.8225 C   0  0  0  0  0  0  0  0  0  0  0  0
  -24.6586    1.4196   27.8878 C   0  0  0  0  0  0  0  0  0  0  0  0
  -25.9471    1.6811   27.3792 C   0  0  0  0  0  0  0  0  0  0  0  0
  -27.0439    0.9739   27.6871 C   0  0  0  0  0  0  0  0  0  0  0  0
  -28.0241   -1.6475   30.1263 C   0  0  0  0  0  0  0  0  0  0  0  0
  -26.7278   -2.0846   30.5807 C   0  0  0  0  0  0  0  0  0  0  0  0
  -25.5915   -1.4064   30.1489 C   0  0  0  0  0  0  0  0  0  0  0  0
  -23.4497    2.1789   27.5290 C   0  0  0  0  0  0  0  0  0  0  0  0
  -23.5928    3.1847   26.8636 O   0  0  0  0  0  0  0  0  0  0  0  0
  -22.2086    1.7829   27.9165 N   0  0  0  0  0  0  0  0  0  0  0  0
  -29.1653   -2.4656   30.5389 C   0  0  0  0  0  0  0  0  0  0  0  0
  -29.1062   -3.6247   30.8778 O   0  0  0  0  0  0  0  0  0  0  0  0
  -30.2197   -1.7231   30.9577 N   0  0  0  0  0  0  0  0  0  0  0  0
  -31.4264   -2.3881   31.5023 C   0  0  0  0  0  0  0  0  0  0  0  0
  -28.3386    1.3563   27.0413 C   0  0  0  0  0  0  0  0  0  0  0  0
  -29.0959    2.0262   27.5334 O   0  0  0  0  0  0  0  0  0  0  0  0
  -28.6005    0.4922   25.9422 O   0  0  0  0  0  0  0  0  0  0  0  0
  -29.3935    1.0349   24.9328 C   0  0  0  0  0  0  0  0  0  0  0  0
  -30.4068   -0.2844   30.7587 C   0  0  0  0  0  0  0  0  0  0  0  0
  -31.3936    0.1177   29.9303 C   0  0  0  0  0  0  0  0  0  0  0  0
  -31.3941    1.2071   29.5174 C   0  0  0  0  0  0  0  0  0  0  0  0
  -32.4832    1.6763   28.5996 C   0  0  0  0  0  0  0  0  0  0  0  0
  -33.4289    0.7432   28.2485 C   0  0  0  0  0  0  0  0  0  0  0  0
  -33.3578   -0.5420   28.7344 C   0  0  0  0  0  0  0  0  0  0  0  0
  -32.3774   -0.8441   29.5551 C   0  0  0  0  0  0  0  0  0  0  0  0
  -31.3701   -3.1911   32.3424 C   0  0  0  0  0  0  0  0  0  0  0  0
  -32.6678   -1.7678   30.9173 C   0  0  0  0  0  0  0  0  0  0  0  0
  -29.1625    2.0073   24.4290 C   0  0  0  0  0  0  0  0  0  0  0  0
  -30.6466    0.3482   24.7239 C   0  0  0  0  0  0  0  0  0  0  0  0
  -31.5576    0.7930   23.7975 C   0  0  0  0  0  0  0  0  0  0  0  0
  -27.8736    2.7867   24.6412 C   0  0  0  0  0  0  0  0  0  0  0  0
  -31.2507    1.9716   23.1247 C   0  0  0  0  0  0  0  0  0  0  0  0
  5 11  1  0
 11 12  2  0
 11 13  1  0
  8 14  1  0
 14 15  2  0
 14 16  1  0
 16 17  1  0
  7 18  1  0
 18 19  2  0
 18 20  1  0
 20 21  1  0
 16 22  1  0
 22 23  1  0
 17 29  2  0
 17 30  1  0
 28 30  1  0
 21 31  2  3
 21 32  1  0
 32 33  1  0
 31 34  1  0
 33 35  2  0
  3  4  1  0
  4  5  2  0
  5  6  1  0
  6  7  2  0
  7  2  1  0
  1  2  2  0
  2  3  1  0
  3 10  2  0
 10  9  1  0
  9  8  2  0
  8  1  1  0
 23 24  2  0
 24 25  1  0
 25 26  2  0
 26 27  1  0
 27 28  2  0
 28 23  1  0
M  END

$$$$
