No_3605-gen_results/8p0m/2024-11-26-14-13-15/
     RDKit          3D

 12 13  0  0  0  0  0  0  0  0999 V2000
  -28.0162   -0.8135   28.8779 C   0  0  0  0  0  0  0  0  0  0  0  0
  -28.4690   -0.7850   29.8287 C   0  0  0  0  0  0  0  0  0  0  0  0
  -26.5042   -0.7777   28.8766 C   0  0  0  0  0  0  0  0  0  0  0  0
  -25.7623   -0.0022   27.9705 C   0  0  0  0  0  0  0  0  0  0  0  0
  -26.0931    0.6131   27.0948 C   0  0  0  0  0  0  0  0  0  0  0  0
  -25.2924    1.2851   26.1396 C   0  0  0  0  0  0  0  0  0  0  0  0
  -23.9069    1.3541   26.4095 C   0  0  0  0  0  0  0  0  0  0  0  0
  -23.3994    0.7728   27.5633 C   0  0  0  0  0  0  0  0  0  0  0  0
  -24.2633    0.1055   28.3863 C   0  0  0  0  0  0  0  0  0  0  0  0
  -28.0662   -1.5495   31.0618 C   0  0  0  0  0  0  0  0  0  0  0  0
  -26.6756   -1.7894   31.0475 C   0  0  0  0  0  0  0  0  0  0  0  0
  -25.8986   -1.3946   30.0603 C   0  0  0  0  0  0  0  0  0  0  0  0
  3  4  1  0
  1  2  2  0
  2 10  1  0
 10 11  2  0
 11 12  1  0
 12  3  2  0
  3  1  1  0
  4  5  2  0
  5  6  1  0
  6  7  2  0
  7  8  1  0
  8  9  2  0
  9  4  1  0
M  END

$$$$
