No_3067-gen_results/8p0m/2024-11-26-14-13-15/
     RDKit          3D

 17 18  0  0  0  0  0  0  0  0999 V2000
  -28.0162   -0.8135   28.8779 C   0  0  0  0  0  0  0  0  0  0  0  0
  -28.4690   -0.7850   29.8287 C   0  0  0  0  0  0  0  0  0  0  0  0
  -26.5042   -0.7777   28.8766 C   0  0  0  0  0  0  0  0  0  0  0  0
  -25.8103   -0.8531   30.1028 C   0  0  0  0  0  0  0  0  0  0  0  0
  -30.0136   -0.8410   29.8508 C   0  0  0  0  0  0  0  0  0  0  0  0
  -26.5670   -0.8850   31.2517 C   0  0  0  0  0  0  0  0  0  0  0  0
  -27.9411   -0.9069   31.1850 C   0  0  0  0  0  0  0  0  0  0  0  0
  -30.6493   -0.0573   30.6757 O   0  0  0  0  0  0  0  0  0  0  0  0
  -30.5985   -1.8622   29.3538 O   0  0  0  0  0  0  0  0  0  0  0  0
  -25.6448   -0.7150   27.6689 C   0  0  0  0  0  0  0  0  0  0  0  0
  -25.9238    0.3602   26.7521 C   0  0  0  0  0  0  0  0  0  0  0  0
  -24.9941    0.6795   25.8518 C   0  0  0  0  0  0  0  0  0  0  0  0
  -24.1879    1.6299   25.7163 C   0  0  0  0  0  0  0  0  0  0  0  0
  -22.8805    1.6915   25.2200 C   0  0  0  0  0  0  0  0  0  0  0  0
  -24.5893    2.9778   26.4250 C   0  0  0  0  0  0  0  0  0  0  0  0
  -25.5118    3.0049   27.3638 C   0  0  0  0  0  0  0  0  0  0  0  0
  -26.1912    1.6185   27.6095 C   0  0  0  0  0  0  0  0  0  0  0  0
  2  5  1  0
  5  8  2  0
  5  9  1  0
  3 10  1  0
 10 11  1  0
 14 13  1  0
 11 12  2  0
 12 13  1  0
 13 15  2  0
 15 16  1  0
 16 17  2  0
 17 11  1  0
  1  2  2  0
  2  7  1  0
  7  6  2  0
  6  4  1  0
  4  3  2  0
  3  1  1  0
M  END

$$$$
