No_3732-gen_results/8p0m/2024-11-26-14-13-15/
     RDKit          3D

 35 38  0  0  0  0  0  0  0  0999 V2000
  -28.0162   -0.8135   28.8779 C   0  0  0  0  0  0  0  0  0  0  0  0
  -28.4690   -0.7850   29.8287 C   0  0  0  0  0  0  0  0  0  0  0  0
  -27.0871    0.2903   28.6377 C   0  0  0  0  0  0  0  0  0  0  0  0
  -26.8317    1.2487   29.5869 C   0  0  0  0  0  0  0  0  0  0  0  0
  -28.3914    0.0801   31.0065 C   0  0  0  0  0  0  0  0  0  0  0  0
  -27.4940    1.1521   30.7841 C   0  0  0  0  0  0  0  0  0  0  0  0
  -26.3172    0.3994   27.3653 C   0  0  0  0  0  0  0  0  0  0  0  0
  -25.0720    0.1570   27.4305 N   0  0  0  0  0  0  0  0  0  0  0  0
  -26.8935    0.6376   26.2796 O   0  0  0  0  0  0  0  0  0  0  0  0
  -24.2685   -0.0655   28.6293 C   0  0  0  0  0  0  0  0  0  0  0  0
  -23.1426    0.9218   28.6625 C   0  0  0  0  0  0  0  0  0  0  0  0
  -22.8225    1.9475   27.7628 C   0  0  0  0  0  0  0  0  0  0  0  0
  -24.3693   -1.0631   29.4438 C   0  0  0  0  0  0  0  0  0  0  0  0
  -23.4121   -1.1465   30.4959 C   0  0  0  0  0  0  0  0  0  0  0  0
  -22.4097   -0.2740   30.6924 C   0  0  0  0  0  0  0  0  0  0  0  0
  -22.2047    0.6731   29.8105 C   0  0  0  0  0  0  0  0  0  0  0  0
  -23.6518    2.8272   27.5497 O   0  0  0  0  0  0  0  0  0  0  0  0
  -21.5465    2.1494   27.4353 O   0  0  0  0  0  0  0  0  0  0  0  0
  -27.3090    2.1866   31.8763 C   0  0  0  0  0  0  0  0  0  0  0  0
  -26.6458    3.0287   32.0806 C   0  0  0  0  0  0  0  0  0  0  0  0
  -26.5696    3.9935   33.1903 C   0  0  0  0  0  0  0  0  0  0  0  0
  -27.4775    3.7562   34.2134 C   0  0  0  0  0  0  0  0  0  0  0  0
  -28.3130    2.7095   34.0687 C   0  0  0  0  0  0  0  0  0  0  0  0
  -28.3286    1.8729   33.0434 C   0  0  0  0  0  0  0  0  0  0  0  0
  -29.4059   -1.8477   30.2085 F   0  0  0  0  0  0  0  0  0  0  0  0
  -25.6764    5.1392   33.3742 C   0  0  0  0  0  0  0  0  0  0  0  0
  -26.0273    6.1969   32.7205 O   0  0  0  0  0  0  0  0  0  0  0  0
  -24.4624    5.0302   33.7954 O   0  0  0  0  0  0  0  0  0  0  0  0
  -29.3231    2.4541   35.1936 C   0  0  0  0  0  0  0  0  0  0  0  0
  -29.8891    1.5725   35.0375 F   0  0  0  0  0  0  0  0  0  0  0  0
  -28.5398    2.4399   36.3460 F   0  0  0  0  0  0  0  0  0  0  0  0
  -30.0476    3.5800   35.3484 F   0  0  0  0  0  0  0  0  0  0  0  0
  -28.9122    1.9568   34.3857 C   0  0  0  0  0  0  0  0  0  0  0  0
  -28.3684    0.4794   34.7549 F   0  0  0  0  0  0  0  0  0  0  0  0
  -29.0473    1.2650   33.4912 C   0  0  0  0  0  0  0  0  0  0  0  0
  3  7  1  0
  7  8  1  0
  7  9  2  0
  8 10  1  0
 11 12  1  0
 12 17  2  0
 12 18  1  0
  6 19  1  0
 20 21  1  0
 22 23  1  0
 19 24  1  0
 23 24  1  0
  2 25  1  0
 21 26  1  0
 26 27  2  0
 26 28  1  0
 23 29  1  0
 29 30  1  0
 29 31  1  0
 29 32  1  0
 23 33  1  0
 33 34  1  0
 24 35  1  0
 33 35  1  0
 22 21  1  0
 20 19  1  0
  1  2  2  0
  2  5  1  0
  5  6  2  0
  6  4  1  0
  4  3  2  0
  3  1  1  0
 10 11  2  0
 11 16  1  0
 16 15  2  0
 15 14  1  0
 14 13  2  0
 13 10  1  0
M  END

$$$$
