No_3351-gen_results/8p0m/2024-11-26-14-13-15/
     RDKit          3D

 15 15  0  0  0  0  0  0  0  0999 V2000
  -28.0162   -0.8135   28.8779 C   0  0  0  0  0  0  0  0  0  0  0  0
  -27.0636   -0.1189   28.6079 C   0  0  0  0  0  0  0  0  0  0  0  0
  -25.7923   -0.4302   29.0761 C   0  0  0  0  0  0  0  0  0  0  0  0
  -25.5756   -1.5654   29.9363 C   0  0  0  0  0  0  0  0  0  0  0  0
  -26.7354   -2.3004   30.2173 C   0  0  0  0  0  0  0  0  0  0  0  0
  -27.9184   -1.9537   29.7629 C   0  0  0  0  0  0  0  0  0  0  0  0
  -27.1057    1.1023   27.7593 C   0  0  0  0  0  0  0  0  0  0  0  0
  -26.8548    2.1259   28.0082 N   0  0  0  0  0  0  0  0  0  0  0  0
  -27.5396    0.8200   26.4924 O   0  0  0  0  0  0  0  0  0  0  0  0
  -26.5547    3.1162   27.6007 C   0  0  0  0  0  0  0  0  0  0  0  0
  -25.9446    4.2362   28.1490 C   0  0  0  0  0  0  0  0  0  0  0  0
  -25.4403    5.4216   27.4743 C   0  0  0  0  0  0  0  0  0  0  0  0
  -24.9373    6.5212   28.1362 C   0  0  0  0  0  0  0  0  0  0  0  0
  -25.1333    6.7344   29.4726 C   0  0  0  0  0  0  0  0  0  0  0  0
  -25.6804    5.6756   30.1768 C   0  0  0  0  0  0  0  0  0  0  0  0
  2  7  1  0
  7  8  1  0
  7  9  2  0
  8 10  1  0
 10 11  2  3
 11 12  1  0
 12 13  2  3
 13 14  1  0
 14 15  2  0
  1  2  2  0
  2  3  1  0
  3  4  2  0
  4  5  1  0
  5  6  2  0
  6  1  1  0
M  END

$$$$
