No_3475-gen_results/8p0m/2024-11-26-14-13-15/
     RDKit          3D

 16 17  0  0  0  0  0  0  0  0999 V2000
  -28.1229   -1.3353   28.4874 O   0  0  0  0  0  0  0  0  0  0  0  0
  -27.4806   -0.4044   28.7094 C   0  0  0  0  0  0  0  0  0  0  0  0
  -26.3804   -0.0867   27.9394 C   0  0  0  0  0  0  0  0  0  0  0  0
  -27.4232    0.1749   30.0549 N   0  0  0  0  0  0  0  0  0  0  0  0
  -26.1558    0.1159   26.9677 C   0  0  0  0  0  0  0  0  0  0  0  0
  -25.8030    0.9179   26.1145 C   0  0  0  0  0  0  0  0  0  0  0  0
  -24.7358    1.9082   26.5542 C   0  0  0  0  0  0  0  0  0  0  0  0
  -24.4114    1.7066   27.9228 C   0  0  0  0  0  0  0  0  0  0  0  0
  -25.1987    0.8236   28.6649 C   0  0  0  0  0  0  0  0  0  0  0  0
  -28.5056   -0.2921   30.9809 C   0  0  0  0  0  0  0  0  0  0  0  0
  -23.2567    2.6711   28.6662 Cl  0  0  0  0  0  0  0  0  0  0  0  0
  -28.1050   -0.4154   32.1496 C   0  0  0  0  0  0  0  0  0  0  0  0
  -28.9483   -0.8626   33.1919 C   0  0  0  0  0  0  0  0  0  0  0  0
  -30.2913   -1.1559   32.8575 C   0  0  0  0  0  0  0  0  0  0  0  0
  -30.6670   -1.0336   31.5195 C   0  0  0  0  0  0  0  0  0  0  0  0
  -29.7785   -0.5765   30.5934 C   0  0  0  0  0  0  0  0  0  0  0  0
  1  2  2  0
  2  3  1  0
  2  4  1  0
  4 10  1  0
  8 11  1  0
  3  5  2  0
  5  6  1  0
  6  7  2  0
  7  8  1  0
  8  9  2  0
  9  3  1  0
 10 12  2  0
 12 13  1  0
 13 14  2  0
 14 15  1  0
 15 16  2  0
 16 10  1  0
M  END

$$$$
