No_359-gen_results/8p0m/2024-11-26-14-13-15/
     RDKit          3D

 22 25  0  0  0  0  0  0  0  0999 V2000
  -28.0162   -0.8135   28.8779 C   0  0  0  0  0  0  0  0  0  0  0  0
  -27.0636   -0.1189   28.6079 C   0  0  0  0  0  0  0  0  0  0  0  0
  -25.7647   -0.3897   29.0360 C   0  0  0  0  0  0  0  0  0  0  0  0
  -25.5296   -1.5302   29.9014 C   0  0  0  0  0  0  0  0  0  0  0  0
  -26.6888   -2.2893   30.1810 C   0  0  0  0  0  0  0  0  0  0  0  0
  -27.8727   -1.9508   29.7373 C   0  0  0  0  0  0  0  0  0  0  0  0
  -24.6993    0.3604   28.7753 F   0  0  0  0  0  0  0  0  0  0  0  0
  -29.0333   -2.8145   30.1506 C   0  0  0  0  0  0  0  0  0  0  0  0
  -30.2066   -2.2497   30.2766 N   0  0  0  0  0  0  0  0  0  0  0  0
  -28.8825   -4.0248   30.3981 O   0  0  0  0  0  0  0  0  0  0  0  0
  -31.3813   -3.0340   30.6446 C   0  0  0  0  0  0  0  0  0  0  0  0
  -32.3828   -2.3956   30.9717 C   0  0  0  0  0  0  0  0  0  0  0  0
  -32.4475   -0.9544   30.7865 C   0  0  0  0  0  0  0  0  0  0  0  0
  -31.3294   -0.2295   30.4279 C   0  0  0  0  0  0  0  0  0  0  0  0
  -30.2137   -0.8373   30.2659 C   0  0  0  0  0  0  0  0  0  0  0  0
  -29.3481   -0.2776   29.0746 N   0  0  0  0  0  0  0  0  0  0  0  0
  -29.7869    0.6752   28.2067 C   0  0  0  0  0  0  0  0  0  0  0  0
  -29.4714    1.9182   28.4982 C   0  0  0  0  0  0  0  0  0  0  0  0
  -30.5548    0.2363   27.1499 C   0  0  0  0  0  0  0  0  0  0  0  0
  -29.8610    2.9704   27.6392 C   0  0  0  0  0  0  0  0  0  0  0  0
  -31.0386    1.2165   26.2836 C   0  0  0  0  0  0  0  0  0  0  0  0
  -30.6728    2.5993   26.5237 C   0  0  0  0  0  0  0  0  0  0  0  0
  3  7  1  0
  6  8  1  0
  8  9  1  0
  8 10  2  0
  9 11  1  0
 12 13  1  0
  9 15  1  0
 14 15  1  0
  1 16  1  0
 15 16  1  0
 16 17  1  0
 11 12  1  0
 13 14  1  0
  1  2  2  0
  2  3  1  0
  3  4  2  0
  4  5  1  0
  5  6  2  0
  6  1  1  0
 17 18  2  0
 18 20  1  0
 20 22  2  0
 22 21  1  0
 21 19  2  0
 19 17  1  0
M  END

$$$$
