No_3284-gen_results/8p0m/2024-11-26-14-13-15/
     RDKit          3D

 28 30  0  0  0  0  0  0  0  0999 V2000
  -28.0162   -0.8135   28.8779 C   0  0  0  0  0  0  0  0  0  0  0  0
  -27.0636   -0.1190   28.6079 C   0  0  0  0  0  0  0  0  0  0  0  0
  -26.9716    0.7139   27.5060 C   0  0  0  0  0  0  0  0  0  0  0  0
  -28.1053    0.7744   26.6421 C   0  0  0  0  0  0  0  0  0  0  0  0
  -29.2008    0.1044   27.0527 C   0  0  0  0  0  0  0  0  0  0  0  0
  -28.0219   -1.5899   30.0879 C   0  0  0  0  0  0  0  0  0  0  0  0
  -29.1640   -0.6394   28.1484 C   0  0  0  0  0  0  0  0  0  0  0  0
  -27.1149   -2.3777   30.3500 O   0  0  0  0  0  0  0  0  0  0  0  0
  -28.8356   -1.3561   31.0564 O   0  0  0  0  0  0  0  0  0  0  0  0
  -30.3679    0.2024   26.1540 C   0  0  0  0  0  0  0  0  0  0  0  0
  -31.2658   -0.4277   26.3170 O   0  0  0  0  0  0  0  0  0  0  0  0
  -30.5335    1.2260   25.3562 O   0  0  0  0  0  0  0  0  0  0  0  0
  -25.6947    1.4243   27.1165 C   0  0  0  0  0  0  0  0  0  0  0  0
  -25.2682    2.4585   28.0003 C   0  0  0  0  0  0  0  0  0  0  0  0
  -23.9756    3.0109   27.7196 C   0  0  0  0  0  0  0  0  0  0  0  0
  -23.2426    2.4975   26.5966 C   0  0  0  0  0  0  0  0  0  0  0  0
  -23.7509    1.4706   25.8477 C   0  0  0  0  0  0  0  0  0  0  0  0
  -24.9600    0.9286   26.0721 C   0  0  0  0  0  0  0  0  0  0  0  0
  -25.9654    3.0609   29.1053 C   0  0  0  0  0  0  0  0  0  0  0  0
  -27.0432    2.6746   29.4304 N   0  0  0  0  0  0  0  0  0  0  0  0
  -27.7134    3.2115   30.5674 C   0  0  0  0  0  0  0  0  0  0  0  0
  -25.3979    4.1552   29.5658 O   0  0  0  0  0  0  0  0  0  0  0  0
  -28.6583    3.9864   30.4636 C   0  0  0  0  0  0  0  0  0  0  0  0
  -29.3115    4.2536   29.2365 C   0  0  0  0  0  0  0  0  0  0  0  0
  -30.3829    5.1587   29.0738 C   0  0  0  0  0  0  0  0  0  0  0  0
  -30.8490    5.7682   30.1750 C   0  0  0  0  0  0  0  0  0  0  0  0
  -30.3462    5.5721   31.4188 C   0  0  0  0  0  0  0  0  0  0  0  0
  -29.2774    4.7018   31.6117 C   0  0  0  0  0  0  0  0  0  0  0  0
  1  6  1  0
  6  8  1  0
  6  9  2  0
  5 10  1  0
 10 11  1  0
 10 12  2  0
  3 13  1  0
 14 19  1  0
 19 20  1  0
 20 21  1  0
 19 22  2  0
 21 23  1  0
 13 14  1  0
 14 15  2  0
 15 16  1  0
 16 17  2  0
 17 18  1  0
 18 13  2  0
  1  2  2  0
  2  3  1  0
  3  4  2  0
  4  5  1  0
  5  7  2  0
  7  1  1  0
 23 24  2  0
 24 25  1  0
 25 26  2  0
 26 27  1  0
 27 28  2  0
 28 23  1  0
M  END

$$$$
