No_3755-gen_results/8p0m/2024-11-26-14-13-15/
     RDKit          3D

 10  9  0  0  0  0  0  0  0  0999 V2000
  -28.0162   -0.8135   28.8779 C   0  0  0  0  0  0  0  0  0  0  0  0
  -27.0636   -0.1190   28.6079 C   0  0  0  0  0  0  0  0  0  0  0  0
  -27.0600    1.1813   27.5749 P   0  0  0  0  0  0  0  0  0  0  0  0
  -27.4036    2.3739   28.2361 O   0  0  0  0  0  0  0  0  0  0  0  0
  -25.7356    1.2751   26.9081 O   0  0  0  0  0  0  0  0  0  0  0  0
  -28.1708    0.8087   26.5589 O   0  0  0  0  0  0  0  0  0  0  0  0
  -29.1434   -0.2286   29.5496 C   0  0  0  0  0  0  0  0  0  0  0  0
  -28.9045    0.1591   30.7095 O   0  0  0  0  0  0  0  0  0  0  0  0
  -30.2342   -0.0156   28.9235 N   0  0  0  0  0  0  0  0  0  0  0  0
  -30.5667   -0.5471   27.6960 C   0  0  0  0  0  0  0  0  0  0  0  0
  1  2  1  0
  2  3  1  0
  3  4  1  0
  3  5  1  0
  3  6  2  0
  1  7  1  0
  7  8  2  0
  7  9  1  0
  9 10  1  0
M  END

$$$$
