No_3474-gen_results/8p0m/2024-11-26-14-13-15/
     RDKit          3D

 25 27  0  0  0  0  0  0  0  0999 V2000
  -28.0162   -0.8135   28.8779 C   0  0  0  0  0  0  0  0  0  0  0  0
  -27.0636   -0.1190   28.6079 C   0  0  0  0  0  0  0  0  0  0  0  0
  -25.7923   -0.4302   29.0761 C   0  0  0  0  0  0  0  0  0  0  0  0
  -24.5456    0.3494   28.8225 C   0  0  0  0  0  0  0  0  0  0  0  0
  -24.6586    1.4196   27.8878 C   0  0  0  0  0  0  0  0  0  0  0  0
  -25.9471    1.6811   27.3792 C   0  0  0  0  0  0  0  0  0  0  0  0
  -27.0439    0.9739   27.6871 C   0  0  0  0  0  0  0  0  0  0  0  0
  -27.9736   -1.7264   29.9612 N   0  0  0  0  0  0  0  0  0  0  0  0
  -29.1912   -0.5380   28.5093 O   0  0  0  0  0  0  0  0  0  0  0  0
  -29.0743   -2.5471   30.4575 C   0  0  0  0  0  0  0  0  0  0  0  0
  -23.2641    2.3033   27.5671 Cl  0  0  0  0  0  0  0  0  0  0  0  0
  -28.8116   -3.9356   30.4293 C   0  0  0  0  0  0  0  0  0  0  0  0
  -29.8390   -4.7245   30.0468 N   0  0  0  0  0  0  0  0  0  0  0  0
  -31.0187   -4.5328   30.5992 C   0  0  0  0  0  0  0  0  0  0  0  0
  -31.4183   -3.1417   30.6844 C   0  0  0  0  0  0  0  0  0  0  0  0
  -30.3452   -2.0895   30.6139 C   0  0  0  0  0  0  0  0  0  0  0  0
  -31.9399   -5.4345   30.5400 O   0  0  0  0  0  0  0  0  0  0  0  0
  -23.2744   -0.0810   29.3890 C   0  0  0  0  0  0  0  0  0  0  0  0
  -22.3796    0.4710   29.6888 C   0  0  0  0  0  0  0  0  0  0  0  0
  -21.1087   -0.2163   29.1134 C   0  0  0  0  0  0  0  0  0  0  0  0
  -23.1991   -1.5616   29.5435 C   0  0  0  0  0  0  0  0  0  0  0  0
  -24.3379   -2.3082   29.4365 N   0  0  0  0  0  0  0  0  0  0  0  0
  -25.5525   -1.8031   29.1940 C   0  0  0  0  0  0  0  0  0  0  0  0
  -20.1683    0.4915   28.5805 N   0  0  0  0  0  0  0  0  0  0  0  0
  -20.9908   -1.3985   29.1305 O   0  0  0  0  0  0  0  0  0  0  0  0
  1  2  1  0
  1  8  1  0
  1  9  2  0
  8 10  1  0
  5 11  1  0
 10 12  1  0
 12 13  1  0
 13 14  1  0
 14 15  1  0
 10 16  1  0
 14 17  2  0
  4 18  1  0
 18 19  2  3
 19 20  1  0
 18 21  1  0
 21 22  1  0
  3 23  1  0
 22 23  1  0
 20 24  1  0
 20 25  2  0
 16 15  1  0
  2  3  2  0
  3  4  1  0
  4  5  2  0
  5  6  1  0
  6  7  2  0
  7  2  1  0
M  END

$$$$
