No_3789-gen_results/8p0m/2024-11-26-14-13-15/
     RDKit          3D

 12 13  0  0  0  0  0  0  0  0999 V2000
  -28.0162   -0.8135   28.8779 C   0  0  0  0  0  0  0  0  0  0  0  0
  -28.4690   -0.7850   29.8287 C   0  0  0  0  0  0  0  0  0  0  0  0
  -26.5455   -0.8762   28.8500 C   0  0  0  0  0  0  0  0  0  0  0  0
  -25.6825   -0.7773   27.6829 C   0  0  0  0  0  0  0  0  0  0  0  0
  -29.9909   -0.7300   29.9814 C   0  0  0  0  0  0  0  0  0  0  0  0
  -24.2640   -0.7731   27.9513 C   0  0  0  0  0  0  0  0  0  0  0  0
  -23.7548   -0.9500   29.2468 C   0  0  0  0  0  0  0  0  0  0  0  0
  -25.6279   -1.0194   30.0116 C   0  0  0  0  0  0  0  0  0  0  0  0
  -24.4691   -1.0218   30.2986 C   0  0  0  0  0  0  0  0  0  0  0  0
  -30.6078   -0.5169   28.7714 C   0  0  0  0  0  0  0  0  0  0  0  0
  -29.8996   -0.3236   27.6517 C   0  0  0  0  0  0  0  0  0  0  0  0
  -28.5640   -0.3434   27.6651 C   0  0  0  0  0  0  0  0  0  0  0  0
  1  3  1  0
  3  4  2  0
  4  6  1  0
  6  7  2  0
  7  9  1  0
  9  8  2  0
  8  3  1  0
  1  2  2  0
  2  5  1  0
  5 10  2  0
 10 11  1  0
 11 12  2  0
 12  1  1  0
M  END

$$$$
