No_3290-gen_results/8p0m/2024-11-26-14-13-15/
     RDKit          3D

 35 37  0  0  0  0  0  0  0  0999 V2000
  -28.0162   -0.8135   28.8779 C   0  0  0  0  0  0  0  0  0  0  0  0
  -27.0636   -0.1189   28.6079 C   0  0  0  0  0  0  0  0  0  0  0  0
  -25.7923   -0.4302   29.0761 C   0  0  0  0  0  0  0  0  0  0  0  0
  -24.5456    0.3494   28.8225 C   0  0  0  0  0  0  0  0  0  0  0  0
  -24.6586    1.4196   27.8878 C   0  0  0  0  0  0  0  0  0  0  0  0
  -25.9471    1.6811   27.3792 C   0  0  0  0  0  0  0  0  0  0  0  0
  -27.0439    0.9739   27.6871 C   0  0  0  0  0  0  0  0  0  0  0  0
  -28.6597   -0.4600   30.2006 C   0  0  0  0  0  0  0  0  0  0  0  0
  -29.7497   -1.2486   30.6773 C   0  0  0  0  0  0  0  0  0  0  0  0
  -23.4472    2.1466   27.5918 C   0  0  0  0  0  0  0  0  0  0  0  0
  -23.4743    3.1372   26.8115 N   0  0  0  0  0  0  0  0  0  0  0  0
  -22.2874    1.7439   27.9660 O   0  0  0  0  0  0  0  0  0  0  0  0
  -30.1923   -2.1841   29.8811 C   0  0  0  0  0  0  0  0  0  0  0  0
  -31.3205   -2.9370   30.4471 C   0  0  0  0  0  0  0  0  0  0  0  0
  -31.8230   -2.6617   31.6179 C   0  0  0  0  0  0  0  0  0  0  0  0
  -31.3409   -1.6731   32.4317 C   0  0  0  0  0  0  0  0  0  0  0  0
  -30.2722   -0.9182   31.9851 C   0  0  0  0  0  0  0  0  0  0  0  0
  -28.9170    1.0396   30.4795 C   0  0  0  0  0  0  0  0  0  0  0  0
  -29.7224    1.7912   29.7465 C   0  0  0  0  0  0  0  0  0  0  0  0
  -29.8274    3.1330   30.0966 C   0  0  0  0  0  0  0  0  0  0  0  0
  -28.4374    1.5069   31.7687 C   0  0  0  0  0  0  0  0  0  0  0  0
  -28.5162    2.8454   32.0641 C   0  0  0  0  0  0  0  0  0  0  0  0
  -29.2573    3.6748   31.2494 C   0  0  0  0  0  0  0  0  0  0  0  0
  -30.6748    4.0232   29.2217 C   0  0  0  0  0  0  0  0  0  0  0  0
  -30.4910    5.1751   29.0740 N   0  0  0  0  0  0  0  0  0  0  0  0
  -31.6205    3.4351   28.5985 O   0  0  0  0  0  0  0  0  0  0  0  0
  -29.3937    5.9963   29.6476 C   0  0  0  0  0  0  0  0  0  0  0  0
  -27.5897   -0.7464   31.2464 O   0  0  0  0  0  0  0  0  0  0  0  0
  -31.8490   -4.0083   29.5342 C   0  0  0  0  0  0  0  0  0  0  0  0
  -31.1895   -5.0456   29.3781 O   0  0  0  0  0  0  0  0  0  0  0  0
  -33.1162   -4.0535   29.1904 N   0  0  0  0  0  0  0  0  0  0  0  0
  -33.9826   -2.9059   29.2823 C   0  0  0  0  0  0  0  0  0  0  0  0
  -35.2522   -3.1255   28.9185 C   0  0  0  0  0  0  0  0  0  0  0  0
  -36.1586   -2.1268   28.9525 C   0  0  0  0  0  0  0  0  0  0  0  0
  -35.7457   -0.7996   29.4018 C   0  0  0  0  0  0  0  0  0  0  0  0
  1  2  1  0
  1  8  1  0
  8  9  1  0
  5 10  1  0
 10 11  1  0
 10 12  2  0
  8 18  1  0
 20 24  1  0
 24 25  1  0
 24 26  2  0
 25 27  1  0
  8 28  1  0
 14 29  1  0
 29 30  2  0
 29 31  1  0
 31 32  1  0
 32 33  2  3
 33 34  1  0
 34 35  2  0
  2  3  2  0
  3  4  1  0
  4  5  2  0
  5  6  1  0
  6  7  2  0
  7  2  1  0
  9 13  2  0
 13 14  1  0
 14 15  2  0
 15 16  1  0
 16 17  2  0
 17  9  1  0
 18 19  2  0
 19 20  1  0
 20 23  2  0
 23 22  1  0
 22 21  2  0
 21 18  1  0
M  END

$$$$
