No_3338-gen_results/8p0m/2024-11-26-14-13-15/
     RDKit          3D

 14 15  0  0  0  0  0  0  0  0999 V2000
  -28.0162   -0.8135   28.8779 C   0  0  0  0  0  0  0  0  0  0  0  0
  -27.0636   -0.1190   28.6079 C   0  0  0  0  0  0  0  0  0  0  0  0
  -26.9716    0.7139   27.5060 C   0  0  0  0  0  0  0  0  0  0  0  0
  -28.1053    0.7744   26.6421 C   0  0  0  0  0  0  0  0  0  0  0  0
  -29.2008    0.1044   27.0527 C   0  0  0  0  0  0  0  0  0  0  0  0
  -29.2096   -0.6029   28.1853 C   0  0  0  0  0  0  0  0  0  0  0  0
  -30.2994    0.2279   26.2571 O   0  0  0  0  0  0  0  0  0  0  0  0
  -25.6209   -0.1306   29.2213 C   0  0  0  0  0  0  0  0  0  0  0  0
  -25.3050   -1.0782   30.0781 C   0  0  0  0  0  0  0  0  0  0  0  0
  -24.0201   -1.1349   30.7093 C   0  0  0  0  0  0  0  0  0  0  0  0
  -23.0545   -0.1671   30.3951 C   0  0  0  0  0  0  0  0  0  0  0  0
  -23.3966    0.8450   29.4590 C   0  0  0  0  0  0  0  0  0  0  0  0
  -24.6695    0.8370   28.8708 C   0  0  0  0  0  0  0  0  0  0  0  0
  -30.2514   -0.2294   25.0105 C   0  0  0  0  0  0  0  0  0  0  0  0
  5  7  1  0
  2  8  1  0
  7 14  1  0
  1  2  2  0
  2  3  1  0
  3  4  2  0
  4  5  1  0
  5  6  2  0
  6  1  1  0
  8  9  2  0
  9 10  1  0
 10 11  2  0
 11 12  1  0
 12 13  2  0
 13  8  1  0
M  END

$$$$
