No_3402-gen_results/8p0m/2024-11-26-14-13-15/
     RDKit          3D

 18 19  0  0  0  0  0  0  0  0999 V2000
  -28.0162   -0.8135   28.8779 C   0  0  0  0  0  0  0  0  0  0  0  0
  -27.0636   -0.1189   28.6079 C   0  0  0  0  0  0  0  0  0  0  0  0
  -26.9287    1.1713   29.0083 C   0  0  0  0  0  0  0  0  0  0  0  0
  -25.7702    2.0341   28.6884 C   0  0  0  0  0  0  0  0  0  0  0  0
  -24.7141    1.4431   27.9188 C   0  0  0  0  0  0  0  0  0  0  0  0
  -23.5566    2.1673   27.5933 C   0  0  0  0  0  0  0  0  0  0  0  0
  -29.0912   -0.2748   29.7317 C   0  0  0  0  0  0  0  0  0  0  0  0
  -29.0503    0.9872   30.1426 C   0  0  0  0  0  0  0  0  0  0  0  0
  -27.9501    1.7660   29.8118 C   0  0  0  0  0  0  0  0  0  0  0  0
  -25.6210    3.3874   28.9730 C   0  0  0  0  0  0  0  0  0  0  0  0
  -24.5895    4.2089   28.4034 C   0  0  0  0  0  0  0  0  0  0  0  0
  -23.5223    3.5277   27.7603 C   0  0  0  0  0  0  0  0  0  0  0  0
  -30.1977   -1.2140   30.0538 C   0  0  0  0  0  0  0  0  0  0  0  0
  -30.0337   -2.3505   30.5181 N   0  0  0  0  0  0  0  0  0  0  0  0
  -31.3872   -0.7977   29.9686 O   0  0  0  0  0  0  0  0  0  0  0  0
  -28.6970   -2.9685   30.8138 C   0  0  0  0  0  0  0  0  0  0  0  0
  -28.7105   -4.4683   30.5465 C   0  0  0  0  0  0  0  0  0  0  0  0
  -29.6841   -5.0954   30.7982 O   0  0  0  0  0  0  0  0  0  0  0  0
  3  4  1  0
  7 13  1  0
 13 14  1  0
 13 15  2  0
 14 16  1  0
 16 17  2  0
 17 18  2  0
  4  5  2  0
  5  6  1  0
  6 12  2  0
 12 11  1  0
 11 10  2  0
 10  4  1  0
  1  2  2  0
  2  3  1  0
  3  9  2  0
  9  8  1  0
  8  7  2  0
  7  1  1  0
M  END

$$$$
