No_3671-gen_results/8p0m/2024-11-26-14-13-15/
     RDKit          3D

 27 30  0  0  0  0  0  0  0  0999 V2000
  -28.0162   -0.8135   28.8779 C   0  0  0  0  0  0  0  0  0  0  0  0
  -28.4690   -0.7850   29.8287 C   0  0  0  0  0  0  0  0  0  0  0  0
  -26.5042   -0.7777   28.8766 C   0  0  0  0  0  0  0  0  0  0  0  0
  -25.6540   -0.6597   27.7191 C   0  0  0  0  0  0  0  0  0  0  0  0
  -27.9180   -0.9374   31.1824 C   0  0  0  0  0  0  0  0  0  0  0  0
  -26.5423   -0.9399   31.2606 C   0  0  0  0  0  0  0  0  0  0  0  0
  -25.7832   -0.8935   30.1201 C   0  0  0  0  0  0  0  0  0  0  0  0
  -25.9259    0.2819   26.7445 C   0  0  0  0  0  0  0  0  0  0  0  0
  -24.9904    0.6776   25.8676 C   0  0  0  0  0  0  0  0  0  0  0  0
  -24.1885    1.6080   25.8479 C   0  0  0  0  0  0  0  0  0  0  0  0
  -23.3296    2.0084   26.8161 C   0  0  0  0  0  0  0  0  0  0  0  0
  -22.6795    1.5091   27.7087 C   0  0  0  0  0  0  0  0  0  0  0  0
  -23.2732    0.8124   28.6634 C   0  0  0  0  0  0  0  0  0  0  0  0
  -22.3745    0.2660   29.7630 C   0  0  0  0  0  0  0  0  0  0  0  0
  -23.1040   -0.5037   30.7060 C   0  0  0  0  0  0  0  0  0  0  0  0
  -27.1990    0.9315   26.6659 C   0  0  0  0  0  0  0  0  0  0  0  0
  -27.3757    1.9794   25.9855 C   0  0  0  0  0  0  0  0  0  0  0  0
  -28.7125    2.6140   25.8761 C   0  0  0  0  0  0  0  0  0  0  0  0
  -29.7506    2.0493   26.4634 C   0  0  0  0  0  0  0  0  0  0  0  0
  -29.5658    0.8772   27.1233 C   0  0  0  0  0  0  0  0  0  0  0  0
  -28.3604    0.3156   27.2873 C   0  0  0  0  0  0  0  0  0  0  0  0
  -28.4040   -0.8826   26.6406 F   0  0  0  0  0  0  0  0  0  0  0  0
  -28.0484   -1.9262   28.3294 F   0  0  0  0  0  0  0  0  0  0  0  0
  -22.0873   -0.9153   31.7801 C   0  0  0  0  0  0  0  0  0  0  0  0
  -22.8725   -1.5677   32.8405 C   0  0  0  0  0  0  0  0  0  0  0  0
  -24.2283   -1.4491   32.7473 N   0  0  0  0  0  0  0  0  0  0  0  0
  -24.3264   -0.6062   31.2211 C   0  0  0  0  0  0  0  0  0  0  0  0
  3  4  1  0
  4  8  1  0
  8  9  2  3
  9 10  1  0
 10 11  2  3
 11 12  1  0
 12 13  2  3
 13 14  1  0
 14 15  2  3
  8 16  1  0
 21 22  1  0
  1 23  1  0
 15 24  1  0
 24 25  2  0
 25 26  1  0
  7 27  1  0
 15 27  1  0
 26 27  1  0
  1  2  2  0
  2  5  1  0
  5  6  2  0
  6  7  1  0
  7  3  2  0
  3  1  1  0
 16 17  2  0
 17 18  1  0
 18 19  2  0
 19 20  1  0
 20 21  2  0
 21 16  1  0
M  END

$$$$
