No_3326-gen_results/8p0m/2024-11-26-14-13-15/
     RDKit          3D

  9  8  0  0  0  0  0  0  0  0999 V2000
  -27.9505   -0.5786   29.0402 P   0  0  0  0  0  0  0  0  0  0  0  0
  -27.2401    0.0613   28.4283 O   0  0  0  0  0  0  0  0  0  0  0  0
  -27.2444   -1.9817   29.3768 O   0  0  0  0  0  0  0  0  0  0  0  0
  -28.1843   -0.0275   30.5202 O   0  0  0  0  0  0  0  0  0  0  0  0
  -29.2570   -0.8162   28.4559 O   0  0  0  0  0  0  0  0  0  0  0  0
  -25.9279    0.2284   28.6832 C   0  0  0  0  0  0  0  0  0  0  0  0
  -25.1466    1.0470   27.7422 C   0  0  0  0  0  0  0  0  0  0  0  0
  -25.3039    1.7864   26.9699 C   0  0  0  0  0  0  0  0  0  0  0  0
  -26.7052    2.1762   26.7277 C   0  0  0  0  0  0  0  0  0  0  0  0
  1  2  1  0
  1  3  1  0
  1  4  2  0
  1  5  1  0
  2  6  1  0
  6  7  1  0
  7  8  2  3
  8  9  1  0
M  END

$$$$
