No_3160-gen_results/8p0m/2024-11-26-14-13-15/
     RDKit          3D

 27 29  0  0  0  0  0  0  0  0999 V2000
  -28.1229   -1.3353   28.4874 O   0  0  0  0  0  0  0  0  0  0  0  0
  -27.4806   -0.4044   28.7094 C   0  0  0  0  0  0  0  0  0  0  0  0
  -26.3804   -0.0867   27.9394 C   0  0  0  0  0  0  0  0  0  0  0  0
  -27.8993    0.6459   29.6321 N   0  0  0  0  0  0  0  0  0  0  0  0
  -25.1243   -0.5319   28.3714 C   0  0  0  0  0  0  0  0  0  0  0  0
  -24.8017   -1.7099   28.7916 C   0  0  0  0  0  0  0  0  0  0  0  0
  -23.4705   -2.1424   29.1411 C   0  0  0  0  0  0  0  0  0  0  0  0
  -22.4762   -1.2147   28.9743 C   0  0  0  0  0  0  0  0  0  0  0  0
  -22.6752    0.0939   28.5057 C   0  0  0  0  0  0  0  0  0  0  0  0
  -24.0344    0.4457   28.1999 C   0  0  0  0  0  0  0  0  0  0  0  0
  -27.2800    1.9028   29.8486 C   0  0  0  0  0  0  0  0  0  0  0  0
  -27.4039    2.2959   30.9499 C   0  0  0  0  0  0  0  0  0  0  0  0
  -26.6901    3.5702   31.3794 C   0  0  0  0  0  0  0  0  0  0  0  0
  -25.9704    4.2685   30.3698 C   0  0  0  0  0  0  0  0  0  0  0  0
  -25.8759    3.6839   29.1061 C   0  0  0  0  0  0  0  0  0  0  0  0
  -26.4952    2.4643   28.8581 C   0  0  0  0  0  0  0  0  0  0  0  0
  -24.9248    4.4761   27.9239 Cl  0  0  0  0  0  0  0  0  0  0  0  0
  -21.3734    1.1375   28.3590 Cl  0  0  0  0  0  0  0  0  0  0  0  0
  -29.2652    0.4567   30.0829 C   0  0  0  0  0  0  0  0  0  0  0  0
  -30.2772    0.8320   29.2274 C   0  0  0  0  0  0  0  0  0  0  0  0
  -31.3915    1.1065   29.3599 Cl  0  0  0  0  0  0  0  0  0  0  0  0
  -26.5649    0.2945   26.5527 C   0  0  0  0  0  0  0  0  0  0  0  0
  -27.8137    0.6615   26.0601 C   0  0  0  0  0  0  0  0  0  0  0  0
  -28.0129    1.0296   24.7725 C   0  0  0  0  0  0  0  0  0  0  0  0
  -25.5407    0.3192   25.6258 C   0  0  0  0  0  0  0  0  0  0  0  0
  -25.6531    0.4595   24.2757 C   0  0  0  0  0  0  0  0  0  0  0  0
  -26.9347    0.8560   23.9006 C   0  0  0  0  0  0  0  0  0  0  0  0
  1  2  2  0
  2  3  1  0
  2  4  1  0
  3  5  1  0
  4 11  1  0
 15 17  1  0
  9 18  1  0
  4 19  1  0
 19 20  1  0
 20 21  1  0
  3 22  1  0
 11 12  2  0
 12 13  1  0
 13 14  2  0
 14 15  1  0
 15 16  2  0
 16 11  1  0
  5  6  2  0
  6  7  1  0
  7  8  2  0
  8  9  1  0
  9 10  2  0
 10  5  1  0
 22 23  2  0
 23 24  1  0
 24 27  2  0
 27 26  1  0
 26 25  2  0
 25 22  1  0
M  END

$$$$
