No_3430-gen_results/8p0m/2024-11-26-14-13-15/
     RDKit          3D

 15 17  0  0  0  0  0  0  0  0999 V2000
  -28.0162   -0.8135   28.8779 C   0  0  0  0  0  0  0  0  0  0  0  0
  -27.0636   -0.1190   28.6079 C   0  0  0  0  0  0  0  0  0  0  0  0
  -25.7923   -0.4302   29.0761 C   0  0  0  0  0  0  0  0  0  0  0  0
  -24.5456    0.3494   28.8225 C   0  0  0  0  0  0  0  0  0  0  0  0
  -24.6586    1.4196   27.8878 C   0  0  0  0  0  0  0  0  0  0  0  0
  -25.9471    1.6811   27.3792 C   0  0  0  0  0  0  0  0  0  0  0  0
  -27.0439    0.9739   27.6871 C   0  0  0  0  0  0  0  0  0  0  0  0
  -29.2364   -0.0611   29.2668 C   0  0  0  0  0  0  0  0  0  0  0  0
  -29.8797    0.4538   28.2073 C   0  0  0  0  0  0  0  0  0  0  0  0
  -29.4037    1.4347   27.2615 C   0  0  0  0  0  0  0  0  0  0  0  0
  -28.2335    1.6617   27.1376 C   0  0  0  0  0  0  0  0  0  0  0  0
  -23.4287    2.1019   27.5570 C   0  0  0  0  0  0  0  0  0  0  0  0
  -22.2449    1.7054   28.0765 N   0  0  0  0  0  0  0  0  0  0  0  0
  -22.1702    0.6416   28.9480 C   0  0  0  0  0  0  0  0  0  0  0  0
  -23.2882   -0.0978   29.3237 C   0  0  0  0  0  0  0  0  0  0  0  0
  1  2  1  0
  1  8  1  0
  8  9  2  0
  9 10  1  0
  7 11  1  0
 10 11  2  0
  2  3  2  0
  3  4  1  0
  5  6  1  0
  6  7  2  0
  7  2  1  0
  4  5  2  0
  5 12  1  0
 12 13  2  0
 13 14  1  0
 14 15  2  0
 15  4  1  0
M  END

$$$$
