No_3425-gen_results/8p0m/2024-11-26-14-13-15/
     RDKit          3D

 32 35  0  0  0  0  0  0  0  0999 V2000
  -28.0162   -0.8135   28.8779 C   0  0  0  0  0  0  0  0  0  0  0  0
  -28.4690   -0.7850   29.8287 C   0  0  0  0  0  0  0  0  0  0  0  0
  -28.1816    0.4277   28.1134 C   0  0  0  0  0  0  0  0  0  0  0  0
  -27.4498    0.6435   26.8500 C   0  0  0  0  0  0  0  0  0  0  0  0
  -27.8596    1.4573   25.9076 C   0  0  0  0  0  0  0  0  0  0  0  0
  -29.4263    0.1097   30.4178 C   0  0  0  0  0  0  0  0  0  0  0  0
  -29.6233    1.2198   29.7351 C   0  0  0  0  0  0  0  0  0  0  0  0
  -28.9609    1.4529   28.5513 C   0  0  0  0  0  0  0  0  0  0  0  0
  -28.7869    2.5467   26.3167 C   0  0  0  0  0  0  0  0  0  0  0  0
  -29.4265    2.4288   27.5639 C   0  0  0  0  0  0  0  0  0  0  0  0
  -26.5515   -0.2951   26.4177 O   0  0  0  0  0  0  0  0  0  0  0  0
  -25.7312    0.1908   25.4679 C   0  0  0  0  0  0  0  0  0  0  0  0
  -28.1978   -2.3241   30.9634 S   0  0  0  0  0  0  0  0  0  0  0  0
  -27.0803   -2.8428   30.5061 O   0  0  0  0  0  0  0  0  0  0  0  0
  -29.5154   -3.2080   30.6988 N   0  0  0  0  0  0  0  0  0  0  0  0
  -28.1833   -1.7804   32.3079 O   0  0  0  0  0  0  0  0  0  0  0  0
  -29.3508   -4.5233   30.4527 C   0  0  0  0  0  0  0  0  0  0  0  0
  -30.5986   -5.1203   29.9211 C   0  0  0  0  0  0  0  0  0  0  0  0
  -31.7510   -4.4837   30.2715 C   0  0  0  0  0  0  0  0  0  0  0  0
  -31.7699   -3.0761   30.3957 C   0  0  0  0  0  0  0  0  0  0  0  0
  -30.6801   -2.5226   30.8116 C   0  0  0  0  0  0  0  0  0  0  0  0
  -33.0120   -2.5972   31.1323 C   0  0  0  0  0  0  0  0  0  0  0  0
  -33.4001   -1.2838   30.9079 C   0  0  0  0  0  0  0  0  0  0  0  0
  -32.7760   -0.4961   30.0036 C   0  0  0  0  0  0  0  0  0  0  0  0
  -33.4222   -0.0952   28.9497 C   0  0  0  0  0  0  0  0  0  0  0  0
  -32.7586    0.5771   27.8205 C   0  0  0  0  0  0  0  0  0  0  0  0
  -32.7519    0.4700   26.7022 C   0  0  0  0  0  0  0  0  0  0  0  0
  -33.5554   -0.5151   26.1523 C   0  0  0  0  0  0  0  0  0  0  0  0
  -34.4624   -1.1680   27.0276 C   0  0  0  0  0  0  0  0  0  0  0  0
  -34.7935   -0.2112   28.6982 C   0  0  0  0  0  0  0  0  0  0  0  0
  -32.9104   -5.3375   30.2690 C   0  0  0  0  0  0  0  0  0  0  0  0
  -33.9474   -4.9879   30.8537 O   0  0  0  0  0  0  0  0  0  0  0  0
  4 11  1  0
 11 12  1  0
  2 13  1  0
 13 14  2  0
 13 15  1  0
 13 16  2  0
 15 17  1  0
 17 18  1  0
 18 19  1  0
 19 20  1  0
 15 21  1  0
 20 21  1  0
 20 22  1  0
 22 23  2  3
 23 24  1  0
 24 25  1  0
 19 31  1  0
 31 32  2  0
 25 26  2  0
 26 27  1  0
 27 28  2  0
 28 29  1  0
 29 30  2  0
 30 25  1  0
  3  4  2  0
  4  5  1  0
  5  9  2  0
  9 10  1  0
 10  8  2  0
  1  2  2  0
  2  6  1  0
  6  7  2  0
  7  8  1  0
  8  3  1  0
  3  1  1  0
M  END

$$$$
