No_3644-gen_results/8p0m/2024-11-26-14-13-15/
     RDKit          3D

 19 20  0  0  0  0  0  0  0  0999 V2000
  -28.0162   -0.8135   28.8779 C   0  0  0  0  0  0  0  0  0  0  0  0
  -28.4690   -0.7850   29.8287 C   0  0  0  0  0  0  0  0  0  0  0  0
  -28.3026    0.2475   28.0344 N   0  0  0  0  0  0  0  0  0  0  0  0
  -29.5669    0.6259   27.7714 C   0  0  0  0  0  0  0  0  0  0  0  0
  -30.0167   -0.7032   29.9032 C   0  0  0  0  0  0  0  0  0  0  0  0
  -30.3548    0.3995   29.0137 N   0  0  0  0  0  0  0  0  0  0  0  0
  -27.3412    0.4137   26.8682 C   0  0  0  0  0  0  0  0  0  0  0  0
  -26.2997    1.4342   27.2248 C   0  0  0  0  0  0  0  0  0  0  0  0
  -25.1548    1.4907   26.4586 C   0  0  0  0  0  0  0  0  0  0  0  0
  -24.0234    2.2936   26.8467 C   0  0  0  0  0  0  0  0  0  0  0  0
  -23.6395    2.4371   27.8672 C   0  0  0  0  0  0  0  0  0  0  0  0
  -24.7260    2.3219   28.9143 C   0  0  0  0  0  0  0  0  0  0  0  0
  -25.7325    1.2394   28.7461 C   0  0  0  0  0  0  0  0  0  0  0  0
  -31.6312    1.0525   29.1491 C   0  0  0  0  0  0  0  0  0  0  0  0
  -29.9218    1.3165   26.9407 O   0  0  0  0  0  0  0  0  0  0  0  0
  -25.3674    3.5457   29.1124 O   0  0  0  0  0  0  0  0  0  0  0  0
  -25.9954    4.2243   28.5071 C   0  0  0  0  0  0  0  0  0  0  0  0
  -25.9965    5.4460   28.8607 C   0  0  0  0  0  0  0  0  0  0  0  0
  -26.4863    6.5021   27.9779 C   0  0  0  0  0  0  0  0  0  0  0  0
  1  2  1  0
  1  3  1  0
  3  4  1  0
  2  5  1  0
  4  6  1  0
  5  6  1  0
  3  7  1  0
  7  8  1  0
  6 14  1  0
  4 15  2  0
 12 16  1  0
 16 17  1  0
 17 18  2  3
 18 19  1  0
  8  9  2  0
  9 10  1  0
 10 11  2  0
 11 12  1  0
 12 13  2  0
 13  8  1  0
M  END

$$$$
