No_3010-gen_results/8p0m/2024-11-26-14-13-15/
     RDKit          3D

 17 17  0  0  0  0  0  0  0  0999 V2000
  -28.0162   -0.8135   28.8779 C   0  0  0  0  0  0  0  0  0  0  0  0
  -27.0636   -0.1189   28.6079 C   0  0  0  0  0  0  0  0  0  0  0  0
  -27.0010    0.6913   27.4910 C   0  0  0  0  0  0  0  0  0  0  0  0
  -28.1373    0.7363   26.6350 C   0  0  0  0  0  0  0  0  0  0  0  0
  -29.2360    0.0765   27.0690 C   0  0  0  0  0  0  0  0  0  0  0  0
  -29.2177   -0.6429   28.1747 C   0  0  0  0  0  0  0  0  0  0  0  0
  -28.0030   -1.6604   30.1266 C   0  0  0  0  0  0  0  0  0  0  0  0
  -27.0889   -2.4896   30.1569 F   0  0  0  0  0  0  0  0  0  0  0  0
  -27.8657   -0.9743   31.2790 F   0  0  0  0  0  0  0  0  0  0  0  0
  -29.2052   -2.3237   30.2617 F   0  0  0  0  0  0  0  0  0  0  0  0
  -30.3141    0.1498   26.2918 F   0  0  0  0  0  0  0  0  0  0  0  0
  -25.7197    1.4001   27.0907 C   0  0  0  0  0  0  0  0  0  0  0  0
  -24.4147    1.0743   27.9791 P   0  0  0  0  0  0  0  0  0  0  0  0
  -23.2504    1.7514   27.3472 O   0  0  0  0  0  0  0  0  0  0  0  0
  -24.5505    1.7711   29.3231 O   0  0  0  0  0  0  0  0  0  0  0  0
  -24.1477   -0.3794   28.1046 O   0  0  0  0  0  0  0  0  0  0  0  0
  -24.0108    1.5838   30.3447 Br  0  0  0  0  0  0  0  0  0  0  0  0
  1  7  1  0
  7  8  1  0
  7  9  1  0
  7 10  1  0
  5 11  1  0
  3 12  1  0
 12 13  1  0
 13 14  2  0
 13 15  1  0
 13 16  1  0
 15 17  1  0
  1  2  2  0
  2  3  1  0
  3  4  2  0
  4  5  1  0
  5  6  2  0
  6  1  1  0
M  END

$$$$
