No_3146-gen_results/8p0m/2024-11-26-14-13-15/
     RDKit          3D

 35 38  0  0  0  0  0  0  0  0999 V2000
  -28.0162   -0.8135   28.8779 C   0  0  0  0  0  0  0  0  0  0  0  0
  -27.0636   -0.1190   28.6079 C   0  0  0  0  0  0  0  0  0  0  0  0
  -26.9716    0.7139   27.5060 C   0  0  0  0  0  0  0  0  0  0  0  0
  -28.1053    0.7744   26.6421 C   0  0  0  0  0  0  0  0  0  0  0  0
  -29.2041    0.1179   27.0477 C   0  0  0  0  0  0  0  0  0  0  0  0
  -29.2127   -0.6088   28.1281 C   0  0  0  0  0  0  0  0  0  0  0  0
  -25.7106    1.4518   27.1380 C   0  0  0  0  0  0  0  0  0  0  0  0
  -24.6052    0.9253   27.6902 C   0  0  0  0  0  0  0  0  0  0  0  0
  -24.6227    0.0600   28.8225 C   0  0  0  0  0  0  0  0  0  0  0  0
  -25.7269   -0.4734   29.2409 C   0  0  0  0  0  0  0  0  0  0  0  0
  -23.2721    1.6772   27.4377 C   0  0  0  0  0  0  0  0  0  0  0  0
  -23.2292    2.8472   26.7155 C   0  0  0  0  0  0  0  0  0  0  0  0
  -24.5298    3.2387   26.0170 C   0  0  0  0  0  0  0  0  0  0  0  0
  -25.7142    2.5251   26.3002 C   0  0  0  0  0  0  0  0  0  0  0  0
  -22.0058    1.2993   28.0969 C   0  0  0  0  0  0  0  0  0  0  0  0
  -21.9337    0.2789   28.8480 O   0  0  0  0  0  0  0  0  0  0  0  0
  -20.9628    1.9670   27.7452 O   0  0  0  0  0  0  0  0  0  0  0  0
  -30.4170    0.3122   26.2216 C   0  0  0  0  0  0  0  0  0  0  0  0
  -30.5668   -0.4507   25.2451 O   0  0  0  0  0  0  0  0  0  0  0  0
  -31.3250    1.1545   26.5075 O   0  0  0  0  0  0  0  0  0  0  0  0
  -25.7637   -1.5092   30.3122 C   0  0  0  0  0  0  0  0  0  0  0  0
  -26.2327   -1.3112   31.3474 O   0  0  0  0  0  0  0  0  0  0  0  0
  -25.2835   -2.6736   29.9187 O   0  0  0  0  0  0  0  0  0  0  0  0
  -26.1041   -3.7688   29.5505 C   0  0  0  0  0  0  0  0  0  0  0  0
  -25.3693   -4.9804   29.3096 C   0  0  0  0  0  0  0  0  0  0  0  0
  -27.4110   -3.8386   29.9929 C   0  0  0  0  0  0  0  0  0  0  0  0
  -28.1665   -5.0357   29.9241 C   0  0  0  0  0  0  0  0  0  0  0  0
  -29.4970   -4.9176   30.4298 C   0  0  0  0  0  0  0  0  0  0  0  0
  -30.4329   -5.8238   30.0642 C   0  0  0  0  0  0  0  0  0  0  0  0
  -31.8218   -5.7231   30.4791 C   0  0  0  0  0  0  0  0  0  0  0  0
  -32.1822   -4.6520   31.3317 C   0  0  0  0  0  0  0  0  0  0  0  0
  -31.2254   -3.7736   31.7634 C   0  0  0  0  0  0  0  0  0  0  0  0
  -29.9202   -3.8478   31.3403 C   0  0  0  0  0  0  0  0  0  0  0  0
  -32.7629   -6.6285   30.0028 C   0  0  0  0  0  0  0  0  0  0  0  0
  -32.5255   -7.4035   29.1586 C   0  0  0  0  0  0  0  0  0  0  0  0
 11 15  1  0
 15 16  2  0
 15 17  1  0
  5 18  1  0
 18 19  2  0
 18 20  1  0
 10 21  1  0
 21 22  2  0
 21 23  1  0
 23 24  1  0
 24 25  1  0
 24 26  1  0
 26 27  2  3
 27 28  1  0
 30 34  1  0
 34 35  2  0
 28 29  2  0
 29 30  1  0
 30 31  2  0
 31 32  1  0
 32 33  2  0
 33 28  1  0
  1  2  2  0
  3  4  2  0
  4  5  1  0
  5  6  2  0
  6  1  1  0
  8 11  2  0
 11 12  1  0
 12 13  2  0
 13 14  1  0
 14  7  2  0
  2  3  1  0
  3  7  1  0
  7  8  1  0
  8  9  1  0
  9 10  2  0
 10  2  1  0
M  END

$$$$
