No_3997-gen_results/8p0m/2024-11-26-14-13-15/
     RDKit          3D

 19 19  0  0  0  0  0  0  0  0999 V2000
  -28.1493   -0.8198   28.9079 Cl  0  0  0  0  0  0  0  0  0  0  0  0
  -28.5324   -0.0471   29.7727 C   0  0  0  0  0  0  0  0  0  0  0  0
  -27.6515    0.7172   30.3086 F   0  0  0  0  0  0  0  0  0  0  0  0
  -29.6789    0.8470   29.3357 C   0  0  0  0  0  0  0  0  0  0  0  0
  -28.9713   -0.6705   31.0034 F   0  0  0  0  0  0  0  0  0  0  0  0
  -30.2598    1.4925   29.9812 N   0  0  0  0  0  0  0  0  0  0  0  0
  -29.9527    0.7697   27.8915 C   0  0  0  0  0  0  0  0  0  0  0  0
  -29.1712    1.4694   26.9915 C   0  0  0  0  0  0  0  0  0  0  0  0
  -28.1087    2.1356   27.4445 C   0  0  0  0  0  0  0  0  0  0  0  0
  -27.1391    2.7528   26.4795 C   0  0  0  0  0  0  0  0  0  0  0  0
  -27.4457    2.5379   25.0925 C   0  0  0  0  0  0  0  0  0  0  0  0
  -28.4712    1.8708   24.6500 C   0  0  0  0  0  0  0  0  0  0  0  0
  -29.2957    1.2613   25.5895 C   0  0  0  0  0  0  0  0  0  0  0  0
  -30.9696    0.0758   27.5025 O   0  0  0  0  0  0  0  0  0  0  0  0
  -30.7314    2.5110   30.1861 C   0  0  0  0  0  0  0  0  0  0  0  0
  -30.5322    3.5199   29.3269 C   0  0  0  0  0  0  0  0  0  0  0  0
  -29.9066    4.6034   29.5100 C   0  0  0  0  0  0  0  0  0  0  0  0
  -29.4313    4.8536   30.8646 C   0  0  0  0  0  0  0  0  0  0  0  0
  -28.6539    5.9840   31.1990 C   0  0  0  0  0  0  0  0  0  0  0  0
  1  2  1  0
  2  3  1  0
  2  4  1  0
  2  5  1  0
  4  6  2  3
  4  7  1  0
  7  8  1  0
  7 14  2  0
  6 15  1  0
 15 16  1  0
 16 17  1  0
 17 18  2  3
 18 19  1  0
  8  9  2  0
  9 10  1  0
 10 11  2  0
 11 12  1  0
 12 13  2  0
 13  8  1  0
M  END

$$$$
