No_3654-gen_results/8p0m/2024-11-26-14-13-15/
     RDKit          3D

 11 11  0  0  0  0  0  0  0  0999 V2000
  -28.1493   -0.8198   28.9079 Cl  0  0  0  0  0  0  0  0  0  0  0  0
  -27.8339    0.4961   29.0598 C   0  0  0  0  0  0  0  0  0  0  0  0
  -27.7903    1.1418   28.0451 F   0  0  0  0  0  0  0  0  0  0  0  0
  -28.6323    1.2373   30.1065 C   0  0  0  0  0  0  0  0  0  0  0  0
  -26.5233    0.5319   29.5428 F   0  0  0  0  0  0  0  0  0  0  0  0
  -28.9103    2.3709   29.9539 C   0  0  0  0  0  0  0  0  0  0  0  0
  -29.6960    3.1653   29.8945 C   0  0  0  0  0  0  0  0  0  0  0  0
  -30.0400    4.2622   29.6968 C   0  0  0  0  0  0  0  0  0  0  0  0
  -28.9022    5.1879   29.3697 C   0  0  0  0  0  0  0  0  0  0  0  0
  -27.6419    4.5407   29.3144 C   0  0  0  0  0  0  0  0  0  0  0  0
  -27.5710    3.2071   29.5954 C   0  0  0  0  0  0  0  0  0  0  0  0
  1  2  1  0
  2  3  1  0
  2  4  1  0
  2  5  1  0
  4  6  1  0
  6  7  2  0
  7  8  1  0
  8  9  2  0
  9 10  1  0
 10 11  2  0
 11  6  1  0
M  END

$$$$
