No_3670-gen_results/8p0m/2024-11-26-14-13-15/
     RDKit          3D

 17 19  0  0  0  0  0  0  0  0999 V2000
  -28.0162   -0.8135   28.8779 C   0  0  0  0  0  0  0  0  0  0  0  0
  -27.0636   -0.1189   28.6079 C   0  0  0  0  0  0  0  0  0  0  0  0
  -27.0010    0.6913   27.4910 C   0  0  0  0  0  0  0  0  0  0  0  0
  -28.1373    0.7363   26.6350 C   0  0  0  0  0  0  0  0  0  0  0  0
  -29.2360    0.0765   27.0690 C   0  0  0  0  0  0  0  0  0  0  0  0
  -29.2177   -0.6429   28.1747 C   0  0  0  0  0  0  0  0  0  0  0  0
  -30.4152    0.1590   26.1820 C   0  0  0  0  0  0  0  0  0  0  0  0
  -31.3727   -0.5052   26.4854 N   0  0  0  0  0  0  0  0  0  0  0  0
  -30.3727    0.9171   24.9425 C   0  0  0  0  0  0  0  0  0  0  0  0
  -25.8844   -0.2978   29.5952 C   0  0  0  0  0  0  0  0  0  0  0  0
  -25.1393    0.6952   30.0252 C   0  0  0  0  0  0  0  0  0  0  0  0
  -23.9319    0.4985   30.7924 C   0  0  0  0  0  0  0  0  0  0  0  0
  -23.6150   -0.8413   31.1403 C   0  0  0  0  0  0  0  0  0  0  0  0
  -25.4053   -1.6375   29.8692 C   0  0  0  0  0  0  0  0  0  0  0  0
  -24.3115   -1.8524   30.6230 C   0  0  0  0  0  0  0  0  0  0  0  0
  -31.6974   -1.1749   27.4588 C   0  0  0  0  0  0  0  0  0  0  0  0
  -30.7214   -1.2639   28.4082 N   0  0  0  0  0  0  0  0  0  0  0  0
  7  9  1  0
  2 10  1  0
  1  2  2  0
  2  3  1  0
  3  4  2  0
  4  5  1  0
  6  1  1  0
  5  6  2  0
  6 17  1  0
 17 16  2  0
 16  8  1  0
  8  7  2  0
  7  5  1  0
 10 11  2  0
 11 12  1  0
 12 13  2  0
 13 15  1  0
 15 14  2  0
 14 10  1  0
M  END

$$$$
