No_3817-gen_results/8p0m/2024-11-26-14-13-15/
     RDKit          3D

 19 20  0  0  0  0  0  0  0  0999 V2000
  -28.0162   -0.8135   28.8779 C   0  0  0  0  0  0  0  0  0  0  0  0
  -27.0636   -0.1190   28.6079 C   0  0  0  0  0  0  0  0  0  0  0  0
  -26.9287    1.1713   29.0083 C   0  0  0  0  0  0  0  0  0  0  0  0
  -25.7702    2.0341   28.6884 C   0  0  0  0  0  0  0  0  0  0  0  0
  -24.7141    1.4431   27.9188 C   0  0  0  0  0  0  0  0  0  0  0  0
  -24.8590    0.0783   27.5836 C   0  0  0  0  0  0  0  0  0  0  0  0
  -25.9647   -0.6606   27.9164 C   0  0  0  0  0  0  0  0  0  0  0  0
  -27.9820   -1.6112   30.1028 N   0  0  0  0  0  0  0  0  0  0  0  0
  -23.5351    2.1704   27.5550 C   0  0  0  0  0  0  0  0  0  0  0  0
  -22.6455    1.5740   27.1506 F   0  0  0  0  0  0  0  0  0  0  0  0
  -23.0609    2.8934   28.6474 F   0  0  0  0  0  0  0  0  0  0  0  0
  -23.8997    3.1900   26.7043 F   0  0  0  0  0  0  0  0  0  0  0  0
  -29.2056   -0.5663   28.5128 O   0  0  0  0  0  0  0  0  0  0  0  0
  -29.0477   -2.4990   30.5761 C   0  0  0  0  0  0  0  0  0  0  0  0
  -26.6853   -2.3463   30.2876 C   0  0  0  0  0  0  0  0  0  0  0  0
  -28.8511   -3.7603   30.7683 C   0  0  0  0  0  0  0  0  0  0  0  0
  -30.1846   -4.4998   31.5968 Cl  0  0  0  0  0  0  0  0  0  0  0  0
  -27.7154   -4.4866   30.9408 C   0  0  0  0  0  0  0  0  0  0  0  0
  -26.5833   -3.7072   30.4446 C   0  0  0  0  0  0  0  0  0  0  0  0
  1  2  1  0
  1  8  1  0
  5  9  1  0
  9 10  1  0
  9 11  1  0
  9 12  1  0
  1 13  2  0
  8 14  1  0
  8 15  1  0
 16 17  1  0
 16 18  1  0
 14 16  1  0
 18 19  1  0
 19 15  1  0
  2  3  2  0
  3  4  1  0
  4  5  2  0
  5  6  1  0
  6  7  2  0
  7  2  1  0
M  END

$$$$
