No_3304-gen_results/8p0m/2024-11-26-14-13-15/
     RDKit          3D

 12 13  0  0  0  0  0  0  0  0999 V2000
  -28.0544   -1.0498   28.7246 N   0  0  0  0  0  0  0  0  0  0  0  0
  -27.7460   -0.0733   29.0098 C   0  0  0  0  0  0  0  0  0  0  0  0
  -27.1741    0.7325   28.8254 C   0  0  0  0  0  0  0  0  0  0  0  0
  -26.2627    0.6359   27.6462 C   0  0  0  0  0  0  0  0  0  0  0  0
  -26.3245   -0.5476   27.0542 C   0  0  0  0  0  0  0  0  0  0  0  0
  -27.1124   -1.4590   27.5802 C   0  0  0  0  0  0  0  0  0  0  0  0
  -28.6841    0.1561   30.3239 N   0  0  0  0  0  0  0  0  0  0  0  0
  -29.3604   -0.2985   30.9142 C   0  0  0  0  0  0  0  0  0  0  0  0
  -30.0255    0.1754   32.0815 C   0  0  0  0  0  0  0  0  0  0  0  0
  -29.5948    1.4552   32.3416 C   0  0  0  0  0  0  0  0  0  0  0  0
  -28.7298    2.1949   31.7456 C   0  0  0  0  0  0  0  0  0  0  0  0
  -28.1318    1.5925   30.6604 C   0  0  0  0  0  0  0  0  0  0  0  0
  2  7  1  0
  7  8  1  0
  9 10  1  0
  7 12  1  0
 11 12  1  0
  8  9  1  0
 10 11  1  0
  1  2  2  0
  2  3  1  0
  3  4  2  0
  4  5  1  0
  5  6  2  0
  6  1  1  0
M  END

$$$$
