No_3035-gen_results/8p0m/2024-11-26-14-13-15/
     RDKit          3D

 10 10  0  0  0  0  0  0  0  0999 V2000
  -28.0544   -1.0498   28.7246 N   0  0  0  0  0  0  0  0  0  0  0  0
  -27.7460   -0.0733   29.0098 C   0  0  0  0  0  0  0  0  0  0  0  0
  -27.1737    0.7565   28.1070 C   0  0  0  0  0  0  0  0  0  0  0  0
  -27.3702    0.6013   26.8571 C   0  0  0  0  0  0  0  0  0  0  0  0
  -26.2615    0.5988   25.9991 C   0  0  0  0  0  0  0  0  0  0  0  0
  -24.9893    1.0562   26.4194 C   0  0  0  0  0  0  0  0  0  0  0  0
  -24.8052    1.4679   27.7143 C   0  0  0  0  0  0  0  0  0  0  0  0
  -25.8567    1.1927   28.6204 C   0  0  0  0  0  0  0  0  0  0  0  0
  -28.6212   -1.9795   29.7886 C   0  0  0  0  0  0  0  0  0  0  0  0
  -28.7866   -3.1644   29.6205 O   0  0  0  0  0  0  0  0  0  0  0  0
  1  2  1  0
  2  3  1  0
  1  9  2  0
  9 10  2  0
  3  4  2  0
  4  5  1  0
  5  6  2  0
  6  7  1  0
  7  8  2  0
  8  3  1  0
M  END

$$$$
