No_3354-gen_results/8p0m/2024-11-26-14-13-15/
     RDKit          3D

 33 37  0  0  0  0  0  0  0  0999 V2000
  -28.0162   -0.8135   28.8779 C   0  0  0  0  0  0  0  0  0  0  0  0
  -27.0636   -0.1190   28.6079 C   0  0  0  0  0  0  0  0  0  0  0  0
  -25.7647   -0.3897   29.0360 C   0  0  0  0  0  0  0  0  0  0  0  0
  -25.5296   -1.5302   29.9014 C   0  0  0  0  0  0  0  0  0  0  0  0
  -26.6577   -2.2915   30.2035 C   0  0  0  0  0  0  0  0  0  0  0  0
  -27.8548   -1.9555   29.7630 C   0  0  0  0  0  0  0  0  0  0  0  0
  -24.5441    0.4126   28.7379 C   0  0  0  0  0  0  0  0  0  0  0  0
  -24.4533    1.2007   27.7812 N   0  0  0  0  0  0  0  0  0  0  0  0
  -23.3447    1.8026   27.3929 C   0  0  0  0  0  0  0  0  0  0  0  0
  -23.2775    2.6968   26.3611 N   0  0  0  0  0  0  0  0  0  0  0  0
  -22.1411    1.5158   27.9613 N   0  0  0  0  0  0  0  0  0  0  0  0
  -23.2964    0.0511   29.4817 C   0  0  0  0  0  0  0  0  0  0  0  0
  -22.0523    0.7691   29.0117 C   0  0  0  0  0  0  0  0  0  0  0  0
  -29.0249   -2.7887   30.1556 C   0  0  0  0  0  0  0  0  0  0  0  0
  -30.1499   -2.3548   30.1571 N   0  0  0  0  0  0  0  0  0  0  0  0
  -28.7809   -3.8771   30.8208 O   0  0  0  0  0  0  0  0  0  0  0  0
  -31.3685   -3.1002   30.5434 C   0  0  0  0  0  0  0  0  0  0  0  0
  -32.3541   -2.6665   30.6708 C   0  0  0  0  0  0  0  0  0  0  0  0
  -32.4587   -1.2640   30.7624 C   0  0  0  0  0  0  0  0  0  0  0  0
  -31.4238   -0.4070   30.3961 C   0  0  0  0  0  0  0  0  0  0  0  0
  -30.3067   -0.9254   30.2090 C   0  0  0  0  0  0  0  0  0  0  0  0
  -31.6616    1.0742   30.4165 C   0  0  0  0  0  0  0  0  0  0  0  0
  -32.4840    1.6748   30.7365 C   0  0  0  0  0  0  0  0  0  0  0  0
  -32.8132    2.7992   30.8709 C   0  0  0  0  0  0  0  0  0  0  0  0
  -31.7916    3.7449   30.3559 C   0  0  0  0  0  0  0  0  0  0  0  0
  -30.4669    1.8519   29.9612 C   0  0  0  0  0  0  0  0  0  0  0  0
  -30.6028    3.2119   29.9478 C   0  0  0  0  0  0  0  0  0  0  0  0
  -29.6687    4.1159   29.3320 C   0  0  0  0  0  0  0  0  0  0  0  0
  -28.7196    4.5693   29.9710 C   0  0  0  0  0  0  0  0  0  0  0  0
  -27.6557    5.4075   29.3683 C   0  0  0  0  0  0  0  0  0  0  0  0
  -27.6224    5.5234   27.9917 C   0  0  0  0  0  0  0  0  0  0  0  0
  -29.6440    4.2051   27.8999 C   0  0  0  0  0  0  0  0  0  0  0  0
  -28.6387    4.9368   27.2957 C   0  0  0  0  0  0  0  0  0  0  0  0
  3  7  1  0
  9 10  1  0
  6 14  1  0
 14 15  1  0
 14 16  2  0
 15 17  1  0
 18 19  1  0
 15 21  1  0
 20 21  1  0
 20 22  1  0
 27 28  1  0
 17 18  1  0
 19 20  1  0
  1  2  2  0
  2  3  1  0
  3  4  2  0
  4  5  1  0
  5  6  2  0
  6  1  1  0
 28 29  2  0
 29 30  1  0
 30 31  2  0
 31 33  1  0
 33 32  2  0
 32 28  1  0
  7  8  2  0
  8  9  1  0
  9 11  2  0
 11 13  1  0
 13 12  2  0
 12  7  1  0
 22 23  2  0
 23 24  1  0
 24 25  2  0
 25 27  1  0
 27 26  2  0
 26 22  1  0
M  END

$$$$
