No_3202-gen_results/8p0m/2024-11-26-14-13-15/
     RDKit          3D

 32 36  0  0  0  0  0  0  0  0999 V2000
  -28.0162   -0.8135   28.8779 C   0  0  0  0  0  0  0  0  0  0  0  0
  -28.4690   -0.7850   29.8287 C   0  0  0  0  0  0  0  0  0  0  0  0
  -26.5042   -0.7777   28.8766 C   0  0  0  0  0  0  0  0  0  0  0  0
  -25.6540   -0.6597   27.7191 C   0  0  0  0  0  0  0  0  0  0  0  0
  -27.9180   -0.9374   31.1824 C   0  0  0  0  0  0  0  0  0  0  0  0
  -26.5423   -0.9399   31.2606 C   0  0  0  0  0  0  0  0  0  0  0  0
  -25.7832   -0.8935   30.1201 C   0  0  0  0  0  0  0  0  0  0  0  0
  -24.3096   -0.3015   27.8531 C   0  0  0  0  0  0  0  0  0  0  0  0
  -23.6669   -0.4595   29.0986 C   0  0  0  0  0  0  0  0  0  0  0  0
  -24.3700   -0.6645   30.2027 C   0  0  0  0  0  0  0  0  0  0  0  0
  -22.1946   -0.2290   29.1314 C   0  0  0  0  0  0  0  0  0  0  0  0
  -21.2882    0.5665   28.7715 N   0  0  0  0  0  0  0  0  0  0  0  0
  -21.6347   -1.3705   29.7205 O   0  0  0  0  0  0  0  0  0  0  0  0
  -30.0671   -0.8830   29.8766 C   0  0  0  0  0  0  0  0  0  0  0  0
  -30.5404   -0.3010   29.0150 O   0  0  0  0  0  0  0  0  0  0  0  0
  -30.7271   -1.4670   30.8093 O   0  0  0  0  0  0  0  0  0  0  0  0
  -21.6429    1.7364   27.9738 C   0  0  0  0  0  0  0  0  0  0  0  0
  -31.8012    0.2001   28.9426 C   0  0  0  0  0  0  0  0  0  0  0  0
  -32.2370    0.3996   27.8169 C   0  0  0  0  0  0  0  0  0  0  0  0
  -31.5086    0.2885   26.6637 C   0  0  0  0  0  0  0  0  0  0  0  0
  -31.4897    0.8090   25.6227 C   0  0  0  0  0  0  0  0  0  0  0  0
  -30.6511    0.5029   24.3750 C   0  0  0  0  0  0  0  0  0  0  0  0
  -29.7374   -0.5719   24.5209 C   0  0  0  0  0  0  0  0  0  0  0  0
  -29.8470   -1.3444   25.6218 C   0  0  0  0  0  0  0  0  0  0  0  0
  -30.6060   -0.9831   26.6470 C   0  0  0  0  0  0  0  0  0  0  0  0
  -32.8450    1.8196   27.5313 C   0  0  0  0  0  0  0  0  0  0  0  0
  -33.6605    2.2798   28.5682 C   0  0  0  0  0  0  0  0  0  0  0  0
  -34.3309    3.5176   28.4528 C   0  0  0  0  0  0  0  0  0  0  0  0
  -34.1900    4.1692   27.2075 C   0  0  0  0  0  0  0  0  0  0  0  0
  -33.4097    3.7065   26.2003 C   0  0  0  0  0  0  0  0  0  0  0  0
  -32.7122    2.4875   26.3774 C   0  0  0  0  0  0  0  0  0  0  0  0
  -31.9642    2.0195   25.3406 C   0  0  0  0  0  0  0  0  0  0  0  0
  9 11  1  0
 11 12  1  0
 11 13  2  0
  2 14  1  0
 14 15  1  0
 14 16  2  0
 12 17  1  0
 15 18  1  0
 18 19  1  0
  1  2  2  0
  2  5  1  0
  5  6  2  0
  6  7  1  0
  3  1  1  0
 19 20  1  0
 21 32  1  0
 32 31  2  0
 26 19  2  0
 20 21  1  0
 21 22  2  0
 22 23  1  0
 23 24  2  0
 24 25  1  0
 25 20  2  0
  3  4  2  0
  4  8  1  0
  8  9  2  0
  9 10  1  0
 10  7  2  0
  7  3  1  0
 26 27  1  0
 27 28  2  0
 28 29  1  0
 29 30  2  0
 30 31  1  0
 31 26  1  0
M  END

$$$$
