No_3148-gen_results/8p0m/2024-11-26-14-13-15/
     RDKit          3D

  5  4  0  0  0  0  0  0  0  0999 V2000
  -27.9505   -0.5786   29.0402 P   0  0  0  0  0  0  0  0  0  0  0  0
  -27.2401    0.0613   28.4283 O   0  0  0  0  0  0  0  0  0  0  0  0
  -27.2819   -1.9675   29.2787 O   0  0  0  0  0  0  0  0  0  0  0  0
  -29.3034   -0.8356   28.4094 O   0  0  0  0  0  0  0  0  0  0  0  0
  -28.2448    0.0132   30.5212 O   0  0  0  0  0  0  0  0  0  0  0  0
  1  2  2  0
  1  3  1  0
  1  4  1  0
  1  5  1  0
M  END

$$$$
