No_3994-gen_results/8p0m/2024-11-26-14-13-15/
     RDKit          3D

 17 17  0  0  0  0  0  0  0  0999 V2000
  -28.0162   -0.8135   28.8779 C   0  0  0  0  0  0  0  0  0  0  0  0
  -27.0636   -0.1189   28.6079 C   0  0  0  0  0  0  0  0  0  0  0  0
  -25.7923   -0.4302   29.0761 C   0  0  0  0  0  0  0  0  0  0  0  0
  -24.5456    0.3494   28.8225 C   0  0  0  0  0  0  0  0  0  0  0  0
  -24.6586    1.4196   27.8878 C   0  0  0  0  0  0  0  0  0  0  0  0
  -25.9471    1.6811   27.3792 C   0  0  0  0  0  0  0  0  0  0  0  0
  -27.0439    0.9739   27.6871 C   0  0  0  0  0  0  0  0  0  0  0  0
  -28.6643   -0.5274   30.1017 N   0  0  0  0  0  0  0  0  0  0  0  0
  -29.6153   -1.2473   30.6541 C   0  0  0  0  0  0  0  0  0  0  0  0
  -30.1339   -2.2836   30.0191 C   0  0  0  0  0  0  0  0  0  0  0  0
  -30.9750   -2.2961   29.3592 O   0  0  0  0  0  0  0  0  0  0  0  0
  -29.5125   -3.4882   30.3177 O   0  0  0  0  0  0  0  0  0  0  0  0
  -23.4465    2.1618   27.6100 C   0  0  0  0  0  0  0  0  0  0  0  0
  -22.2512    1.7276   28.0927 N   0  0  0  0  0  0  0  0  0  0  0  0
  -23.5172    3.0012   26.7010 F   0  0  0  0  0  0  0  0  0  0  0  0
  -30.1765   -0.7990   31.9749 C   0  0  0  0  0  0  0  0  0  0  0  0
  -30.9978   -1.1925   32.4862 O   0  0  0  0  0  0  0  0  0  0  0  0
  1  2  1  0
  1  8  1  0
  8  9  1  0
  9 10  1  0
 10 11  2  0
 10 12  1  0
  5 13  1  0
 13 14  2  0
 13 15  1  0
  9 16  1  0
 16 17  2  0
  2  3  2  0
  3  4  1  0
  4  5  2  0
  5  6  1  0
  6  7  2  0
  7  2  1  0
M  END

$$$$
