No_3143-gen_results/8p0m/2024-11-26-14-13-15/
     RDKit          3D

 16 16  0  0  0  0  0  0  0  0999 V2000
  -28.0162   -0.8135   28.8779 C   0  0  0  0  0  0  0  0  0  0  0  0
  -28.4690   -0.7850   29.8287 C   0  0  0  0  0  0  0  0  0  0  0  0
  -27.0871    0.2903   28.6377 C   0  0  0  0  0  0  0  0  0  0  0  0
  -26.2516    0.4114   27.4223 C   0  0  0  0  0  0  0  0  0  0  0  0
  -28.3913    0.1041   30.9805 C   0  0  0  0  0  0  0  0  0  0  0  0
  -27.5332    1.1666   30.7866 C   0  0  0  0  0  0  0  0  0  0  0  0
  -26.8281    1.2557   29.6454 C   0  0  0  0  0  0  0  0  0  0  0  0
  -25.9248    1.5383   26.5864 Cl  0  0  0  0  0  0  0  0  0  0  0  0
  -25.4679   -0.8605   27.0900 C   0  0  0  0  0  0  0  0  0  0  0  0
  -27.3745    2.2166   31.8370 C   0  0  0  0  0  0  0  0  0  0  0  0
  -27.2286    2.1659   32.9301 N   0  0  0  0  0  0  0  0  0  0  0  0
  -26.9465    3.1502   33.8267 C   0  0  0  0  0  0  0  0  0  0  0  0
  -27.3650    3.4529   31.2520 O   0  0  0  0  0  0  0  0  0  0  0  0
  -25.9594    4.0532   33.4285 C   0  0  0  0  0  0  0  0  0  0  0  0
  -25.6446    4.1991   32.0640 C   0  0  0  0  0  0  0  0  0  0  0  0
  -24.3631    4.7966   31.8609 C   0  0  0  0  0  0  0  0  0  0  0  0
  3  4  1  0
  4  8  1  0
  4  9  1  0
  6 10  1  0
 10 11  1  0
 11 12  2  3
 10 13  2  0
 12 14  1  0
 14 15  2  3
 15 16  1  0
  1  2  2  0
  2  5  1  0
  5  6  2  0
  6  7  1  0
  7  3  2  0
  3  1  1  0
M  END

$$$$
