No_3169-gen_results/8p0m/2024-11-26-14-13-15/
     RDKit          3D

 18 19  0  0  0  0  0  0  0  0999 V2000
  -28.0162   -0.8135   28.8779 C   0  0  0  0  0  0  0  0  0  0  0  0
  -27.0636   -0.1190   28.6079 C   0  0  0  0  0  0  0  0  0  0  0  0
  -27.0010    0.6913   27.4910 C   0  0  0  0  0  0  0  0  0  0  0  0
  -25.8548    1.4825   27.0830 C   0  0  0  0  0  0  0  0  0  0  0  0
  -24.6901    1.4526   27.8807 C   0  0  0  0  0  0  0  0  0  0  0  0
  -23.4878    2.1451   27.6011 C   0  0  0  0  0  0  0  0  0  0  0  0
  -25.8122   -0.1656   29.4299 C   0  0  0  0  0  0  0  0  0  0  0  0
  -24.6457    0.5887   29.0806 C   0  0  0  0  0  0  0  0  0  0  0  0
  -28.6766   -0.4983   30.2414 C   0  0  0  0  0  0  0  0  0  0  0  0
  -23.4359    3.0662   26.7313 N   0  0  0  0  0  0  0  0  0  0  0  0
  -22.3369    1.8120   28.1103 O   0  0  0  0  0  0  0  0  0  0  0  0
  -29.5213   -1.4745   30.5973 F   0  0  0  0  0  0  0  0  0  0  0  0
  -29.1199    0.4140   30.8458 F   0  0  0  0  0  0  0  0  0  0  0  0
  -27.9657    0.7478   26.6740 F   0  0  0  0  0  0  0  0  0  0  0  0
  -27.6196   -0.9981   31.2254 F   0  0  0  0  0  0  0  0  0  0  0  0
  -23.6415    0.5645   29.8323 F   0  0  0  0  0  0  0  0  0  0  0  0
  -24.6568    3.6430   26.1739 C   0  0  0  0  0  0  0  0  0  0  0  0
  -25.9659    2.3683   26.0220 C   0  0  0  0  0  0  0  0  0  0  0  0
  1  2  1  0
  5  6  1  0
  1  9  1  0
  6 10  1  0
  6 11  2  0
  9 12  1  0
  9 13  1  0
  3 14  1  0
  9 15  1  0
  8 16  1  0
 10 17  1  0
  4 18  1  0
 17 18  1  0
  2  3  2  0
  3  4  1  0
  4  5  2  0
  5  8  1  0
  8  7  2  0
  7  2  1  0
M  END

$$$$
