No_3685-gen_results/8p0m/2024-11-26-14-13-15/
     RDKit          3D

 25 27  0  0  0  0  0  0  0  0999 V2000
  -28.0162   -0.8135   28.8779 C   0  0  0  0  0  0  0  0  0  0  0  0
  -27.0636   -0.1189   28.6079 C   0  0  0  0  0  0  0  0  0  0  0  0
  -25.7923   -0.4302   29.0761 C   0  0  0  0  0  0  0  0  0  0  0  0
  -25.5756   -1.5654   29.9363 C   0  0  0  0  0  0  0  0  0  0  0  0
  -26.7354   -2.3004   30.2173 C   0  0  0  0  0  0  0  0  0  0  0  0
  -27.9184   -1.9537   29.7629 C   0  0  0  0  0  0  0  0  0  0  0  0
  -27.1057    1.1023   27.7593 C   0  0  0  0  0  0  0  0  0  0  0  0
  -26.7157    2.2350   27.9945 C   0  0  0  0  0  0  0  0  0  0  0  0
  -27.6805    0.8547   26.4259 C   0  0  0  0  0  0  0  0  0  0  0  0
  -26.0318    2.5935   29.1910 C   0  0  0  0  0  0  0  0  0  0  0  0
  -26.8615    3.3798   27.0755 C   0  0  0  0  0  0  0  0  0  0  0  0
  -26.3313    4.6513   27.4584 C   0  0  0  0  0  0  0  0  0  0  0  0
  -25.5953    3.9220   29.5939 C   0  0  0  0  0  0  0  0  0  0  0  0
  -25.7373    4.9604   28.6522 C   0  0  0  0  0  0  0  0  0  0  0  0
  -28.9206    1.0148   26.1262 N   0  0  0  0  0  0  0  0  0  0  0  0
  -26.7328    0.6799   25.1832 Cl  0  0  0  0  0  0  0  0  0  0  0  0
  -29.8433    1.4093   26.9604 C   0  0  0  0  0  0  0  0  0  0  0  0
  -30.8185    1.8351   26.9602 C   0  0  0  0  0  0  0  0  0  0  0  0
  -31.3140    2.2226   25.6559 C   0  0  0  0  0  0  0  0  0  0  0  0
  -30.4350    1.9524   24.5534 C   0  0  0  0  0  0  0  0  0  0  0  0
  -29.2796    1.3415   24.7869 C   0  0  0  0  0  0  0  0  0  0  0  0
  -29.1164   -2.7126   30.1848 C   0  0  0  0  0  0  0  0  0  0  0  0
  -29.0385   -3.9468   30.3332 O   0  0  0  0  0  0  0  0  0  0  0  0
  -30.2857   -2.1019   30.3974 N   0  0  0  0  0  0  0  0  0  0  0  0
  -31.4042   -2.4808   30.6809 C   0  0  0  0  0  0  0  0  0  0  0  0
  2  7  1  0
  7  8  1  0
  7  9  1  0
  9 15  1  0
  9 16  1  0
 15 17  1  0
 18 19  1  0
 15 21  1  0
 20 21  1  0
  6 22  1  0
 22 23  2  0
 22 24  1  0
 24 25  1  0
 17 18  1  0
 19 20  1  0
  8 10  2  0
 10 13  1  0
 13 14  2  0
 14 12  1  0
 12 11  2  0
 11  8  1  0
  1  2  2  0
  2  3  1  0
  3  4  2  0
  4  5  1  0
  5  6  2  0
  6  1  1  0
M  END

$$$$
