No_3993-gen_results/8p0m/2024-11-26-14-13-15/
     RDKit          3D

 11 12  0  0  0  0  0  0  0  0999 V2000
  -28.1493   -0.8198   28.9079 Cl  0  0  0  0  0  0  0  0  0  0  0  0
  -26.9116   -0.0797   28.9452 C   0  0  0  0  0  0  0  0  0  0  0  0
  -26.7384    1.0439   29.2534 C   0  0  0  0  0  0  0  0  0  0  0  0
  -27.8546    1.8906   29.5550 C   0  0  0  0  0  0  0  0  0  0  0  0
  -27.7153    3.2169   29.9194 C   0  0  0  0  0  0  0  0  0  0  0  0
  -26.3931    3.7972   29.9327 C   0  0  0  0  0  0  0  0  0  0  0  0
  -25.2601    2.9864   29.5933 C   0  0  0  0  0  0  0  0  0  0  0  0
  -25.4493    1.6785   29.3037 C   0  0  0  0  0  0  0  0  0  0  0  0
  -25.6286   -0.8934   28.5370 C   0  0  0  0  0  0  0  0  0  0  0  0
  -24.4121   -0.3445   28.3560 C   0  0  0  0  0  0  0  0  0  0  0  0
  -24.2183    1.0019   28.8549 C   0  0  0  0  0  0  0  0  0  0  0  0
  1  2  1  0
  2  3  2  0
  8 11  2  0
 11 10  1  0
 10  9  2  0
  9  2  1  0
  3  4  1  0
  4  5  2  0
  5  6  1  0
  6  7  2  0
  7  8  1  0
  8  3  1  0
M  END

$$$$
