No_3850-gen_results/8p0m/2024-11-26-14-13-15/
     RDKit          3D

 34 38  0  0  0  0  0  0  0  0999 V2000
  -28.0162   -0.8135   28.8779 C   0  0  0  0  0  0  0  0  0  0  0  0
  -27.0636   -0.1189   28.6079 C   0  0  0  0  0  0  0  0  0  0  0  0
  -27.0010    0.6913   27.4910 C   0  0  0  0  0  0  0  0  0  0  0  0
  -28.1373    0.7363   26.6350 C   0  0  0  0  0  0  0  0  0  0  0  0
  -29.2360    0.0765   27.0690 C   0  0  0  0  0  0  0  0  0  0  0  0
  -29.2177   -0.6429   28.1747 C   0  0  0  0  0  0  0  0  0  0  0  0
  -28.0030   -1.6604   30.1266 C   0  0  0  0  0  0  0  0  0  0  0  0
  -27.1218   -2.5017   30.2445 O   0  0  0  0  0  0  0  0  0  0  0  0
  -29.0108   -1.6366   31.0273 N   0  0  0  0  0  0  0  0  0  0  0  0
  -30.0672   -0.6697   31.0659 C   0  0  0  0  0  0  0  0  0  0  0  0
  -31.0881   -1.0957   31.7573 C   0  0  0  0  0  0  0  0  0  0  0  0
  -29.4452   -2.8297   31.6604 C   0  0  0  0  0  0  0  0  0  0  0  0
  -30.5085   -2.9546   32.3798 C   0  0  0  0  0  0  0  0  0  0  0  0
  -31.3709   -2.0176   32.5541 C   0  0  0  0  0  0  0  0  0  0  0  0
  -28.0917    1.5579   25.4329 C   0  0  0  0  0  0  0  0  0  0  0  0
  -27.0061    1.7107   24.7544 C   0  0  0  0  0  0  0  0  0  0  0  0
  -29.3369    2.1139   24.9474 C   0  0  0  0  0  0  0  0  0  0  0  0
  -30.1979    2.7173   25.7269 C   0  0  0  0  0  0  0  0  0  0  0  0
  -31.3872    3.3147   25.2309 C   0  0  0  0  0  0  0  0  0  0  0  0
  -31.6328    3.1914   23.8442 C   0  0  0  0  0  0  0  0  0  0  0  0
  -30.7725    2.5068   23.0171 C   0  0  0  0  0  0  0  0  0  0  0  0
  -29.5129    1.9143   23.5256 C   0  0  0  0  0  0  0  0  0  0  0  0
  -32.8501    3.7291   23.2469 C   0  0  0  0  0  0  0  0  0  0  0  0
  -33.8475    3.2444   23.2383 N   0  0  0  0  0  0  0  0  0  0  0  0
  -35.0018    3.6105   22.7200 C   0  0  0  0  0  0  0  0  0  0  0  0
  -35.0153    4.8115   22.0269 C   0  0  0  0  0  0  0  0  0  0  0  0
  -33.8136    5.5396   21.9149 C   0  0  0  0  0  0  0  0  0  0  0  0
  -32.6958    5.0853   22.5372 C   0  0  0  0  0  0  0  0  0  0  0  0
  -34.1775    1.9910   24.0021 C   0  0  0  0  0  0  0  0  0  0  0  0
  -33.9050    0.8172   23.3487 C   0  0  0  0  0  0  0  0  0  0  0  0
  -35.4656    1.9414   24.7323 C   0  0  0  0  0  0  0  0  0  0  0  0
  -35.8092    0.7283   25.1486 C   0  0  0  0  0  0  0  0  0  0  0  0
  -35.5622   -0.4545   24.4311 C   0  0  0  0  0  0  0  0  0  0  0  0
  -34.2321   -0.4365   23.8805 C   0  0  0  0  0  0  0  0  0  0  0  0
  1  7  1  0
  7  8  2  0
  7  9  1  0
  9 10  1  0
  9 12  1  0
 12 13  1  0
 11 14  1  0
  4 15  1  0
 15 16  2  0
 15 17  1  0
 20 23  1  0
 23 24  1  0
 24 25  1  0
 26 27  1  0
 23 28  1  0
 27 28  1  0
 24 29  1  0
 10 11  1  0
 14 13  1  0
 26 25  1  0
  1  2  2  0
  2  3  1  0
  3  4  2  0
  4  5  1  0
  5  6  2  0
  6  1  1  0
 29 30  2  0
 30 34  1  0
 34 33  2  0
 33 32  1  0
 32 31  2  0
 31 29  1  0
 17 18  2  0
 18 19  1  0
 19 20  2  0
 20 21  1  0
 21 22  2  0
 22 17  1  0
M  END

$$$$
