No_3479-gen_results/8p0m/2024-11-26-14-13-15/
     RDKit          3D

 17 18  0  0  0  0  0  0  0  0999 V2000
  -28.0162   -0.8135   28.8779 C   0  0  0  0  0  0  0  0  0  0  0  0
  -27.0636   -0.1189   28.6079 C   0  0  0  0  0  0  0  0  0  0  0  0
  -26.8756    1.1325   28.9134 C   0  0  0  0  0  0  0  0  0  0  0  0
  -27.9014    1.8066   29.6436 C   0  0  0  0  0  0  0  0  0  0  0  0
  -29.0458   -0.2316   29.7181 C   0  0  0  0  0  0  0  0  0  0  0  0
  -28.9402    1.0517   30.0597 C   0  0  0  0  0  0  0  0  0  0  0  0
  -30.1632   -1.1170   30.1252 C   0  0  0  0  0  0  0  0  0  0  0  0
  -29.8974   -2.2602   30.7483 C   0  0  0  0  0  0  0  0  0  0  0  0
  -30.9159   -3.2528   31.0637 C   0  0  0  0  0  0  0  0  0  0  0  0
  -31.0980   -0.3769   31.1064 C   0  0  0  0  0  0  0  0  0  0  0  0
  -31.6320    0.7089   30.6358 N   0  0  0  0  0  0  0  0  0  0  0  0
  -31.7384    1.7151   31.3977 C   0  0  0  0  0  0  0  0  0  0  0  0
  -32.4409    2.1892   31.9517 C   0  0  0  0  0  0  0  0  0  0  0  0
  -32.3973    3.4309   32.7838 C   0  0  0  0  0  0  0  0  0  0  0  0
  -31.2203    4.1361   32.6842 C   0  0  0  0  0  0  0  0  0  0  0  0
  -30.4780    2.6188   31.3955 N   0  0  0  0  0  0  0  0  0  0  0  0
  -30.3408    3.7140   32.0284 C   0  0  0  0  0  0  0  0  0  0  0  0
  5  7  1  0
  7  8  2  3
  8  9  1  0
  7 10  1  0
 10 11  1  0
 11 12  1  0
 12 13  2  0
 13 14  1  0
 14 15  2  0
 15 17  1  0
 17 16  2  0
 16 12  1  0
  1  2  2  0
  2  3  1  0
  3  4  2  0
  4  6  1  0
  6  5  2  0
  5  1  1  0
M  END

$$$$
