No_3498-gen_results/8p0m/2024-11-26-14-13-15/
     RDKit          3D

 10 10  0  0  0  0  0  0  0  0999 V2000
  -28.0162   -0.8135   28.8779 C   0  0  0  0  0  0  0  0  0  0  0  0
  -28.4690   -0.7850   29.8287 C   0  0  0  0  0  0  0  0  0  0  0  0
  -28.1960    0.3478   28.0550 C   0  0  0  0  0  0  0  0  0  0  0  0
  -29.0191    1.3501   28.3782 C   0  0  0  0  0  0  0  0  0  0  0  0
  -29.6249    1.2683   29.6012 C   0  0  0  0  0  0  0  0  0  0  0  0
  -29.3791    0.1470   30.3923 C   0  0  0  0  0  0  0  0  0  0  0  0
  -27.4550    0.3821   26.7102 C   0  0  0  0  0  0  0  0  0  0  0  0
  -28.0764    0.0567   25.6663 F   0  0  0  0  0  0  0  0  0  0  0  0
  -26.8921    1.6700   26.4758 F   0  0  0  0  0  0  0  0  0  0  0  0
  -26.2628   -0.3262   26.7131 F   0  0  0  0  0  0  0  0  0  0  0  0
  3  7  1  0
  7  8  1  0
  7  9  1  0
  7 10  1  0
  1  2  2  0
  2  6  1  0
  6  5  2  0
  5  4  1  0
  4  3  2  0
  3  1  1  0
M  END

$$$$
