No_3894-gen_results/8p0m/2024-11-26-14-13-15/
     RDKit          3D

 17 18  0  0  0  0  0  0  0  0999 V2000
  -28.1493   -0.8198   28.9079 Cl  0  0  0  0  0  0  0  0  0  0  0  0
  -28.5324   -0.0471   29.7727 C   0  0  0  0  0  0  0  0  0  0  0  0
  -27.6024    0.7852   30.3185 C   0  0  0  0  0  0  0  0  0  0  0  0
  -27.9263    1.8091   31.3693 C   0  0  0  0  0  0  0  0  0  0  0  0
  -29.2820    1.8300   31.7435 C   0  0  0  0  0  0  0  0  0  0  0  0
  -30.1642    1.0016   31.2423 C   0  0  0  0  0  0  0  0  0  0  0  0
  -29.8161    0.0491   30.2948 C   0  0  0  0  0  0  0  0  0  0  0  0
  -29.5298    2.8695   32.7908 C   0  0  0  0  0  0  0  0  0  0  0  0
  -28.7409    3.5901   33.1718 C   0  0  0  0  0  0  0  0  0  0  0  0
  -27.2620    3.5091   32.6939 C   0  0  0  0  0  0  0  0  0  0  0  0
  -26.9002    2.6259   31.8143 C   0  0  0  0  0  0  0  0  0  0  0  0
  -25.4902    2.5425   31.4081 C   0  0  0  0  0  0  0  0  0  0  0  0
  -24.8649    3.5978   30.9230 C   0  0  0  0  0  0  0  0  0  0  0  0
  -25.2840    4.4690   30.5179 C   0  0  0  0  0  0  0  0  0  0  0  0
  -25.2891    5.4890   30.8613 N   0  0  0  0  0  0  0  0  0  0  0  0
  -25.6372    4.2894   29.1296 N   0  0  0  0  0  0  0  0  0  0  0  0
  -26.0752    5.4303   28.5258 C   0  0  0  0  0  0  0  0  0  0  0  0
  1  2  1  0
 11 12  1  0
 12 13  2  3
 13 14  1  0
 14 15  2  0
 14 16  1  0
 16 17  1  0
  2  3  2  0
  3  4  1  0
  5  6  1  0
  6  7  2  0
  7  2  1  0
  4  5  2  0
  5  8  1  0
  8  9  2  0
  9 10  1  0
 10 11  2  0
 11  4  1  0
M  END

$$$$
