No_3548-gen_results/8p0m/2024-11-26-14-13-15/
     RDKit          3D

 15 16  0  0  0  0  0  0  0  0999 V2000
  -28.0162   -0.8135   28.8779 C   0  0  0  0  0  0  0  0  0  0  0  0
  -28.4690   -0.7850   29.8287 C   0  0  0  0  0  0  0  0  0  0  0  0
  -26.5455   -0.8762   28.8500 C   0  0  0  0  0  0  0  0  0  0  0  0
  -25.8041   -1.0324   30.0571 C   0  0  0  0  0  0  0  0  0  0  0  0
  -26.5373   -1.0386   31.2171 C   0  0  0  0  0  0  0  0  0  0  0  0
  -27.8843   -0.9532   31.1862 C   0  0  0  0  0  0  0  0  0  0  0  0
  -24.3655   -1.1134   30.0483 C   0  0  0  0  0  0  0  0  0  0  0  0
  -23.6925    0.1188   29.9185 C   0  0  0  0  0  0  0  0  0  0  0  0
  -23.9863    1.2743   30.4522 C   0  0  0  0  0  0  0  0  0  0  0  0
  -22.4570    0.1164   29.0535 C   0  0  0  0  0  0  0  0  0  0  0  0
  -21.9636    1.2534   28.4456 C   0  0  0  0  0  0  0  0  0  0  0  0
  -24.0528    2.2374   30.0959 C   0  0  0  0  0  0  0  0  0  0  0  0
  -22.7998    2.3229   28.2684 C   0  0  0  0  0  0  0  0  0  0  0  0
  -23.3533    3.0110   29.1756 C   0  0  0  0  0  0  0  0  0  0  0  0
  -25.6383   -0.6814   27.3682 Cl  0  0  0  0  0  0  0  0  0  0  0  0
  4  7  1  0
  7  8  1  0
  8  9  1  0
  8 10  1  0
 10 11  2  0
  9 12  2  0
 11 13  1  0
 12 14  1  0
 13 14  2  0
  3 15  1  0
  1  2  2  0
  2  6  1  0
  6  5  2  0
  5  4  1  0
  4  3  2  0
  3  1  1  0
M  END

$$$$
