No_379-gen_results/8p0m/2024-11-26-14-13-15/
     RDKit          3D

 20 22  0  0  0  0  0  0  0  0999 V2000
  -28.0162   -0.8135   28.8779 C   0  0  0  0  0  0  0  0  0  0  0  0
  -27.0636   -0.1190   28.6079 C   0  0  0  0  0  0  0  0  0  0  0  0
  -26.9287    1.1713   29.0083 C   0  0  0  0  0  0  0  0  0  0  0  0
  -27.9560    1.7411   29.7840 C   0  0  0  0  0  0  0  0  0  0  0  0
  -29.0569   -0.3271   29.7466 C   0  0  0  0  0  0  0  0  0  0  0  0
  -28.9828    0.9722   30.1516 C   0  0  0  0  0  0  0  0  0  0  0  0
  -25.9739   -0.5937   27.8380 N   0  0  0  0  0  0  0  0  0  0  0  0
  -24.8464   -0.9779   28.5448 C   0  0  0  0  0  0  0  0  0  0  0  0
  -24.5997   -2.1622   28.9427 C   0  0  0  0  0  0  0  0  0  0  0  0
  -23.4091   -2.5120   29.5812 C   0  0  0  0  0  0  0  0  0  0  0  0
  -23.8963   -0.0269   28.7309 C   0  0  0  0  0  0  0  0  0  0  0  0
  -22.6412   -0.3048   29.3516 C   0  0  0  0  0  0  0  0  0  0  0  0
  -22.4211   -1.5703   29.7263 C   0  0  0  0  0  0  0  0  0  0  0  0
  -25.9815   -0.4074   26.4532 C   0  0  0  0  0  0  0  0  0  0  0  0
  -26.9124    0.4778   25.8807 C   0  0  0  0  0  0  0  0  0  0  0  0
  -28.1767    0.3979   25.9087 C   0  0  0  0  0  0  0  0  0  0  0  0
  -29.0453    1.2122   25.2090 C   0  0  0  0  0  0  0  0  0  0  0  0
  -28.4377    2.2567   24.4820 C   0  0  0  0  0  0  0  0  0  0  0  0
  -26.4499    1.7635   25.1440 C   0  0  0  0  0  0  0  0  0  0  0  0
  -27.1557    2.5199   24.4909 C   0  0  0  0  0  0  0  0  0  0  0  0
  2  7  1  0
  7  8  1  0
  7 14  1  0
 14 15  1  0
 15 16  2  0
 16 17  1  0
 17 18  2  0
 18 20  1  0
 20 19  2  0
 19 15  1  0
  8  9  2  0
  9 10  1  0
 10 13  2  0
 13 12  1  0
 12 11  2  0
 11  8  1  0
  1  2  2  0
  2  3  1  0
  3  4  2  0
  4  6  1  0
  6  5  2  0
  5  1  1  0
M  END

$$$$
