No_37-gen_results/8p0m/2024-11-26-14-13-15/
     RDKit          3D

 20 22  0  0  0  0  0  0  0  0999 V2000
  -28.0162   -0.8135   28.8779 C   0  0  0  0  0  0  0  0  0  0  0  0
  -28.4690   -0.7850   29.8287 C   0  0  0  0  0  0  0  0  0  0  0  0
  -26.5455   -0.8762   28.8500 C   0  0  0  0  0  0  0  0  0  0  0  0
  -25.8041   -1.0324   30.0571 C   0  0  0  0  0  0  0  0  0  0  0  0
  -26.5373   -1.0386   31.2171 C   0  0  0  0  0  0  0  0  0  0  0  0
  -27.8843   -0.9532   31.1862 C   0  0  0  0  0  0  0  0  0  0  0  0
  -24.3655   -1.1134   30.0483 C   0  0  0  0  0  0  0  0  0  0  0  0
  -23.7447   -1.3690   30.8125 C   0  0  0  0  0  0  0  0  0  0  0  0
  -24.2830   -1.3527   32.2016 C   0  0  0  0  0  0  0  0  0  0  0  0
  -25.7049   -1.1940   32.3752 C   0  0  0  0  0  0  0  0  0  0  0  0
  -25.9216   -0.6471   27.5329 C   0  0  0  0  0  0  0  0  0  0  0  0
  -25.7794    0.7284   27.1000 C   0  0  0  0  0  0  0  0  0  0  0  0
  -24.9004    1.0086   26.0988 C   0  0  0  0  0  0  0  0  0  0  0  0
  -24.6558    2.3464   25.6612 C   0  0  0  0  0  0  0  0  0  0  0  0
  -25.1665    3.3901   26.4695 C   0  0  0  0  0  0  0  0  0  0  0  0
  -25.9763    3.1047   27.5569 C   0  0  0  0  0  0  0  0  0  0  0  0
  -26.2323    1.7641   27.9612 C   0  0  0  0  0  0  0  0  0  0  0  0
  -26.3927    4.2965   28.3845 C   0  0  0  0  0  0  0  0  0  0  0  0
  -27.6031    4.3431   28.7136 C   0  0  0  0  0  0  0  0  0  0  0  0
  -28.0859    5.4432   29.5463 C   0  0  0  0  0  0  0  0  0  0  0  0
  3 11  1  0
 11 12  1  0
 16 18  1  0
 18 19  2  3
 19 20  1  0
 12 13  2  0
 13 14  1  0
 14 15  2  0
 15 16  1  0
 16 17  2  0
 17 12  1  0
  5 10  1  0
 10  9  2  0
  9  8  1  0
  8  7  2  0
  7  4  1  0
  1  2  2  0
  2  6  1  0
  6  5  2  0
  5  4  1  0
  4  3  2  0
  3  1  1  0
M  END

$$$$
