No_3114-gen_results/8p0m/2024-11-26-14-13-15/
     RDKit          3D

 13 14  0  0  0  0  0  0  0  0999 V2000
  -28.0162   -0.8135   28.8779 C   0  0  0  0  0  0  0  0  0  0  0  0
  -28.4690   -0.7850   29.8287 C   0  0  0  0  0  0  0  0  0  0  0  0
  -27.0871    0.2903   28.6377 C   0  0  0  0  0  0  0  0  0  0  0  0
  -26.8317    1.2487   29.5869 C   0  0  0  0  0  0  0  0  0  0  0  0
  -28.3292   -0.0396   30.8362 C   0  0  0  0  0  0  0  0  0  0  0  0
  -27.4945    1.0625   30.7933 C   0  0  0  0  0  0  0  0  0  0  0  0
  -26.3269    0.4372   27.3447 C   0  0  0  0  0  0  0  0  0  0  0  0
  -25.4302    0.8263   26.9029 C   0  0  0  0  0  0  0  0  0  0  0  0
  -24.4689    1.4399   27.8916 C   0  0  0  0  0  0  0  0  0  0  0  0
  -23.3952    2.1816   27.2943 C   0  0  0  0  0  0  0  0  0  0  0  0
  -23.3236    2.2694   25.9378 C   0  0  0  0  0  0  0  0  0  0  0  0
  -25.1279    1.1338   25.5890 C   0  0  0  0  0  0  0  0  0  0  0  0
  -24.0954    1.7686   25.0894 C   0  0  0  0  0  0  0  0  0  0  0  0
  3  7  1  0
  7  8  1  0
  1  2  2  0
  2  5  1  0
  5  6  2  0
  6  4  1  0
  4  3  2  0
  3  1  1  0
  8  9  2  0
  9 10  1  0
 10 11  2  0
 11 13  1  0
 13 12  2  0
 12  8  1  0
M  END

$$$$
