No_3194-gen_results/8p0m/2024-11-26-14-13-15/
     RDKit          3D

 16 17  0  0  0  0  0  0  0  0999 V2000
  -28.0162   -0.8135   28.8779 C   0  0  0  0  0  0  0  0  0  0  0  0
  -27.0636   -0.1189   28.6079 C   0  0  0  0  0  0  0  0  0  0  0  0
  -26.8756    1.1325   28.9134 C   0  0  0  0  0  0  0  0  0  0  0  0
  -27.9014    1.8066   29.6436 C   0  0  0  0  0  0  0  0  0  0  0  0
  -29.0458   -0.2316   29.7181 C   0  0  0  0  0  0  0  0  0  0  0  0
  -28.9402    1.0517   30.0597 C   0  0  0  0  0  0  0  0  0  0  0  0
  -30.0593   -1.0632   30.0946 O   0  0  0  0  0  0  0  0  0  0  0  0
  -25.6684    1.9362   28.4484 C   0  0  0  0  0  0  0  0  0  0  0  0
  -24.9348    1.7160   27.6796 C   0  0  0  0  0  0  0  0  0  0  0  0
  -23.7118    2.4802   27.3226 C   0  0  0  0  0  0  0  0  0  0  0  0
  -25.4691    3.2433   29.2044 C   0  0  0  0  0  0  0  0  0  0  0  0
  -24.5027    4.1754   28.7197 C   0  0  0  0  0  0  0  0  0  0  0  0
  -23.5784    3.7105   27.8043 C   0  0  0  0  0  0  0  0  0  0  0  0
  -29.8595   -2.1405   30.8522 C   0  0  0  0  0  0  0  0  0  0  0  0
  -30.8722   -2.5512   31.6655 C   0  0  0  0  0  0  0  0  0  0  0  0
  -30.6889   -3.7381   32.4282 C   0  0  0  0  0  0  0  0  0  0  0  0
  5  7  1  0
  3  8  1  0
  7 14  1  0
 14 15  2  3
 15 16  1  0
  8  9  2  0
  9 10  1  0
 10 13  2  0
 13 12  1  0
 12 11  2  0
 11  8  1  0
  1  2  2  0
  2  3  1  0
  3  4  2  0
  4  6  1  0
  6  5  2  0
  5  1  1  0
M  END

$$$$
