No_3376-gen_results/8p0m/2024-11-26-14-13-15/
     RDKit          3D

 10 10  0  0  0  0  0  0  0  0999 V2000
  -28.0162   -0.8135   28.8779 C   0  0  0  0  0  0  0  0  0  0  0  0
  -27.0636   -0.1190   28.6079 C   0  0  0  0  0  0  0  0  0  0  0  0
  -26.8756    1.1325   28.9134 C   0  0  0  0  0  0  0  0  0  0  0  0
  -27.9014    1.8066   29.6436 C   0  0  0  0  0  0  0  0  0  0  0  0
  -28.9449    1.0388   30.0360 C   0  0  0  0  0  0  0  0  0  0  0  0
  -29.0273   -0.2890   29.7051 C   0  0  0  0  0  0  0  0  0  0  0  0
  -25.8628    2.1073   28.4534 C   0  0  0  0  0  0  0  0  0  0  0  0
  -24.7773    1.6194   27.8145 C   0  0  0  0  0  0  0  0  0  0  0  0
  -23.8081    2.4378   27.1982 C   0  0  0  0  0  0  0  0  0  0  0  0
  -22.6597    1.8398   26.5676 C   0  0  0  0  0  0  0  0  0  0  0  0
  3  7  1  0
  7  8  1  0
  8  9  2  3
  9 10  1  0
  1  2  2  0
  2  3  1  0
  3  4  2  0
  4  5  1  0
  5  6  2  0
  6  1  1  0
M  END

$$$$
