No_3989-gen_results/8p0m/2024-11-26-14-13-15/
     RDKit          3D

 33 35  0  0  0  0  0  0  0  0999 V2000
  -28.0162   -0.8135   28.8779 C   0  0  0  0  0  0  0  0  0  0  0  0
  -28.4690   -0.7850   29.8287 C   0  0  0  0  0  0  0  0  0  0  0  0
  -28.1816    0.4277   28.1134 C   0  0  0  0  0  0  0  0  0  0  0  0
  -28.9841    1.4155   28.5154 C   0  0  0  0  0  0  0  0  0  0  0  0
  -28.3375   -2.0481   30.7873 C   0  0  0  0  0  0  0  0  0  0  0  0
  -29.5615    1.2930   29.7416 C   0  0  0  0  0  0  0  0  0  0  0  0
  -29.3196    0.1647   30.4451 C   0  0  0  0  0  0  0  0  0  0  0  0
  -27.3512   -2.1149   31.3659 O   0  0  0  0  0  0  0  0  0  0  0  0
  -29.4094   -2.7706   31.0107 O   0  0  0  0  0  0  0  0  0  0  0  0
  -27.4315    0.5025   26.7557 C   0  0  0  0  0  0  0  0  0  0  0  0
  -26.4387    0.8950   26.5779 C   0  0  0  0  0  0  0  0  0  0  0  0
  -25.5362    1.4210   27.6848 C   0  0  0  0  0  0  0  0  0  0  0  0
  -24.1984    1.8587   27.4015 C   0  0  0  0  0  0  0  0  0  0  0  0
  -23.2417    2.1764   28.3828 C   0  0  0  0  0  0  0  0  0  0  0  0
  -23.6397    1.8783   29.7147 C   0  0  0  0  0  0  0  0  0  0  0  0
  -24.9017    1.4843   30.0300 C   0  0  0  0  0  0  0  0  0  0  0  0
  -25.8124    1.1529   29.0217 C   0  0  0  0  0  0  0  0  0  0  0  0
  -25.2537    1.3518   31.4771 C   0  0  0  0  0  0  0  0  0  0  0  0
  -26.0363    0.6343   32.0430 C   0  0  0  0  0  0  0  0  0  0  0  0
  -26.3512    0.6609   33.4296 C   0  0  0  0  0  0  0  0  0  0  0  0
  -26.8943    1.5242   33.9635 C   0  0  0  0  0  0  0  0  0  0  0  0
  -27.1826    1.5703   35.3886 C   0  0  0  0  0  0  0  0  0  0  0  0
  -26.9015    0.4390   36.1031 C   0  0  0  0  0  0  0  0  0  0  0  0
  -25.8662   -0.5192   34.2350 C   0  0  0  0  0  0  0  0  0  0  0  0
  -26.1814   -0.5818   35.5544 C   0  0  0  0  0  0  0  0  0  0  0  0
  -28.4014    0.2085   25.6642 C   0  0  0  0  0  0  0  0  0  0  0  0
  -29.1663   -0.6353   25.7749 F   0  0  0  0  0  0  0  0  0  0  0  0
  -27.6203    0.0425   24.5136 F   0  0  0  0  0  0  0  0  0  0  0  0
  -29.0541    1.4293   25.3923 F   0  0  0  0  0  0  0  0  0  0  0  0
  -30.4352    2.3868   30.2205 C   0  0  0  0  0  0  0  0  0  0  0  0
  -31.3746    2.1491   30.6789 F   0  0  0  0  0  0  0  0  0  0  0  0
  -30.6097    3.3354   29.2250 F   0  0  0  0  0  0  0  0  0  0  0  0
  -29.5861    3.0702   31.1379 F   0  0  0  0  0  0  0  0  0  0  0  0
  2  5  1  0
  5  8  2  0
  5  9  1  0
  3 10  1  0
 10 11  2  3
 11 12  1  0
 16 18  1  0
 18 19  2  3
 19 20  1  0
 10 26  1  0
 26 27  1  0
 26 28  1  0
 26 29  1  0
  6 30  1  0
 30 31  1  0
 30 32  1  0
 30 33  1  0
 12 13  2  0
 13 14  1  0
 14 15  2  0
 15 16  1  0
 16 17  2  0
 17 12  1  0
 20 21  2  0
 21 22  1  0
 22 23  2  0
 23 25  1  0
 25 24  2  0
 24 20  1  0
  1  2  2  0
  2  7  1  0
  7  6  2  0
  6  4  1  0
  4  3  2  0
  3  1  1  0
M  END

$$$$
