No_3764-gen_results/8p0m/2024-11-26-14-13-15/
     RDKit          3D

 27 29  0  0  0  0  0  0  0  0999 V2000
  -28.0162   -0.8135   28.8779 C   0  0  0  0  0  0  0  0  0  0  0  0
  -28.4690   -0.7850   29.8287 C   0  0  0  0  0  0  0  0  0  0  0  0
  -27.0871    0.2903   28.6377 C   0  0  0  0  0  0  0  0  0  0  0  0
  -26.8317    1.2487   29.5869 C   0  0  0  0  0  0  0  0  0  0  0  0
  -28.3914    0.0801   31.0065 C   0  0  0  0  0  0  0  0  0  0  0  0
  -27.4940    1.1521   30.7841 C   0  0  0  0  0  0  0  0  0  0  0  0
  -26.3109    0.3918   27.3640 C   0  0  0  0  0  0  0  0  0  0  0  0
  -26.7768    0.8323   26.3762 N   0  0  0  0  0  0  0  0  0  0  0  0
  -25.1608   -0.2925   27.3008 O   0  0  0  0  0  0  0  0  0  0  0  0
  -26.1260    0.7881   25.0431 C   0  0  0  0  0  0  0  0  0  0  0  0
  -28.0606    1.5616   26.2804 C   0  0  0  0  0  0  0  0  0  0  0  0
  -29.2607    0.8851   26.5367 C   0  0  0  0  0  0  0  0  0  0  0  0
  -29.7951    0.1691   25.9205 C   0  0  0  0  0  0  0  0  0  0  0  0
  -31.1083   -0.4619   26.2706 C   0  0  0  0  0  0  0  0  0  0  0  0
  -31.6517   -0.2249   27.5190 C   0  0  0  0  0  0  0  0  0  0  0  0
  -31.0491    0.7631   28.3049 C   0  0  0  0  0  0  0  0  0  0  0  0
  -29.8371    1.3863   27.9285 C   0  0  0  0  0  0  0  0  0  0  0  0
  -27.9750    2.9467   25.8679 C   0  0  0  0  0  0  0  0  0  0  0  0
  -31.7093    1.1339   29.6226 C   0  0  0  0  0  0  0  0  0  0  0  0
  -32.2414    0.2987   30.3811 N   0  0  0  0  0  0  0  0  0  0  0  0
  -32.4185   -0.7860   30.3407 C   0  0  0  0  0  0  0  0  0  0  0  0
  -32.7409   -1.5749   29.2152 C   0  0  0  0  0  0  0  0  0  0  0  0
  -32.3837   -1.3386   28.0858 C   0  0  0  0  0  0  0  0  0  0  0  0
  -31.5280    2.4247   29.8199 O   0  0  0  0  0  0  0  0  0  0  0  0
  -29.1393   -0.0043   32.2626 C   0  0  0  0  0  0  0  0  0  0  0  0
  -29.3873   -1.2191   32.7712 C   0  0  0  0  0  0  0  0  0  0  0  0
  -30.0993   -1.3410   34.0147 C   0  0  0  0  0  0  0  0  0  0  0  0
  3  7  1  0
  7  8  1  0
  7  9  2  0
  8 10  1  0
  8 11  1  0
 11 12  1  0
 11 18  1  0
 16 19  1  0
 19 20  1  0
 20 21  1  0
 21 22  2  0
 15 23  1  0
 22 23  1  0
 19 24  2  0
  5 25  1  0
 25 26  2  3
 26 27  1  0
 12 13  2  0
 13 14  1  0
 14 15  2  0
 15 16  1  0
 16 17  2  0
 17 12  1  0
  1  2  2  0
  2  5  1  0
  5  6  2  0
  6  4  1  0
  4  3  2  0
  3  1  1  0
M  END

$$$$
