No_3033-gen_results/8p0m/2024-11-26-14-13-15/
     RDKit          3D

 35 38  0  0  0  0  0  0  0  0999 V2000
  -28.0162   -0.8135   28.8779 C   0  0  0  0  0  0  0  0  0  0  0  0
  -28.4690   -0.7850   29.8287 C   0  0  0  0  0  0  0  0  0  0  0  0
  -27.1356    0.2359   28.5352 C   0  0  0  0  0  0  0  0  0  0  0  0
  -26.8745    1.2825   29.3982 C   0  0  0  0  0  0  0  0  0  0  0  0
  -28.3613    0.1987   30.9244 C   0  0  0  0  0  0  0  0  0  0  0  0
  -27.5277    1.2234   30.6356 C   0  0  0  0  0  0  0  0  0  0  0  0
  -26.3725    0.5103   27.2588 C   0  0  0  0  0  0  0  0  0  0  0  0
  -26.0873    1.4542   26.7711 C   0  0  0  0  0  0  0  0  0  0  0  0
  -25.2440    1.5779   25.5962 C   0  0  0  0  0  0  0  0  0  0  0  0
  -25.0152    0.3662   24.9164 C   0  0  0  0  0  0  0  0  0  0  0  0
  -25.5392   -0.7790   25.4233 C   0  0  0  0  0  0  0  0  0  0  0  0
  -26.1274   -0.8121   26.5798 C   0  0  0  0  0  0  0  0  0  0  0  0
  -27.3171    2.3598   31.6182 C   0  0  0  0  0  0  0  0  0  0  0  0
  -27.5622    3.5457   31.4659 C   0  0  0  0  0  0  0  0  0  0  0  0
  -27.1923    4.5937   32.4109 C   0  0  0  0  0  0  0  0  0  0  0  0
  -26.5476    4.2160   33.5749 C   0  0  0  0  0  0  0  0  0  0  0  0
  -26.3798    2.1858   32.8291 C   0  0  0  0  0  0  0  0  0  0  0  0
  -26.0754    3.0542   33.7463 C   0  0  0  0  0  0  0  0  0  0  0  0
  -25.8665    0.7163   33.0130 C   0  0  0  0  0  0  0  0  0  0  0  0
  -26.1219    0.0325   34.0053 C   0  0  0  0  0  0  0  0  0  0  0  0
  -25.1306    0.1627   31.8836 C   0  0  0  0  0  0  0  0  0  0  0  0
  -24.5629   -1.1152   32.0227 C   0  0  0  0  0  0  0  0  0  0  0  0
  -25.4792   -1.2111   34.2450 C   0  0  0  0  0  0  0  0  0  0  0  0
  -24.7587   -1.7270   33.2222 C   0  0  0  0  0  0  0  0  0  0  0  0
  -29.1434    0.0609   32.4716 Cl  0  0  0  0  0  0  0  0  0  0  0  0
  -28.3990    4.0630   30.3209 C   0  0  0  0  0  0  0  0  0  0  0  0
  -27.8130    4.6530   29.4195 O   0  0  0  0  0  0  0  0  0  0  0  0
  -29.6306    3.7206   30.2993 O   0  0  0  0  0  0  0  0  0  0  0  0
  -26.1895    5.3676   34.5788 C   0  0  0  0  0  0  0  0  0  0  0  0
  -26.1348    5.5695   35.5572 O   0  0  0  0  0  0  0  0  0  0  0  0
  -25.9688    6.6753   33.7447 O   0  0  0  0  0  0  0  0  0  0  0  0
  -26.5193    7.1917   33.0640 C   0  0  0  0  0  0  0  0  0  0  0  0
  -27.4002    8.0429   33.4083 C   0  0  0  0  0  0  0  0  0  0  0  0
  -27.5009    8.4425   34.7195 C   0  0  0  0  0  0  0  0  0  0  0  0
  -28.1297    8.9414   35.3650 C   0  0  0  0  0  0  0  0  0  0  0  0
  3  7  1  0
  6 13  1  0
 17 19  1  0
  5 25  1  0
 14 26  1  0
 26 27  2  0
 26 28  1  0
 16 29  1  0
 29 30  2  0
 29 31  1  0
 31 32  1  0
 32 33  2  3
 33 34  1  0
 34 35  2  0
 19 20  2  0
 20 23  1  0
 23 24  2  0
 24 22  1  0
 22 21  2  0
 21 19  1  0
 13 14  2  0
 14 15  1  0
 15 16  2  0
 16 18  1  0
 18 17  2  0
 17 13  1  0
  1  2  2  0
  2  5  1  0
  5  6  2  0
  6  4  1  0
  4  3  2  0
  3  1  1  0
  7  8  2  0
  8  9  1  0
  9 10  2  0
 10 11  1  0
 11 12  2  0
 12  7  1  0
M  END

$$$$
