No_3134-gen_results/8p0m/2024-11-26-14-13-15/
     RDKit          3D

 13 14  0  0  0  0  0  0  0  0999 V2000
  -28.0162   -0.8135   28.8779 C   0  0  0  0  0  0  0  0  0  0  0  0
  -27.0636   -0.1189   28.6079 C   0  0  0  0  0  0  0  0  0  0  0  0
  -26.9716    0.7139   27.5060 C   0  0  0  0  0  0  0  0  0  0  0  0
  -28.1053    0.7744   26.6421 C   0  0  0  0  0  0  0  0  0  0  0  0
  -29.2041    0.1179   27.0477 C   0  0  0  0  0  0  0  0  0  0  0  0
  -29.2127   -0.6088   28.1281 C   0  0  0  0  0  0  0  0  0  0  0  0
  -25.6104    1.3028   27.2626 C   0  0  0  0  0  0  0  0  0  0  0  0
  -25.1406    2.2250   28.1273 C   0  0  0  0  0  0  0  0  0  0  0  0
  -23.8074    2.7906   27.8881 C   0  0  0  0  0  0  0  0  0  0  0  0
  -23.0780    2.2817   26.7865 C   0  0  0  0  0  0  0  0  0  0  0  0
  -24.7421    0.8719   26.2350 C   0  0  0  0  0  0  0  0  0  0  0  0
  -23.5318    1.3606   26.0019 C   0  0  0  0  0  0  0  0  0  0  0  0
  -27.9930    1.5296   25.5847 F   0  0  0  0  0  0  0  0  0  0  0  0
  3  7  1  0
  4 13  1  0
  7  8  2  0
  8  9  1  0
  9 10  2  0
 10 12  1  0
 12 11  2  0
 11  7  1  0
  1  2  2  0
  2  3  1  0
  3  4  2  0
  4  5  1  0
  5  6  2  0
  6  1  1  0
M  END

$$$$
