No_3528-gen_results/8p0m/2024-11-26-14-13-15/
     RDKit          3D

 30 32  0  0  0  0  0  0  0  0999 V2000
  -28.1229   -1.3353   28.4874 O   0  0  0  0  0  0  0  0  0  0  0  0
  -27.4806   -0.4044   28.7094 C   0  0  0  0  0  0  0  0  0  0  0  0
  -26.4599   -0.1104   28.0051 N   0  0  0  0  0  0  0  0  0  0  0  0
  -25.4297    0.8788   28.3572 C   0  0  0  0  0  0  0  0  0  0  0  0
  -24.3600    1.0559   27.5650 C   0  0  0  0  0  0  0  0  0  0  0  0
  -27.4856    0.2267   30.1112 C   0  0  0  0  0  0  0  0  0  0  0  0
  -23.1428    1.5624   28.0715 C   0  0  0  0  0  0  0  0  0  0  0  0
  -23.1267    1.7757   29.5232 C   0  0  0  0  0  0  0  0  0  0  0  0
  -24.1784    1.5103   30.3488 C   0  0  0  0  0  0  0  0  0  0  0  0
  -25.3032    0.8940   29.7729 C   0  0  0  0  0  0  0  0  0  0  0  0
  -26.4024    0.6834   30.6863 C   0  0  0  0  0  0  0  0  0  0  0  0
  -22.1040    2.0254   27.4008 O   0  0  0  0  0  0  0  0  0  0  0  0
  -28.7606   -0.0128   30.8339 C   0  0  0  0  0  0  0  0  0  0  0  0
  -29.6659    0.7964   30.6570 C   0  0  0  0  0  0  0  0  0  0  0  0
  -29.4962    2.0478   30.4669 C   0  0  0  0  0  0  0  0  0  0  0  0
  -30.5885    3.0544   30.2586 C   0  0  0  0  0  0  0  0  0  0  0  0
  -31.5146    3.2722   29.9438 Cl  0  0  0  0  0  0  0  0  0  0  0  0
  -26.3454    1.0602   32.0663 C   0  0  0  0  0  0  0  0  0  0  0  0
  -26.0776    0.7970   33.0343 C   0  0  0  0  0  0  0  0  0  0  0  0
  -25.7371   -0.6629   33.4105 C   0  0  0  0  0  0  0  0  0  0  0  0
  -26.7539    2.6773   32.1100 C   0  0  0  0  0  0  0  0  0  0  0  0
  -26.0806    3.6588   31.7814 C   0  0  0  0  0  0  0  0  0  0  0  0
  -26.5396    4.9901   31.9376 C   0  0  0  0  0  0  0  0  0  0  0  0
  -27.8380    5.2422   32.2840 C   0  0  0  0  0  0  0  0  0  0  0  0
  -28.0648    3.0273   32.6914 C   0  0  0  0  0  0  0  0  0  0  0  0
  -28.5144    4.2542   32.8420 C   0  0  0  0  0  0  0  0  0  0  0  0
  -26.1802    1.5348   34.3941 C   0  0  0  0  0  0  0  0  0  0  0  0
  -25.6654    6.1596   31.3398 C   0  0  0  0  0  0  0  0  0  0  0  0
  -25.3949    6.0785   30.1955 O   0  0  0  0  0  0  0  0  0  0  0  0
  -25.5841    7.2209   32.0558 O   0  0  0  0  0  0  0  0  0  0  0  0
  1  2  2  0
  2  3  1  0
  3  4  1  0
  2  6  1  0
  6 11  1  0
 10 11  1  0
  7 12  1  0
  6 13  1  0
 13 14  1  0
 14 15  2  3
 15 16  1  0
 16 17  1  0
 11 18  1  0
 18 19  2  3
 19 20  1  0
 18 21  1  0
 19 27  1  0
 23 28  1  0
 28 29  1  0
 28 30  2  0
  4  5  2  0
  5  7  1  0
  7  8  2  0
  8  9  1  0
  9 10  2  0
 10  4  1  0
 21 22  2  0
 22 23  1  0
 23 24  2  0
 24 26  1  0
 26 25  2  0
 25 21  1  0
M  END

$$$$
