No_3600-gen_results/8p0m/2024-11-26-14-13-15/
     RDKit          3D

 26 28  0  0  0  0  0  0  0  0999 V2000
  -28.0162   -0.8135   28.8779 C   0  0  0  0  0  0  0  0  0  0  0  0
  -27.0636   -0.1189   28.6079 C   0  0  0  0  0  0  0  0  0  0  0  0
  -25.7923   -0.4302   29.0761 C   0  0  0  0  0  0  0  0  0  0  0  0
  -24.5456    0.3494   28.8225 C   0  0  0  0  0  0  0  0  0  0  0  0
  -24.6586    1.4196   27.8878 C   0  0  0  0  0  0  0  0  0  0  0  0
  -25.9471    1.6811   27.3792 C   0  0  0  0  0  0  0  0  0  0  0  0
  -27.0439    0.9739   27.6871 C   0  0  0  0  0  0  0  0  0  0  0  0
  -28.0241   -1.6475   30.1262 C   0  0  0  0  0  0  0  0  0  0  0  0
  -26.7278   -2.0846   30.5807 C   0  0  0  0  0  0  0  0  0  0  0  0
  -25.5915   -1.4064   30.1489 C   0  0  0  0  0  0  0  0  0  0  0  0
  -23.4486    2.1675   27.5241 C   0  0  0  0  0  0  0  0  0  0  0  0
  -23.6393    3.3320   27.0315 C   0  0  0  0  0  0  0  0  0  0  0  0
  -24.9859    3.7463   26.4358 C   0  0  0  0  0  0  0  0  0  0  0  0
  -26.0678    2.9100   26.6344 C   0  0  0  0  0  0  0  0  0  0  0  0
  -23.2543    0.0035   29.3721 C   0  0  0  0  0  0  0  0  0  0  0  0
  -22.3658   -0.7117   28.5761 C   0  0  0  0  0  0  0  0  0  0  0  0
  -28.3519    1.3180   27.0801 C   0  0  0  0  0  0  0  0  0  0  0  0
  -29.1404    2.1553   27.5822 N   0  0  0  0  0  0  0  0  0  0  0  0
  -29.2134    2.7307   28.4960 C   0  0  0  0  0  0  0  0  0  0  0  0
  -29.5401    3.5883   29.2005 C   0  0  0  0  0  0  0  0  0  0  0  0
  -30.3577    2.2774   26.6145 C   0  0  0  0  0  0  0  0  0  0  0  0
  -28.5099    0.5698   26.0056 O   0  0  0  0  0  0  0  0  0  0  0  0
  -22.5172    1.1678   30.0084 C   0  0  0  0  0  0  0  0  0  0  0  0
  -29.2021   -2.4378   30.4792 C   0  0  0  0  0  0  0  0  0  0  0  0
  -29.2219   -3.5654   30.7092 O   0  0  0  0  0  0  0  0  0  0  0  0
  -30.2036   -1.7076   30.9622 O   0  0  0  0  0  0  0  0  0  0  0  0
  4 15  1  0
 15 16  1  0
  7 17  1  0
 17 18  1  0
 18 19  1  0
 19 20  3  0
 18 21  1  0
 17 22  2  0
 15 23  1  0
  8 24  1  0
 24 25  1  0
 24 26  2  0
  6 14  1  0
 14 13  2  0
 13 12  1  0
 12 11  2  0
 11  5  1  0
  3  4  1  0
  4  5  2  0
  5  6  1  0
  6  7  2  0
  7  2  1  0
  1  2  2  0
  2  3  1  0
  3 10  2  0
 10  9  1  0
  9  8  2  0
  8  1  1  0
M  END

$$$$
