No_3145-gen_results/8p0m/2024-11-26-14-13-15/
     RDKit          3D

 31 33  0  0  0  0  0  0  0  0999 V2000
  -28.0162   -0.8135   28.8779 C   0  0  0  0  0  0  0  0  0  0  0  0
  -28.4690   -0.7850   29.8287 C   0  0  0  0  0  0  0  0  0  0  0  0
  -26.5455   -0.8762   28.8500 C   0  0  0  0  0  0  0  0  0  0  0  0
  -25.8041   -1.0324   30.0571 C   0  0  0  0  0  0  0  0  0  0  0  0
  -27.9437   -0.9869   31.2075 C   0  0  0  0  0  0  0  0  0  0  0  0
  -26.5825   -1.0386   31.2231 C   0  0  0  0  0  0  0  0  0  0  0  0
  -30.0606   -0.7371   29.9024 C   0  0  0  0  0  0  0  0  0  0  0  0
  -30.7252   -1.5544   30.2697 O   0  0  0  0  0  0  0  0  0  0  0  0
  -30.5563    0.4242   29.3124 N   0  0  0  0  0  0  0  0  0  0  0  0
  -31.9645    0.5638   29.1626 C   0  0  0  0  0  0  0  0  0  0  0  0
  -32.3342    1.5588   28.7573 C   0  0  0  0  0  0  0  0  0  0  0  0
  -31.4375    2.6378   28.2682 C   0  0  0  0  0  0  0  0  0  0  0  0
  -30.0453    2.4232   28.3605 C   0  0  0  0  0  0  0  0  0  0  0  0
  -29.5988    1.3754   28.9155 C   0  0  0  0  0  0  0  0  0  0  0  0
  -24.3713   -1.1927   30.0678 C   0  0  0  0  0  0  0  0  0  0  0  0
  -23.6459   -1.3024   29.0512 C   0  0  0  0  0  0  0  0  0  0  0  0
  -22.1733   -1.2129   29.0972 C   0  0  0  0  0  0  0  0  0  0  0  0
  -21.6409    0.0557   29.1630 C   0  0  0  0  0  0  0  0  0  0  0  0
  -22.4656    1.2094   29.0387 C   0  0  0  0  0  0  0  0  0  0  0  0
  -23.3341    1.3808   27.9061 C   0  0  0  0  0  0  0  0  0  0  0  0
  -23.9156    2.7082   27.7118 C   0  0  0  0  0  0  0  0  0  0  0  0
  -24.4400    3.2977   28.8005 C   0  0  0  0  0  0  0  0  0  0  0  0
  -25.5015    2.8480   29.3200 C   0  0  0  0  0  0  0  0  0  0  0  0
  -26.0528    3.4526   30.5671 C   0  0  0  0  0  0  0  0  0  0  0  0
  -26.7397    2.7535   31.4366 C   0  0  0  0  0  0  0  0  0  0  0  0
  -26.8087    3.1042   32.7858 C   0  0  0  0  0  0  0  0  0  0  0  0
  -26.4223    4.4225   33.1402 C   0  0  0  0  0  0  0  0  0  0  0  0
  -25.7463    5.2206   32.2077 C   0  0  0  0  0  0  0  0  0  0  0  0
  -25.4725    4.6767   30.9132 C   0  0  0  0  0  0  0  0  0  0  0  0
  -24.0516    3.1524   26.3746 C   0  0  0  0  0  0  0  0  0  0  0  0
  -23.7713   -1.0740   31.4425 C   0  0  0  0  0  0  0  0  0  0  0  0
  2  7  1  0
  7  8  2  0
  7  9  1  0
  9 10  1  0
 11 12  1  0
  9 14  1  0
 13 14  1  0
  4 15  1  0
 15 16  2  3
 16 17  1  0
 17 18  2  3
 18 19  1  0
 19 20  2  3
 20 21  1  0
 21 22  1  0
 22 23  1  0
 23 24  1  0
 21 30  1  0
 15 31  1  0
 10 11  1  0
 12 13  1  0
 24 25  2  0
 25 26  1  0
 26 27  2  0
 27 28  1  0
 28 29  2  0
 29 24  1  0
  1  2  2  0
  2  5  1  0
  5  6  2  0
  6  4  1  0
  4  3  2  0
  3  1  1  0
M  END

$$$$
