No_3835-gen_results/8p0m/2024-11-26-14-13-15/
     RDKit          3D

  9  9  0  0  0  0  0  0  0  0999 V2000
  -28.0162   -0.8135   28.8779 C   0  0  0  0  0  0  0  0  0  0  0  0
  -28.4690   -0.7850   29.8287 C   0  0  0  0  0  0  0  0  0  0  0  0
  -26.5042   -0.7777   28.8766 C   0  0  0  0  0  0  0  0  0  0  0  0
  -25.6540   -0.6597   27.7191 C   0  0  0  0  0  0  0  0  0  0  0  0
  -29.9920   -0.8134   29.9579 C   0  0  0  0  0  0  0  0  0  0  0  0
  -26.1232   -0.1174   26.5796 C   0  0  0  0  0  0  0  0  0  0  0  0
  -27.4869    0.2318   26.5236 C   0  0  0  0  0  0  0  0  0  0  0  0
  -28.2249    0.0063   27.6335 C   0  0  0  0  0  0  0  0  0  0  0  0
  -30.7354   -1.1327   31.1027 C   0  0  0  0  0  0  0  0  0  0  0  0
  1  2  1  0
  2  5  2  3
  5  9  1  0
  1  3  2  0
  3  4  1  0
  4  6  2  0
  6  7  1  0
  7  8  2  0
  8  1  1  0
M  END

$$$$
