No_3918-gen_results/8p0m/2024-11-26-14-13-15/
     RDKit          3D

 35 38  0  0  0  0  0  0  0  0999 V2000
  -28.0162   -0.8135   28.8779 C   0  0  0  0  0  0  0  0  0  0  0  0
  -28.4690   -0.7850   29.8287 C   0  0  0  0  0  0  0  0  0  0  0  0
  -26.5042   -0.7777   28.8766 C   0  0  0  0  0  0  0  0  0  0  0  0
  -25.8103   -0.8531   30.1028 C   0  0  0  0  0  0  0  0  0  0  0  0
  -27.9906   -0.8916   31.2257 C   0  0  0  0  0  0  0  0  0  0  0  0
  -26.6042   -0.8676   31.2652 C   0  0  0  0  0  0  0  0  0  0  0  0
  -30.0739   -0.8360   29.8615 C   0  0  0  0  0  0  0  0  0  0  0  0
  -30.5608   -0.4417   28.9417 O   0  0  0  0  0  0  0  0  0  0  0  0
  -30.7486   -1.4028   30.9474 N   0  0  0  0  0  0  0  0  0  0  0  0
  -30.3147   -1.9473   32.0849 C   0  0  0  0  0  0  0  0  0  0  0  0
  -32.2371   -1.3585   30.7532 C   0  0  0  0  0  0  0  0  0  0  0  0
  -25.7000   -0.6775   27.7552 N   0  0  0  0  0  0  0  0  0  0  0  0
  -25.1730    0.5656   27.3611 C   0  0  0  0  0  0  0  0  0  0  0  0
  -23.8965    0.8251   27.8793 C   0  0  0  0  0  0  0  0  0  0  0  0
  -23.0882    1.8505   27.2942 C   0  0  0  0  0  0  0  0  0  0  0  0
  -21.7971    2.1604   27.8051 C   0  0  0  0  0  0  0  0  0  0  0  0
  -21.2747    1.1334   28.7600 C   0  0  0  0  0  0  0  0  0  0  0  0
  -21.9727    0.0975   29.2020 C   0  0  0  0  0  0  0  0  0  0  0  0
  -23.2634   -0.0926   28.7620 C   0  0  0  0  0  0  0  0  0  0  0  0
  -25.8632    1.4123   26.8112 O   0  0  0  0  0  0  0  0  0  0  0  0
  -32.9944   -0.4833   31.2383 C   0  0  0  0  0  0  0  0  0  0  0  0
  -32.7498    0.0607   32.3255 C   0  0  0  0  0  0  0  0  0  0  0  0
  -33.6324    1.0998   33.0058 C   0  0  0  0  0  0  0  0  0  0  0  0
  -34.7835    1.3788   32.2524 C   0  0  0  0  0  0  0  0  0  0  0  0
  -35.0477    0.7903   31.0764 C   0  0  0  0  0  0  0  0  0  0  0  0
  -34.1641   -0.1375   30.5263 C   0  0  0  0  0  0  0  0  0  0  0  0
  -36.2750    1.1205   30.3322 C   0  0  0  0  0  0  0  0  0  0  0  0
  -36.8570    0.5822   29.5725 O   0  0  0  0  0  0  0  0  0  0  0  0
  -36.6310    2.4170   30.6704 N   0  0  0  0  0  0  0  0  0  0  0  0
  -37.8307    2.9986   30.0491 C   0  0  0  0  0  0  0  0  0  0  0  0
  -38.6590    2.6584   29.4794 C   0  0  0  0  0  0  0  0  0  0  0  0
  -39.7658    3.3746   28.9550 C   0  0  0  0  0  0  0  0  0  0  0  0
  -39.7806    4.7640   29.2420 C   0  0  0  0  0  0  0  0  0  0  0  0
  -38.7447    5.2873   29.9589 C   0  0  0  0  0  0  0  0  0  0  0  0
  -37.7097    4.5138   30.4637 C   0  0  0  0  0  0  0  0  0  0  0  0
  2  7  1  0
  7  8  2  0
  7  9  1  0
  9 10  1  0
  9 11  1  0
  3 12  1  0
 12 13  1  0
 13 14  1  0
 13 20  2  0
 11 21  1  0
 25 27  1  0
 27 28  2  0
 27 29  1  0
 29 30  1  0
 14 15  2  0
 15 16  1  0
 16 17  2  0
 17 18  1  0
 18 19  2  0
 19 14  1  0
 30 31  2  0
 31 32  1  0
 32 33  2  0
 33 34  1  0
 34 35  2  0
 35 30  1  0
  1  2  2  0
  2  5  1  0
  5  6  2  0
  6  4  1  0
  4  3  2  0
  3  1  1  0
 21 22  2  0
 22 23  1  0
 23 24  2  0
 24 25  1  0
 25 26  2  0
 26 21  1  0
M  END

$$$$
