No_3062-gen_results/8p0m/2024-11-26-14-13-15/
     RDKit          3D

 35 38  0  0  0  0  0  0  0  0999 V2000
  -28.0162   -0.8135   28.8779 C   0  0  0  0  0  0  0  0  0  0  0  0
  -27.0636   -0.1190   28.6079 C   0  0  0  0  0  0  0  0  0  0  0  0
  -26.8756    1.1325   28.9134 C   0  0  0  0  0  0  0  0  0  0  0  0
  -25.6883    1.9515   28.5672 C   0  0  0  0  0  0  0  0  0  0  0  0
  -24.6394    1.2834   27.8753 C   0  0  0  0  0  0  0  0  0  0  0  0
  -23.4556    1.9996   27.5653 C   0  0  0  0  0  0  0  0  0  0  0  0
  -25.8432   -0.7373   27.9210 C   0  0  0  0  0  0  0  0  0  0  0  0
  -24.6903   -0.0521   27.5833 C   0  0  0  0  0  0  0  0  0  0  0  0
  -22.7440    2.4040   28.1606 O   0  0  0  0  0  0  0  0  0  0  0  0
  -23.2839    2.0859   26.1628 O   0  0  0  0  0  0  0  0  0  0  0  0
  -28.5475   -0.5479   30.2756 C   0  0  0  0  0  0  0  0  0  0  0  0
  -28.7137    0.7795   30.6377 C   0  0  0  0  0  0  0  0  0  0  0  0
  -27.7181    1.6572   30.0069 C   0  0  0  0  0  0  0  0  0  0  0  0
  -25.5574    3.3799   28.8831 C   0  0  0  0  0  0  0  0  0  0  0  0
  -24.7564    4.1101   28.5241 O   0  0  0  0  0  0  0  0  0  0  0  0
  -26.7084    3.9635   29.3504 O   0  0  0  0  0  0  0  0  0  0  0  0
  -29.5380    1.2104   31.6887 C   0  0  0  0  0  0  0  0  0  0  0  0
  -30.2722    1.9638   31.6080 O   0  0  0  0  0  0  0  0  0  0  0  0
  -29.0057    0.8485   32.8975 O   0  0  0  0  0  0  0  0  0  0  0  0
  -26.9592    5.2625   29.0310 C   0  0  0  0  0  0  0  0  0  0  0  0
  -26.6564    6.0791   29.9265 C   0  0  0  0  0  0  0  0  0  0  0  0
  -26.7506    5.7775   31.1462 O   0  0  0  0  0  0  0  0  0  0  0  0
  -27.7932    5.8155   31.8961 C   0  0  0  0  0  0  0  0  0  0  0  0
  -27.5755    6.2431   33.2565 C   0  0  0  0  0  0  0  0  0  0  0  0
  -28.5235    6.0643   34.0514 C   0  0  0  0  0  0  0  0  0  0  0  0
  -28.5283    4.4853   32.0267 C   0  0  0  0  0  0  0  0  0  0  0  0
  -29.7189    4.4124   32.7751 C   0  0  0  0  0  0  0  0  0  0  0  0
  -29.3031    4.8071   34.2043 C   0  0  0  0  0  0  0  0  0  0  0  0
  -27.8569    5.4673   27.9922 C   0  0  0  0  0  0  0  0  0  0  0  0
  -27.1620    7.5497   29.6818 C   0  0  0  0  0  0  0  0  0  0  0  0
  -27.6984    7.8097   28.5161 C   0  0  0  0  0  0  0  0  0  0  0  0
  -28.3885    6.7684   27.7862 C   0  0  0  0  0  0  0  0  0  0  0  0
  -26.6612    8.6443   30.5819 C   0  0  0  0  0  0  0  0  0  0  0  0
  -27.3839    8.9991   31.4466 O   0  0  0  0  0  0  0  0  0  0  0  0
  -25.4365    9.0753   30.4317 N   0  0  0  0  0  0  0  0  0  0  0  0
  3  4  1  0
  4  5  1  0
  5  6  1  0
  2  7  1  0
  5  8  1  0
  7  8  1  0
  6  9  2  0
  6 10  1  0
  4 14  1  0
 14 15  2  0
 14 16  1  0
 12 17  1  0
 17 18  2  0
 17 19  1  0
 16 20  1  0
 21 22  1  0
 22 23  1  0
 30 33  1  0
 33 34  2  0
 33 35  1  0
 23 24  2  0
 24 25  1  0
 25 28  2  0
 28 27  1  0
 27 26  2  0
 26 23  1  0
 20 21  2  0
 21 30  1  0
 30 31  2  0
 31 32  1  0
 32 29  2  0
 29 20  1  0
  1  2  2  0
  2  3  1  0
  3 13  2  0
 13 12  1  0
 12 11  2  0
 11  1  1  0
M  END

$$$$
