No_3417-gen_results/8p0m/2024-11-26-14-13-15/
     RDKit          3D

  9  9  0  0  0  0  0  0  0  0999 V2000
  -28.0727   -1.2542   28.5316 F   0  0  0  0  0  0  0  0  0  0  0  0
  -27.3591   -0.3792   28.7224 C   0  0  0  0  0  0  0  0  0  0  0  0
  -26.8100    0.1885   27.6513 C   0  0  0  0  0  0  0  0  0  0  0  0
  -25.6015    0.9529   27.6828 C   0  0  0  0  0  0  0  0  0  0  0  0
  -24.8881    1.5328   26.5873 C   0  0  0  0  0  0  0  0  0  0  0  0
  -25.4370    1.1787   25.3139 C   0  0  0  0  0  0  0  0  0  0  0  0
  -26.5059    0.3325   25.2401 C   0  0  0  0  0  0  0  0  0  0  0  0
  -27.1146   -0.1812   26.3328 C   0  0  0  0  0  0  0  0  0  0  0  0
  -26.3375   -0.7203   29.6335 F   0  0  0  0  0  0  0  0  0  0  0  0
  1  2  1  0
  2  9  1  0
  2  3  1  0
  3  4  2  0
  4  5  1  0
  5  6  2  0
  6  7  1  0
  7  8  2  0
  8  3  1  0
M  END

$$$$
