No_3662-gen_results/8p0m/2024-11-26-14-13-15/
     RDKit          3D

 19 20  0  0  0  0  0  0  0  0999 V2000
  -28.0162   -0.8135   28.8779 C   0  0  0  0  0  0  0  0  0  0  0  0
  -27.0636   -0.1190   28.6079 C   0  0  0  0  0  0  0  0  0  0  0  0
  -26.8756    1.1325   28.9134 C   0  0  0  0  0  0  0  0  0  0  0  0
  -25.6883    1.9515   28.5672 C   0  0  0  0  0  0  0  0  0  0  0  0
  -24.6394    1.2834   27.8753 C   0  0  0  0  0  0  0  0  0  0  0  0
  -24.8181   -0.0802   27.6166 C   0  0  0  0  0  0  0  0  0  0  0  0
  -25.9311   -0.7717   27.9696 C   0  0  0  0  0  0  0  0  0  0  0  0
  -28.0898   -1.4945   30.2341 C   0  0  0  0  0  0  0  0  0  0  0  0
  -29.1804   -2.2676   30.5988 N   0  0  0  0  0  0  0  0  0  0  0  0
  -23.4421    1.9624   27.4776 C   0  0  0  0  0  0  0  0  0  0  0  0
  -22.4576    1.4945   27.6189 F   0  0  0  0  0  0  0  0  0  0  0  0
  -23.4604    3.2355   28.1028 F   0  0  0  0  0  0  0  0  0  0  0  0
  -23.6283    2.3972   26.1689 F   0  0  0  0  0  0  0  0  0  0  0  0
  -29.0826   -3.5450   30.8859 C   0  0  0  0  0  0  0  0  0  0  0  0
  -30.4465   -1.6901   30.7053 C   0  0  0  0  0  0  0  0  0  0  0  0
  -31.4852   -2.4785   30.7011 C   0  0  0  0  0  0  0  0  0  0  0  0
  -30.1435   -4.4703   30.8316 C   0  0  0  0  0  0  0  0  0  0  0  0
  -31.3867   -3.8643   30.9357 C   0  0  0  0  0  0  0  0  0  0  0  0
  -27.0119   -1.3142   31.1778 C   0  0  0  0  0  0  0  0  0  0  0  0
  1  8  1  0
  8  9  1  0
  5 10  1  0
 10 11  1  0
 10 12  1  0
 10 13  1  0
  9 14  1  0
  9 15  1  0
 16 18  1  0
 17 18  1  0
  8 19  1  0
  1  2  1  0
 14 17  1  0
 16 15  1  0
  2  3  2  0
  3  4  1  0
  4  5  2  0
  5  6  1  0
  6  7  2  0
  7  2  1  0
M  END

$$$$
