No_3885-gen_results/8p0m/2024-11-26-14-13-15/
     RDKit          3D

 18 18  0  0  0  0  0  0  0  0999 V2000
  -28.0162   -0.8135   28.8779 C   0  0  0  0  0  0  0  0  0  0  0  0
  -27.0636   -0.1189   28.6079 C   0  0  0  0  0  0  0  0  0  0  0  0
  -26.9716    0.7139   27.5060 C   0  0  0  0  0  0  0  0  0  0  0  0
  -25.8206    1.4910   27.1160 C   0  0  0  0  0  0  0  0  0  0  0  0
  -24.6562    1.4242   27.9180 C   0  0  0  0  0  0  0  0  0  0  0  0
  -24.6847    0.5901   29.0659 C   0  0  0  0  0  0  0  0  0  0  0  0
  -25.8099   -0.1265   29.3338 C   0  0  0  0  0  0  0  0  0  0  0  0
  -29.2186   -0.0422   29.3127 C   0  0  0  0  0  0  0  0  0  0  0  0
  -30.1750   -0.7693   29.7129 O   0  0  0  0  0  0  0  0  0  0  0  0
  -29.3128    1.1255   29.1980 O   0  0  0  0  0  0  0  0  0  0  0  0
  -23.4791    2.2087   27.5910 C   0  0  0  0  0  0  0  0  0  0  0  0
  -22.6141    2.3223   28.4736 O   0  0  0  0  0  0  0  0  0  0  0  0
  -23.2672    2.5635   26.3527 O   0  0  0  0  0  0  0  0  0  0  0  0
  -25.7338   -0.8914   30.4214 F   0  0  0  0  0  0  0  0  0  0  0  0
  -28.1119    0.8204   26.5597 C   0  0  0  0  0  0  0  0  0  0  0  0
  -27.9359    0.5073   25.3772 O   0  0  0  0  0  0  0  0  0  0  0  0
  -29.2214    1.3025   26.9180 O   0  0  0  0  0  0  0  0  0  0  0  0
  -29.7059    2.0254   25.7960 C   0  0  0  0  0  0  0  0  0  0  0  0
  1  2  2  3
  2  3  1  0
  3  4  1  0
  4  5  1  0
  5  6  1  0
  2  7  1  0
  6  7  1  0
  1  8  1  0
  8  9  1  0
  8 10  2  0
  5 11  1  0
 11 12  2  0
 11 13  1  0
  7 14  1  0
  3 15  1  0
 15 16  2  0
 15 17  1  0
 17 18  1  0
M  END

$$$$
