No_3945-gen_results/8p0m/2024-11-26-14-13-15/
     RDKit          3D

  7  7  0  0  0  0  0  0  0  0999 V2000
  -28.0162   -0.8135   28.8779 C   0  0  0  0  0  0  0  0  0  0  0  0
  -27.0636   -0.1190   28.6079 C   0  0  0  0  0  0  0  0  0  0  0  0
  -25.6156   -0.5162   28.8771 Cl  0  0  0  0  0  0  0  0  0  0  0  0
  -29.2901   -0.2112   28.9176 C   0  0  0  0  0  0  0  0  0  0  0  0
  -29.4805    1.0009   28.2943 C   0  0  0  0  0  0  0  0  0  0  0  0
  -28.4100    1.7309   27.8464 C   0  0  0  0  0  0  0  0  0  0  0  0
  -27.1226    1.1790   27.9941 C   0  0  0  0  0  0  0  0  0  0  0  0
  2  3  1  0
  1  2  2  0
  2  7  1  0
  7  6  2  0
  6  5  1  0
  5  4  2  0
  4  1  1  0
M  END

$$$$
