No_3109-gen_results/8p0m/2024-11-26-14-13-15/
     RDKit          3D

 13 13  0  0  0  0  0  0  0  0999 V2000
  -28.0162   -0.8135   28.8779 C   0  0  0  0  0  0  0  0  0  0  0  0
  -27.0636   -0.1189   28.6079 C   0  0  0  0  0  0  0  0  0  0  0  0
  -26.9287    1.1713   29.0083 C   0  0  0  0  0  0  0  0  0  0  0  0
  -25.7702    2.0341   28.6884 C   0  0  0  0  0  0  0  0  0  0  0  0
  -24.7141    1.4431   27.9188 C   0  0  0  0  0  0  0  0  0  0  0  0
  -24.8590    0.0783   27.5836 C   0  0  0  0  0  0  0  0  0  0  0  0
  -25.9647   -0.6606   27.9164 C   0  0  0  0  0  0  0  0  0  0  0  0
  -27.8152   -2.0223   29.4811 F   0  0  0  0  0  0  0  0  0  0  0  0
  -29.2151   -0.5747   28.7340 F   0  0  0  0  0  0  0  0  0  0  0  0
  -23.5407    2.1511   27.5672 C   0  0  0  0  0  0  0  0  0  0  0  0
  -22.6685    1.5851   27.1001 F   0  0  0  0  0  0  0  0  0  0  0  0
  -23.0311    2.8006   28.6999 F   0  0  0  0  0  0  0  0  0  0  0  0
  -23.9145    3.2243   26.7822 F   0  0  0  0  0  0  0  0  0  0  0  0
  1  2  1  0
  1  8  1  0
  1  9  1  0
  5 10  1  0
 10 11  1  0
 10 12  1  0
 10 13  1  0
  2  3  2  0
  3  4  1  0
  4  5  2  0
  5  6  1  0
  6  7  2  0
  7  2  1  0
M  END

$$$$
