No_3094-gen_results/8p0m/2024-11-26-14-13-15/
     RDKit          3D

 35 38  0  0  0  0  0  0  0  0999 V2000
  -28.1229   -1.3353   28.4874 O   0  0  0  0  0  0  0  0  0  0  0  0
  -27.0637   -0.8242   28.8687 C   0  0  0  0  0  0  0  0  0  0  0  0
  -26.4017   -0.0623   28.6224 C   0  0  0  0  0  0  0  0  0  0  0  0
  -26.3805   -1.7991   29.9619 N   0  0  0  0  0  0  0  0  0  0  0  0
  -26.7771    1.0571   27.7896 C   0  0  0  0  0  0  0  0  0  0  0  0
  -25.9129    1.9788   27.2177 C   0  0  0  0  0  0  0  0  0  0  0  0
  -24.5242    2.0312   27.6989 C   0  0  0  0  0  0  0  0  0  0  0  0
  -24.1056    1.0476   28.5575 C   0  0  0  0  0  0  0  0  0  0  0  0
  -24.9060    0.0666   28.9860 C   0  0  0  0  0  0  0  0  0  0  0  0
  -25.2752   -1.5559   30.5959 C   0  0  0  0  0  0  0  0  0  0  0  0
  -24.3947   -0.7661   30.0325 C   0  0  0  0  0  0  0  0  0  0  0  0
  -22.6433    1.1228   28.9216 C   0  0  0  0  0  0  0  0  0  0  0  0
  -21.9392    0.4524   28.5624 N   0  0  0  0  0  0  0  0  0  0  0  0
  -21.5462   -0.6610   28.6469 C   0  0  0  0  0  0  0  0  0  0  0  0
  -20.9496    1.1882   27.6126 C   0  0  0  0  0  0  0  0  0  0  0  0
  -27.3326   -2.8971   30.4692 C   0  0  0  0  0  0  0  0  0  0  0  0
  -26.9633   -4.1467   30.0138 C   0  0  0  0  0  0  0  0  0  0  0  0
  -25.9478   -4.3303   29.3025 O   0  0  0  0  0  0  0  0  0  0  0  0
  -27.8150   -5.1686   30.3061 N   0  0  0  0  0  0  0  0  0  0  0  0
  -28.2427   -2.5889   31.2510 O   0  0  0  0  0  0  0  0  0  0  0  0
  -28.0107    1.0182   27.2772 O   0  0  0  0  0  0  0  0  0  0  0  0
  -28.8830    1.9557   27.8592 C   0  0  0  0  0  0  0  0  0  0  0  0
  -30.0905    1.5125   28.1106 C   0  0  0  0  0  0  0  0  0  0  0  0
  -30.5713    0.2651   27.7867 C   0  0  0  0  0  0  0  0  0  0  0  0
  -31.8875   -0.2360   28.1028 C   0  0  0  0  0  0  0  0  0  0  0  0
  -32.2951   -1.5193   27.7767 C   0  0  0  0  0  0  0  0  0  0  0  0
  -32.8764   -2.3279   28.6366 C   0  0  0  0  0  0  0  0  0  0  0  0
  -33.5542   -1.7751   29.7744 C   0  0  0  0  0  0  0  0  0  0  0  0
  -33.2360   -0.4569   30.1167 C   0  0  0  0  0  0  0  0  0  0  0  0
  -32.3785    0.1826   29.4244 C   0  0  0  0  0  0  0  0  0  0  0  0
  -32.0375    1.4825   30.0207 C   0  0  0  0  0  0  0  0  0  0  0  0
  -30.7657    2.1031   29.3676 C   0  0  0  0  0  0  0  0  0  0  0  0
  -30.3046    3.3692   29.8889 C   0  0  0  0  0  0  0  0  0  0  0  0
  -30.9283    4.2626   30.1770 C   0  0  0  0  0  0  0  0  0  0  0  0
  -32.3673    4.3563   30.1028 C   0  0  0  0  0  0  0  0  0  0  0  0
  1  2  2  0
  2  3  1  0
  2  4  1  0
  4 10  1  0
  9 11  1  0
  8 12  1  0
 12 13  1  0
 13 14  1  0
 13 15  1  0
  4 16  1  0
 16 17  1  0
 17 18  2  0
 17 19  1  0
 16 20  2  0
  5 21  1  0
 21 22  1  0
 32 33  1  0
 33 34  2  3
 34 35  1  0
 22 23  1  0
 11 10  1  0
 23 24  2  0
 24 25  1  0
 30 31  1  0
 31 32  2  0
 32 23  1  0
  3  5  2  0
  5  6  1  0
  6  7  2  0
  7  8  1  0
  8  9  2  0
  9  3  1  0
 25 26  2  0
 26 27  1  0
 27 28  2  0
 28 29  1  0
 29 30  2  0
 30 25  1  0
M  END

$$$$
