No_3759-gen_results/8p0m/2024-11-26-14-13-15/
     RDKit          3D

 34 36  0  0  0  0  0  0  0  0999 V2000
  -28.0162   -0.8135   28.8779 C   0  0  0  0  0  0  0  0  0  0  0  0
  -28.4690   -0.7850   29.8287 C   0  0  0  0  0  0  0  0  0  0  0  0
  -27.1356    0.2359   28.5352 C   0  0  0  0  0  0  0  0  0  0  0  0
  -26.8745    1.2825   29.3982 C   0  0  0  0  0  0  0  0  0  0  0  0
  -28.3613    0.1987   30.9244 C   0  0  0  0  0  0  0  0  0  0  0  0
  -27.5277    1.2234   30.6356 C   0  0  0  0  0  0  0  0  0  0  0  0
  -26.3987    0.2949   27.2279 C   0  0  0  0  0  0  0  0  0  0  0  0
  -26.9306   -0.1351   26.3032 F   0  0  0  0  0  0  0  0  0  0  0  0
  -25.9613    1.6138   26.9363 F   0  0  0  0  0  0  0  0  0  0  0  0
  -25.0817   -0.3512   27.4290 F   0  0  0  0  0  0  0  0  0  0  0  0
  -29.4021   -1.9985   30.3266 C   0  0  0  0  0  0  0  0  0  0  0  0
  -28.9967   -3.1311   30.3934 O   0  0  0  0  0  0  0  0  0  0  0  0
  -30.6359   -1.8154   30.7506 N   0  0  0  0  0  0  0  0  0  0  0  0
  -31.5009   -2.8604   31.1593 C   0  0  0  0  0  0  0  0  0  0  0  0
  -31.2690   -0.4527   30.7463 C   0  0  0  0  0  0  0  0  0  0  0  0
  -32.3659   -0.4812   29.9304 C   0  0  0  0  0  0  0  0  0  0  0  0
  -32.9911    0.6900   29.8783 C   0  0  0  0  0  0  0  0  0  0  0  0
  -32.5327    1.8752   30.5474 C   0  0  0  0  0  0  0  0  0  0  0  0
  -31.4415    1.7363   31.3525 C   0  0  0  0  0  0  0  0  0  0  0  0
  -30.8280    0.5971   31.4559 C   0  0  0  0  0  0  0  0  0  0  0  0
  -27.3173    2.4061   31.5670 C   0  0  0  0  0  0  0  0  0  0  0  0
  -28.0064    3.4082   31.4832 O   0  0  0  0  0  0  0  0  0  0  0  0
  -26.1991    2.3669   32.2877 O   0  0  0  0  0  0  0  0  0  0  0  0
  -25.9675    3.4197   33.0488 C   0  0  0  0  0  0  0  0  0  0  0  0
  -24.9493    4.3779   32.4840 C   0  0  0  0  0  0  0  0  0  0  0  0
  -24.5616    5.2943   33.2011 O   0  0  0  0  0  0  0  0  0  0  0  0
  -24.4529    4.0692   31.3503 O   0  0  0  0  0  0  0  0  0  0  0  0
  -31.3323   -3.2757   32.4688 C   0  0  0  0  0  0  0  0  0  0  0  0
  -30.8390   -2.7552   33.3314 C   0  0  0  0  0  0  0  0  0  0  0  0
  -30.6470   -3.2429   34.7338 C   0  0  0  0  0  0  0  0  0  0  0  0
  -31.2058   -4.4895   34.9487 C   0  0  0  0  0  0  0  0  0  0  0  0
  -31.8905   -4.6227   32.7743 C   0  0  0  0  0  0  0  0  0  0  0  0
  -31.7875   -5.1772   33.9845 C   0  0  0  0  0  0  0  0  0  0  0  0
  -32.0455   -3.5122   30.2323 O   0  0  0  0  0  0  0  0  0  0  0  0
  3  7  1  0
  7  8  1  0
  7  9  1  0
  7 10  1  0
  2 11  1  0
 11 12  2  0
 11 13  1  0
 13 14  1  0
 13 15  1  0
  6 21  1  0
 21 22  2  0
 21 23  1  0
 23 24  1  0
 24 25  1  0
 25 26  2  0
 25 27  1  0
 14 28  1  0
 14 34  2  0
 15 16  2  0
 16 17  1  0
 17 18  2  0
 18 19  1  0
 19 20  2  0
 20 15  1  0
 28 29  2  0
 29 30  1  0
 30 31  2  0
 31 33  1  0
 33 32  2  0
 32 28  1  0
  1  2  2  0
  2  5  1  0
  5  6  2  0
  6  4  1  0
  4  3  2  0
  3  1  1  0
M  END

$$$$
