No_349-gen_results/8p0m/2024-11-26-14-13-15/
     RDKit          3D

 15 17  0  0  0  0  0  0  0  0999 V2000
  -28.0162   -0.8135   28.8779 C   0  0  0  0  0  0  0  0  0  0  0  0
  -28.4690   -0.7850   29.8287 C   0  0  0  0  0  0  0  0  0  0  0  0
  -26.5041   -0.7777   28.8766 C   0  0  0  0  0  0  0  0  0  0  0  0
  -25.8103   -0.8531   30.1028 C   0  0  0  0  0  0  0  0  0  0  0  0
  -27.9906   -0.8916   31.2257 C   0  0  0  0  0  0  0  0  0  0  0  0
  -26.6042   -0.8676   31.2652 C   0  0  0  0  0  0  0  0  0  0  0  0
  -29.9765   -0.8288   29.8497 N   0  0  0  0  0  0  0  0  0  0  0  0
  -30.5795   -0.1232   28.9820 C   0  0  0  0  0  0  0  0  0  0  0  0
  -30.0138    0.7594   28.2913 C   0  0  0  0  0  0  0  0  0  0  0  0
  -30.3739    1.5433   27.7623 C   0  0  0  0  0  0  0  0  0  0  0  0
  -29.6360    2.5795   26.9680 C   0  0  0  0  0  0  0  0  0  0  0  0
  -28.2531    2.3549   26.7928 C   0  0  0  0  0  0  0  0  0  0  0  0
  -27.7524    1.2452   27.3465 C   0  0  0  0  0  0  0  0  0  0  0  0
  -28.5379    0.4457   28.0848 C   0  0  0  0  0  0  0  0  0  0  0  0
  -31.7915   -0.5288   28.8688 O   0  0  0  0  0  0  0  0  0  0  0  0
  2  7  1  0
  7  8  1  0
  8  9  1  0
  1 14  1  0
  8 15  2  0
  9 10  2  0
 10 11  1  0
 11 12  2  0
 12 13  1  0
 13 14  2  0
 14  9  1  0
  1  2  2  0
  2  5  1  0
  5  6  2  0
  6  4  1  0
  4  3  2  0
  3  1  1  0
M  END

$$$$
