No_3982-gen_results/8p0m/2024-11-26-14-13-15/
     RDKit          3D

 26 27  0  0  0  0  0  0  0  0999 V2000
  -28.0162   -0.8135   28.8779 C   0  0  0  0  0  0  0  0  0  0  0  0
  -28.4690   -0.7850   29.8287 C   0  0  0  0  0  0  0  0  0  0  0  0
  -28.1816    0.4277   28.1134 C   0  0  0  0  0  0  0  0  0  0  0  0
  -28.9841    1.4155   28.5154 C   0  0  0  0  0  0  0  0  0  0  0  0
  -29.3802    0.1384   30.4612 C   0  0  0  0  0  0  0  0  0  0  0  0
  -29.5415    1.2736   29.7242 C   0  0  0  0  0  0  0  0  0  0  0  0
  -27.4586    0.4934   26.7701 C   0  0  0  0  0  0  0  0  0  0  0  0
  -26.4813    1.5210   26.6301 C   0  0  0  0  0  0  0  0  0  0  0  0
  -25.2027    1.4103   27.3432 C   0  0  0  0  0  0  0  0  0  0  0  0
  -24.2794    2.4114   27.2150 C   0  0  0  0  0  0  0  0  0  0  0  0
  -22.9946    2.3383   27.8506 C   0  0  0  0  0  0  0  0  0  0  0  0
  -22.6580    1.0869   28.5328 C   0  0  0  0  0  0  0  0  0  0  0  0
  -23.5781    0.0859   28.5460 C   0  0  0  0  0  0  0  0  0  0  0  0
  -24.8241    0.2126   27.9752 C   0  0  0  0  0  0  0  0  0  0  0  0
  -23.2482   -1.1644   29.2840 C   0  0  0  0  0  0  0  0  0  0  0  0
  -22.6408   -1.0856   30.5288 C   0  0  0  0  0  0  0  0  0  0  0  0
  -26.4102    2.0183   25.2418 C   0  0  0  0  0  0  0  0  0  0  0  0
  -27.9468   -0.1363   25.8068 O   0  0  0  0  0  0  0  0  0  0  0  0
  -23.7656   -2.3876   28.8283 C   0  0  0  0  0  0  0  0  0  0  0  0
  -24.4656   -3.2414   29.7854 C   0  0  0  0  0  0  0  0  0  0  0  0
  -25.3009   -4.2260   29.0760 C   0  0  0  0  0  0  0  0  0  0  0  0
  -26.5231   -4.5832   29.8805 C   0  0  0  0  0  0  0  0  0  0  0  0
  -27.8389   -4.1063   29.2423 C   0  0  0  0  0  0  0  0  0  0  0  0
  -29.0190   -4.6411   29.9935 C   0  0  0  0  0  0  0  0  0  0  0  0
  -28.9642   -4.9815   31.1538 O   0  0  0  0  0  0  0  0  0  0  0  0
  -30.0838   -4.7409   29.3369 O   0  0  0  0  0  0  0  0  0  0  0  0
  3  7  1  0
  7  8  1  0
  8  9  1  0
 13 15  1  0
 15 16  1  0
  8 17  1  0
  7 18  2  0
 15 19  1  0
 19 20  1  0
 20 21  1  0
 21 22  1  0
 22 23  1  0
 23 24  1  0
 24 25  2  0
 24 26  1  0
  9 10  2  0
 10 11  1  0
 11 12  2  0
 12 13  1  0
 13 14  2  0
 14  9  1  0
  1  2  2  0
  2  5  1  0
  5  6  2  0
  6  4  1  0
  4  3  2  0
  3  1  1  0
M  END

$$$$
