No_3391-gen_results/8p0m/2024-11-26-14-13-15/
     RDKit          3D

 21 23  0  0  0  0  0  0  0  0999 V2000
  -28.0162   -0.8135   28.8779 C   0  0  0  0  0  0  0  0  0  0  0  0
  -27.0636   -0.1190   28.6079 C   0  0  0  0  0  0  0  0  0  0  0  0
  -25.7923   -0.4302   29.0761 C   0  0  0  0  0  0  0  0  0  0  0  0
  -25.2700   -0.0487   30.0123 C   0  0  0  0  0  0  0  0  0  0  0  0
  -28.5191   -0.6302   30.0918 C   0  0  0  0  0  0  0  0  0  0  0  0
  -27.6457   -0.5646   31.3559 C   0  0  0  0  0  0  0  0  0  0  0  0
  -26.2105   -0.2297   31.3879 C   0  0  0  0  0  0  0  0  0  0  0  0
  -26.8350    0.2952   27.0996 C   0  0  0  0  0  0  0  0  0  0  0  0
  -25.6316    0.5726   26.6117 C   0  0  0  0  0  0  0  0  0  0  0  0
  -24.5170    0.0727   27.3494 C   0  0  0  0  0  0  0  0  0  0  0  0
  -25.0933   -1.3891   28.4870 N   0  0  0  0  0  0  0  0  0  0  0  0
  -24.0874   -1.3482   27.5720 C   0  0  0  0  0  0  0  0  0  0  0  0
  -24.9479   -2.6023   29.2320 C   0  0  0  0  0  0  0  0  0  0  0  0
  -27.9859    0.7153   26.2748 C   0  0  0  0  0  0  0  0  0  0  0  0
  -28.9517    1.2577   26.8193 N   0  0  0  0  0  0  0  0  0  0  0  0
  -28.8463    2.5977   27.1136 C   0  0  0  0  0  0  0  0  0  0  0  0
  -30.3130    0.7082   26.9321 C   0  0  0  0  0  0  0  0  0  0  0  0
  -28.0806    0.1864   25.1776 O   0  0  0  0  0  0  0  0  0  0  0  0
  -24.6758   -3.7908   28.6403 C   0  0  0  0  0  0  0  0  0  0  0  0
  -25.5387   -2.7317   30.5360 C   0  0  0  0  0  0  0  0  0  0  0  0
  -25.5520   -1.6946   31.6965 C   0  0  0  0  0  0  0  0  0  0  0  0
  1  2  1  0
  2  3  1  0
  3  4  2  0
  1  5  1  0
  5  6  2  0
  4  7  1  0
  6  7  1  0
  2  8  1  0
  8  9  2  0
  9 10  1  0
  3 11  1  0
 10 12  1  0
 11 12  1  0
 11 13  1  0
  8 14  1  0
 14 15  1  0
 15 16  1  0
 15 17  1  0
 14 18  2  0
 13 19  2  0
 13 20  1  0
  7 21  1  0
 20 21  1  0
M  END

$$$$
