No_3580-gen_results/8p0m/2024-11-26-14-13-15/
     RDKit          3D

 22 23  0  0  0  0  0  0  0  0999 V2000
  -28.0162   -0.8135   28.8779 C   0  0  0  0  0  0  0  0  0  0  0  0
  -27.0636   -0.1189   28.6079 C   0  0  0  0  0  0  0  0  0  0  0  0
  -26.9287    1.1713   29.0083 C   0  0  0  0  0  0  0  0  0  0  0  0
  -27.9560    1.7411   29.7840 C   0  0  0  0  0  0  0  0  0  0  0  0
  -29.0569   -0.3271   29.7466 C   0  0  0  0  0  0  0  0  0  0  0  0
  -28.9828    0.9722   30.1516 C   0  0  0  0  0  0  0  0  0  0  0  0
  -25.8907   -0.6263   27.7857 C   0  0  0  0  0  0  0  0  0  0  0  0
  -25.4633    0.1123   26.6815 C   0  0  0  0  0  0  0  0  0  0  0  0
  -25.0310   -1.6701   28.2406 C   0  0  0  0  0  0  0  0  0  0  0  0
  -23.8639   -1.4110   29.0099 C   0  0  0  0  0  0  0  0  0  0  0  0
  -23.2675   -0.1518   29.0496 C   0  0  0  0  0  0  0  0  0  0  0  0
  -21.8590   -0.0594   29.1892 C   0  0  0  0  0  0  0  0  0  0  0  0
  -21.1005    0.0202   28.2465 C   0  0  0  0  0  0  0  0  0  0  0  0
  -26.2279    0.7849   25.9293 C   0  0  0  0  0  0  0  0  0  0  0  0
  -27.6565    0.8118   26.1198 C   0  0  0  0  0  0  0  0  0  0  0  0
  -28.4443    1.4342   25.1238 C   0  0  0  0  0  0  0  0  0  0  0  0
  -29.7946    1.5608   25.3559 C   0  0  0  0  0  0  0  0  0  0  0  0
  -30.3117    0.9342   26.4860 C   0  0  0  0  0  0  0  0  0  0  0  0
  -31.7206    1.0335   26.6790 C   0  0  0  0  0  0  0  0  0  0  0  0
  -32.4521    1.7794   25.8066 C   0  0  0  0  0  0  0  0  0  0  0  0
  -31.9617    2.4031   24.7156 C   0  0  0  0  0  0  0  0  0  0  0  0
  -30.5981    2.3281   24.4830 C   0  0  0  0  0  0  0  0  0  0  0  0
  2  7  1  0
  7  8  1  0
  7  9  1  0
  9 10  1  0
 10 11  1  0
 11 12  2  3
 12 13  1  0
  8 14  2  3
 14 15  1  0
 15 16  2  3
 16 17  1  0
 17 18  2  0
 18 19  1  0
 19 20  2  0
 20 21  1  0
 21 22  2  0
 22 17  1  0
  1  2  2  0
  2  3  1  0
  3  4  2  0
  4  6  1  0
  6  5  2  0
  5  1  1  0
M  END

$$$$
