No_3545-gen_results/8p0m/2024-11-26-14-13-15/
     RDKit          3D

 20 22  0  0  0  0  0  0  0  0999 V2000
  -28.0162   -0.8135   28.8779 C   0  0  0  0  0  0  0  0  0  0  0  0
  -28.4690   -0.7850   29.8287 C   0  0  0  0  0  0  0  0  0  0  0  0
  -26.5455   -0.8762   28.8500 C   0  0  0  0  0  0  0  0  0  0  0  0
  -25.8041   -1.0324   30.0571 C   0  0  0  0  0  0  0  0  0  0  0  0
  -27.9437   -0.9869   31.2075 C   0  0  0  0  0  0  0  0  0  0  0  0
  -26.5825   -1.0386   31.2231 C   0  0  0  0  0  0  0  0  0  0  0  0
  -24.3810   -1.1082   30.0855 C   0  0  0  0  0  0  0  0  0  0  0  0
  -23.7590   -1.1322   30.8961 C   0  0  0  0  0  0  0  0  0  0  0  0
  -22.2395   -1.0663   30.9853 C   0  0  0  0  0  0  0  0  0  0  0  0
  -21.8504   -0.6104   29.7311 C   0  0  0  0  0  0  0  0  0  0  0  0
  -23.4704   -0.5791   28.9040 C   0  0  0  0  0  0  0  0  0  0  0  0
  -30.0972   -0.6869   29.8753 C   0  0  0  0  0  0  0  0  0  0  0  0
  -30.5219   -0.1805   28.9466 O   0  0  0  0  0  0  0  0  0  0  0  0
  -30.7980   -1.1537   30.9246 N   0  0  0  0  0  0  0  0  0  0  0  0
  -32.2338   -1.0546   30.9057 C   0  0  0  0  0  0  0  0  0  0  0  0
  -32.8837   -1.4540   31.6550 C   0  0  0  0  0  0  0  0  0  0  0  0
  -34.3410   -1.3647   31.6810 C   0  0  0  0  0  0  0  0  0  0  0  0
  -34.9017   -0.6936   30.5624 C   0  0  0  0  0  0  0  0  0  0  0  0
  -34.0619   -0.2154   29.5947 C   0  0  0  0  0  0  0  0  0  0  0  0
  -32.7299   -0.3226   29.6973 C   0  0  0  0  0  0  0  0  0  0  0  0
  4  7  1  0
  7  8  2  0
  8  9  1  0
  9 10  2  0
  7 11  1  0
 10 11  1  0
  2 12  1  0
 12 13  2  0
 12 14  1  0
 14 15  1  0
 15 16  2  0
 16 17  1  0
 17 18  2  0
 18 19  1  0
 19 20  2  0
 20 15  1  0
  1  2  2  0
  2  5  1  0
  5  6  2  0
  6  4  1  0
  4  3  2  0
  3  1  1  0
M  END

$$$$
