No_3583-gen_results/8p0m/2024-11-26-14-13-15/
     RDKit          3D

 17 20  0  0  0  0  0  0  0  0999 V2000
  -28.1229   -1.3353   28.4874 O   0  0  0  0  0  0  0  0  0  0  0  0
  -27.4806   -0.4044   28.7094 C   0  0  0  0  0  0  0  0  0  0  0  0
  -27.1904    0.2460   29.5268 C   0  0  0  0  0  0  0  0  0  0  0  0
  -26.8157    0.1371   27.4262 N   0  0  0  0  0  0  0  0  0  0  0  0
  -27.5787    0.0639   30.8960 C   0  0  0  0  0  0  0  0  0  0  0  0
  -25.8899    1.1418   27.4087 C   0  0  0  0  0  0  0  0  0  0  0  0
  -25.1603    1.4941   26.3219 C   0  0  0  0  0  0  0  0  0  0  0  0
  -24.0875    2.5040   26.5177 C   0  0  0  0  0  0  0  0  0  0  0  0
  -23.8608    2.9935   27.7922 C   0  0  0  0  0  0  0  0  0  0  0  0
  -25.2703    1.8174   28.5971 C   0  0  0  0  0  0  0  0  0  0  0  0
  -24.3763    2.7128   28.6849 C   0  0  0  0  0  0  0  0  0  0  0  0
  -27.3028    0.7569   32.0611 C   0  0  0  0  0  0  0  0  0  0  0  0
  -26.1205    1.3125   29.8925 C   0  0  0  0  0  0  0  0  0  0  0  0
  -25.9819    1.8551   31.1642 C   0  0  0  0  0  0  0  0  0  0  0  0
  -25.3199    2.4998   32.0827 C   0  0  0  0  0  0  0  0  0  0  0  0
  -25.8264    2.3163   33.2833 N   0  0  0  0  0  0  0  0  0  0  0  0
  -26.8370    1.2876   33.3788 C   0  0  0  0  0  0  0  0  0  0  0  0
  1  2  2  0
  2  3  1  0
  2  4  1  0
  3  5  1  0
  4  6  1  0
  5 12  2  0
  3 13  1  0
 10 13  1  0
 12 14  1  0
 13 14  1  0
 14 15  1  0
 15 16  2  0
 12 17  1  0
 16 17  1  0
  6  7  2  0
  7  8  1  0
  8  9  2  0
  9 11  1  0
 11 10  2  0
 10  6  1  0
M  END

$$$$
