No_3197-gen_results/8p0m/2024-11-26-14-13-15/
     RDKit          3D

 18 19  0  0  0  0  0  0  0  0999 V2000
  -28.0162   -0.8135   28.8779 C   0  0  0  0  0  0  0  0  0  0  0  0
  -27.0636   -0.1189   28.6079 C   0  0  0  0  0  0  0  0  0  0  0  0
  -25.8176   -0.3427   29.0487 N   0  0  0  0  0  0  0  0  0  0  0  0
  -24.6757    0.3814   28.7496 C   0  0  0  0  0  0  0  0  0  0  0  0
  -23.3317    0.0231   29.2052 C   0  0  0  0  0  0  0  0  0  0  0  0
  -27.1812    0.9682   27.6388 C   0  0  0  0  0  0  0  0  0  0  0  0
  -26.0788    1.7596   27.1955 C   0  0  0  0  0  0  0  0  0  0  0  0
  -24.7013    1.4434   27.7655 C   0  0  0  0  0  0  0  0  0  0  0  0
  -23.1408   -0.9126   30.1707 C   0  0  0  0  0  0  0  0  0  0  0  0
  -22.2123    0.6751   28.6117 C   0  0  0  0  0  0  0  0  0  0  0  0
  -20.9244    0.1457   28.9622 C   0  0  0  0  0  0  0  0  0  0  0  0
  -21.7962   -1.2788   30.5648 C   0  0  0  0  0  0  0  0  0  0  0  0
  -20.7514   -0.7134   29.9293 C   0  0  0  0  0  0  0  0  0  0  0  0
  -27.8599   -1.5487   30.0796 N   0  0  0  0  0  0  0  0  0  0  0  0
  -28.7305   -1.6607   31.1068 C   0  0  0  0  0  0  0  0  0  0  0  0
  -29.9443   -1.8771   30.8869 C   0  0  0  0  0  0  0  0  0  0  0  0
  -30.9111   -1.2236   30.5283 C   0  0  0  0  0  0  0  0  0  0  0  0
  -32.2446   -1.5993   30.2484 C   0  0  0  0  0  0  0  0  0  0  0  0
  1  2  1  0
  4  5  1  0
  1 14  1  0
 14 15  1  0
 15 16  1  0
 16 17  2  3
 17 18  1  0
  5  9  2  0
  9 12  1  0
 12 13  2  0
 13 11  1  0
 11 10  2  0
 10  5  1  0
  2  3  2  0
  3  4  1  0
  4  8  2  0
  8  7  1  0
  7  6  2  0
  6  2  1  0
M  END

$$$$
