No_3725-gen_results/8p0m/2024-11-26-14-13-15/
     RDKit          3D

 15 16  0  0  0  0  0  0  0  0999 V2000
  -28.0727   -1.2542   28.5316 F   0  0  0  0  0  0  0  0  0  0  0  0
  -27.3591   -0.3792   28.7224 C   0  0  0  0  0  0  0  0  0  0  0  0
  -26.3323   -0.6441   29.4520 C   0  0  0  0  0  0  0  0  0  0  0  0
  -25.2562    0.3203   29.7818 C   0  0  0  0  0  0  0  0  0  0  0  0
  -25.4242    1.6275   29.2026 C   0  0  0  0  0  0  0  0  0  0  0  0
  -26.5263    1.8254   28.4032 C   0  0  0  0  0  0  0  0  0  0  0  0
  -27.4513    0.8601   28.1355 C   0  0  0  0  0  0  0  0  0  0  0  0
  -28.4783    1.1476   27.3388 O   0  0  0  0  0  0  0  0  0  0  0  0
  -29.6495    0.8540   27.6425 C   0  0  0  0  0  0  0  0  0  0  0  0
  -30.4814    0.5258   26.5168 C   0  0  0  0  0  0  0  0  0  0  0  0
  -30.0076    0.6094   25.2845 C   0  0  0  0  0  0  0  0  0  0  0  0
  -30.7952    0.3266   24.2240 C   0  0  0  0  0  0  0  0  0  0  0  0
  -31.6818   -0.3082   24.3163 C   0  0  0  0  0  0  0  0  0  0  0  0
  -32.3104   -0.6927   25.5784 C   0  0  0  0  0  0  0  0  0  0  0  0
  -31.6392   -0.2730   26.7233 C   0  0  0  0  0  0  0  0  0  0  0  0
  1  2  1  0
  7  8  1  0
  8  9  1  0
  9 10  1  0
  2  3  2  0
  3  4  1  0
  4  5  2  0
  5  6  1  0
  6  7  2  0
  7  2  1  0
 10 11  2  0
 11 12  1  0
 12 13  2  0
 13 14  1  0
 14 15  2  0
 15 10  1  0
M  END

$$$$
