No_3165-gen_results/8p0m/2024-11-26-14-13-15/
     RDKit          3D

 21 23  0  0  0  0  0  0  0  0999 V2000
  -28.0162   -0.8135   28.8779 C   0  0  0  0  0  0  0  0  0  0  0  0
  -28.4690   -0.7850   29.8287 C   0  0  0  0  0  0  0  0  0  0  0  0
  -28.1816    0.4277   28.1134 C   0  0  0  0  0  0  0  0  0  0  0  0
  -28.9841    1.4155   28.5154 C   0  0  0  0  0  0  0  0  0  0  0  0
  -28.3375   -2.0481   30.7873 C   0  0  0  0  0  0  0  0  0  0  0  0
  -29.5615    1.2930   29.7416 C   0  0  0  0  0  0  0  0  0  0  0  0
  -29.3196    0.1647   30.4451 C   0  0  0  0  0  0  0  0  0  0  0  0
  -27.3512   -2.1149   31.3658 O   0  0  0  0  0  0  0  0  0  0  0  0
  -29.2690   -2.9704   30.7086 O   0  0  0  0  0  0  0  0  0  0  0  0
  -27.4357    0.5008   26.7552 C   0  0  0  0  0  0  0  0  0  0  0  0
  -27.9772    0.9485   25.6508 C   0  0  0  0  0  0  0  0  0  0  0  0
  -25.9797    0.6263   26.8505 C   0  0  0  0  0  0  0  0  0  0  0  0
  -25.1749    0.1519   27.8717 C   0  0  0  0  0  0  0  0  0  0  0  0
  -23.8205    0.3058   27.9315 C   0  0  0  0  0  0  0  0  0  0  0  0
  -23.1849    1.1295   26.9738 C   0  0  0  0  0  0  0  0  0  0  0  0
  -23.9451    1.6832   25.9193 C   0  0  0  0  0  0  0  0  0  0  0  0
  -25.3295    1.5125   25.9172 C   0  0  0  0  0  0  0  0  0  0  0  0
  -29.0649    0.4450   25.3236 O   0  0  0  0  0  0  0  0  0  0  0  0
  -27.3393    1.5433   24.6842 O   0  0  0  0  0  0  0  0  0  0  0  0
  -21.9068    1.3888   27.1451 F   0  0  0  0  0  0  0  0  0  0  0  0
  -26.1231    1.9068   24.8214 C   0  0  0  0  0  0  0  0  0  0  0  0
  2  5  1  0
  5  8  2  0
  5  9  1  0
  3 10  1  0
 10 11  1  0
 10 12  1  0
 11 18  2  0
 11 19  1  0
 15 20  1  0
 17 21  1  0
 19 21  1  0
 12 13  2  0
 13 14  1  0
 14 15  2  0
 15 16  1  0
 16 17  2  0
 17 12  1  0
  1  2  2  0
  2  7  1  0
  7  6  2  0
  6  4  1  0
  4  3  2  0
  3  1  1  0
M  END

$$$$
