No_3967-gen_results/8p0m/2024-11-26-14-13-15/
     RDKit          3D

 15 15  0  0  0  0  0  0  0  0999 V2000
  -28.0162   -0.8135   28.8779 C   0  0  0  0  0  0  0  0  0  0  0  0
  -28.4690   -0.7850   29.8287 C   0  0  0  0  0  0  0  0  0  0  0  0
  -26.5042   -0.7777   28.8766 C   0  0  0  0  0  0  0  0  0  0  0  0
  -25.9500    0.1157   29.4052 C   0  0  0  0  0  0  0  0  0  0  0  0
  -27.9964    0.1190   30.9527 C   0  0  0  0  0  0  0  0  0  0  0  0
  -26.6037    0.4647   30.8030 C   0  0  0  0  0  0  0  0  0  0  0  0
  -29.8344   -1.0426   30.0554 O   0  0  0  0  0  0  0  0  0  0  0  0
  -30.8065   -0.5432   29.5002 C   0  0  0  0  0  0  0  0  0  0  0  0
  -31.7381   -1.4375   29.0630 C   0  0  0  0  0  0  0  0  0  0  0  0
  -31.9690   -1.4681   27.8215 O   0  0  0  0  0  0  0  0  0  0  0  0
  -32.3465   -2.2952   29.7656 O   0  0  0  0  0  0  0  0  0  0  0  0
  -30.2689    0.1581   28.4532 F   0  0  0  0  0  0  0  0  0  0  0  0
  -31.4091    0.4890   30.4242 C   0  0  0  0  0  0  0  0  0  0  0  0
  -31.4721    0.2728   31.5416 O   0  0  0  0  0  0  0  0  0  0  0  0
  -31.8661    1.5168   29.8758 F   0  0  0  0  0  0  0  0  0  0  0  0
  2  7  1  0
  7  8  1  0
  8  9  1  0
  9 10  1  0
  9 11  2  0
  8 12  1  0
  8 13  1  0
 13 14  2  0
 13 15  1  0
  1  2  2  0
  2  5  1  0
  5  6  2  0
  6  4  1  0
  4  3  2  0
  3  1  1  0
M  END

$$$$
