No_3287-gen_results/8p0m/2024-11-26-14-13-15/
     RDKit          3D

 19 19  0  0  0  0  0  0  0  0999 V2000
  -28.1229   -1.3353   28.4874 O   0  0  0  0  0  0  0  0  0  0  0  0
  -28.5208   -0.4363   29.0779 C   0  0  0  0  0  0  0  0  0  0  0  0
  -28.5894    0.5916   28.9464 C   0  0  0  0  0  0  0  0  0  0  0  0
  -28.7866   -0.8872   30.4874 N   0  0  0  0  0  0  0  0  0  0  0  0
  -27.7841    1.2822   27.9869 C   0  0  0  0  0  0  0  0  0  0  0  0
  -27.2940    2.5462   27.9405 C   0  0  0  0  0  0  0  0  0  0  0  0
  -27.3399    3.2829   29.1341 C   0  0  0  0  0  0  0  0  0  0  0  0
  -26.8235    4.5867   29.1869 C   0  0  0  0  0  0  0  0  0  0  0  0
  -26.1898    5.1210   28.0229 C   0  0  0  0  0  0  0  0  0  0  0  0
  -26.0495    4.3434   26.8511 C   0  0  0  0  0  0  0  0  0  0  0  0
  -26.5844    3.0705   26.8494 C   0  0  0  0  0  0  0  0  0  0  0  0
  -28.7485   -2.3036   30.9211 C   0  0  0  0  0  0  0  0  0  0  0  0
  -25.4378    6.6953   28.0530 Cl  0  0  0  0  0  0  0  0  0  0  0  0
  -29.3254    0.0043   31.5194 C   0  0  0  0  0  0  0  0  0  0  0  0
  -28.7533    0.3365   32.3060 O   0  0  0  0  0  0  0  0  0  0  0  0
  -30.7193    0.3890   31.1658 C   0  0  0  0  0  0  0  0  0  0  0  0
  -30.9386    1.6228   31.4738 N   0  0  0  0  0  0  0  0  0  0  0  0
  -31.6544    2.5033   30.7047 C   0  0  0  0  0  0  0  0  0  0  0  0
  -31.6891    3.9213   31.1034 C   0  0  0  0  0  0  0  0  0  0  0  0
  1  2  2  0
  2  3  1  0
  2  4  1  0
  3  5  1  0
  4 12  1  0
  9 13  1  0
  4 14  1  0
 14 15  2  0
 14 16  1  0
 16 17  1  0
 17 18  1  0
 18 19  2  0
  5  6  1  0
  6  7  2  0
  7  8  1  0
  8  9  2  0
  9 10  1  0
 10 11  2  0
 11  6  1  0
M  END

$$$$
