No_3784-gen_results/8p0m/2024-11-26-14-13-15/
     RDKit          3D

 15 16  0  0  0  0  0  0  0  0999 V2000
  -28.0162   -0.8135   28.8779 C   0  0  0  0  0  0  0  0  0  0  0  0
  -27.0636   -0.1189   28.6079 C   0  0  0  0  0  0  0  0  0  0  0  0
  -25.7647   -0.3897   29.0360 C   0  0  0  0  0  0  0  0  0  0  0  0
  -24.5516    0.4058   28.7646 C   0  0  0  0  0  0  0  0  0  0  0  0
  -23.2300    0.1178   29.2575 C   0  0  0  0  0  0  0  0  0  0  0  0
  -27.8275   -1.9081   29.8661 C   0  0  0  0  0  0  0  0  0  0  0  0
  -26.5727   -2.3160   30.2643 C   0  0  0  0  0  0  0  0  0  0  0  0
  -25.4305   -1.5200   29.9226 C   0  0  0  0  0  0  0  0  0  0  0  0
  -22.1663    0.9203   28.8711 C   0  0  0  0  0  0  0  0  0  0  0  0
  -22.3084    1.9228   27.8218 C   0  0  0  0  0  0  0  0  0  0  0  0
  -24.5419    1.4507   27.7567 C   0  0  0  0  0  0  0  0  0  0  0  0
  -23.4992    2.1324   27.3338 C   0  0  0  0  0  0  0  0  0  0  0  0
  -28.9708   -2.7660   30.2759 C   0  0  0  0  0  0  0  0  0  0  0  0
  -30.0641   -2.3317   30.2608 O   0  0  0  0  0  0  0  0  0  0  0  0
  -28.7189   -3.9534   30.7503 O   0  0  0  0  0  0  0  0  0  0  0  0
  3  4  1  0
  6 13  1  0
 13 14  2  0
 13 15  1  0
  1  2  2  0
  2  3  1  0
  3  8  2  0
  8  7  1  0
  7  6  2  0
  6  1  1  0
  4  5  2  0
  5  9  1  0
  9 10  2  0
 10 12  1  0
 12 11  2  0
 11  4  1  0
M  END

$$$$
