No_3368-gen_results/8p0m/2024-11-26-14-13-15/
     RDKit          3D

 12 13  0  0  0  0  0  0  0  0999 V2000
  -28.0162   -0.8135   28.8779 C   0  0  0  0  0  0  0  0  0  0  0  0
  -27.0636   -0.1189   28.6079 C   0  0  0  0  0  0  0  0  0  0  0  0
  -25.7647   -0.3897   29.0360 C   0  0  0  0  0  0  0  0  0  0  0  0
  -25.5296   -1.5302   29.9014 C   0  0  0  0  0  0  0  0  0  0  0  0
  -26.6888   -2.2893   30.1810 C   0  0  0  0  0  0  0  0  0  0  0  0
  -27.8727   -1.9508   29.7373 C   0  0  0  0  0  0  0  0  0  0  0  0
  -24.5491    0.4100   28.7341 C   0  0  0  0  0  0  0  0  0  0  0  0
  -24.0931    1.3779   29.5761 C   0  0  0  0  0  0  0  0  0  0  0  0
  -22.9779    2.1400   29.2464 C   0  0  0  0  0  0  0  0  0  0  0  0
  -22.4504    1.8696   27.9755 C   0  0  0  0  0  0  0  0  0  0  0  0
  -23.7479    0.3981   27.5426 C   0  0  0  0  0  0  0  0  0  0  0  0
  -22.8393    1.0035   27.1447 C   0  0  0  0  0  0  0  0  0  0  0  0
  3  7  1  0
  7  8  2  0
  8  9  1  0
  9 10  2  0
 10 12  1  0
 12 11  2  0
 11  7  1  0
  1  2  2  0
  2  3  1  0
  3  4  2  0
  4  5  1  0
  5  6  2  0
  6  1  1  0
M  END

$$$$
