No_3875-gen_results/8p0m/2024-11-26-14-13-15/
     RDKit          3D

 24 26  0  0  0  0  0  0  0  0999 V2000
  -28.0162   -0.8135   28.8779 C   0  0  0  0  0  0  0  0  0  0  0  0
  -28.4690   -0.7850   29.8287 C   0  0  0  0  0  0  0  0  0  0  0  0
  -26.5455   -0.8762   28.8500 C   0  0  0  0  0  0  0  0  0  0  0  0
  -25.8041   -1.0324   30.0571 C   0  0  0  0  0  0  0  0  0  0  0  0
  -27.9437   -0.9869   31.2075 C   0  0  0  0  0  0  0  0  0  0  0  0
  -26.5825   -1.0386   31.2231 C   0  0  0  0  0  0  0  0  0  0  0  0
  -24.3810   -1.1082   30.0855 C   0  0  0  0  0  0  0  0  0  0  0  0
  -23.7590   -1.1322   30.8961 C   0  0  0  0  0  0  0  0  0  0  0  0
  -22.2395   -1.0663   30.9853 C   0  0  0  0  0  0  0  0  0  0  0  0
  -21.6850   -0.8653   29.7652 C   0  0  0  0  0  0  0  0  0  0  0  0
  -22.4213   -0.7283   28.5819 C   0  0  0  0  0  0  0  0  0  0  0  0
  -23.8520   -0.8586   28.7157 C   0  0  0  0  0  0  0  0  0  0  0  0
  -30.0822   -0.7307   30.0457 C   0  0  0  0  0  0  0  0  0  0  0  0
  -30.6630   -0.0119   29.3672 O   0  0  0  0  0  0  0  0  0  0  0  0
  -30.6871   -1.4732   30.9167 O   0  0  0  0  0  0  0  0  0  0  0  0
  -31.9987   -0.1216   28.9402 C   0  0  0  0  0  0  0  0  0  0  0  0
  -32.1472   -0.1876   27.6621 C   0  0  0  0  0  0  0  0  0  0  0  0
  -31.1017    0.5821   26.6538 Cl  0  0  0  0  0  0  0  0  0  0  0  0
  -32.2041   -1.6131   27.1094 N   0  0  0  0  0  0  0  0  0  0  0  0
  -32.2188   -1.8559   25.7777 C   0  0  0  0  0  0  0  0  0  0  0  0
  -32.3258   -2.7084   27.9746 C   0  0  0  0  0  0  0  0  0  0  0  0
  -32.4327   -3.9882   27.4112 C   0  0  0  0  0  0  0  0  0  0  0  0
  -32.3255   -3.1930   25.2573 C   0  0  0  0  0  0  0  0  0  0  0  0
  -32.4190   -4.2157   26.0703 C   0  0  0  0  0  0  0  0  0  0  0  0
  4  7  1  0
  2 13  1  0
 13 14  1  0
 13 15  2  0
 14 16  1  0
 16 17  1  0
 17 18  1  0
 17 19  1  0
 19 20  1  0
 19 21  1  0
 22 24  1  0
 23 24  1  0
 20 23  1  0
 22 21  1  0
  1  2  2  0
  2  5  1  0
  5  6  2  0
  6  4  1  0
  4  3  2  0
  3  1  1  0
  7  8  2  0
  8  9  1  0
  9 10  2  0
 10 11  1  0
 11 12  2  0
 12  7  1  0
M  END

$$$$
