No_3277-gen_results/8p0m/2024-11-26-14-13-15/
     RDKit          3D

 25 26  0  0  0  0  0  0  0  0999 V2000
  -28.0162   -0.8135   28.8779 C   0  0  0  0  0  0  0  0  0  0  0  0
  -28.4690   -0.7850   29.8287 C   0  0  0  0  0  0  0  0  0  0  0  0
  -27.1356    0.2359   28.5352 C   0  0  0  0  0  0  0  0  0  0  0  0
  -26.3351    0.2900   27.2835 C   0  0  0  0  0  0  0  0  0  0  0  0
  -28.2789    0.0305   30.6941 C   0  0  0  0  0  0  0  0  0  0  0  0
  -27.4578    1.1551   30.6624 C   0  0  0  0  0  0  0  0  0  0  0  0
  -26.7863    1.2369   29.4971 C   0  0  0  0  0  0  0  0  0  0  0  0
  -25.3290   -0.1953   27.3993 F   0  0  0  0  0  0  0  0  0  0  0  0
  -27.0525   -0.3722   26.2863 F   0  0  0  0  0  0  0  0  0  0  0  0
  -25.7747    1.4011   26.8338 F   0  0  0  0  0  0  0  0  0  0  0  0
  -29.4239   -2.0407   30.2022 C   0  0  0  0  0  0  0  0  0  0  0  0
  -30.0220   -1.9693   31.2023 O   0  0  0  0  0  0  0  0  0  0  0  0
  -29.3143   -3.1313   29.5977 O   0  0  0  0  0  0  0  0  0  0  0  0
  -27.2261    2.1444   31.6643 C   0  0  0  0  0  0  0  0  0  0  0  0
  -26.3714    2.9366   31.6048 C   0  0  0  0  0  0  0  0  0  0  0  0
  -26.0292    4.0397   32.5980 C   0  0  0  0  0  0  0  0  0  0  0  0
  -24.9600    4.9914   32.4346 C   0  0  0  0  0  0  0  0  0  0  0  0
  -24.6889    6.0080   33.3364 C   0  0  0  0  0  0  0  0  0  0  0  0
  -25.4317    6.0797   34.5193 C   0  0  0  0  0  0  0  0  0  0  0  0
  -26.4392    5.1803   34.7101 C   0  0  0  0  0  0  0  0  0  0  0  0
  -26.7184    4.1669   33.8174 C   0  0  0  0  0  0  0  0  0  0  0  0
  -24.9641    2.4349   31.2919 C   0  0  0  0  0  0  0  0  0  0  0  0
  -24.7815    1.3133   31.5963 F   0  0  0  0  0  0  0  0  0  0  0  0
  -24.7758    2.6356   29.9060 F   0  0  0  0  0  0  0  0  0  0  0  0
  -23.8991    3.0406   31.8070 F   0  0  0  0  0  0  0  0  0  0  0  0
  3  4  1  0
  4  8  1  0
  4  9  1  0
  4 10  1  0
  2 11  1  0
 11 12  2  0
 11 13  1  0
  6 14  1  0
 14 15  2  3
 15 16  1  0
 15 22  1  0
 22 23  1  0
 22 24  1  0
 22 25  1  0
  1  2  2  0
  2  5  1  0
  5  6  2  0
  6  7  1  0
  7  3  2  0
  3  1  1  0
 16 17  2  0
 17 18  1  0
 18 19  2  0
 19 20  1  0
 20 21  2  0
 21 16  1  0
M  END

$$$$
