No_3869-gen_results/8p0m/2024-11-26-14-13-15/
     RDKit          3D

 31 33  0  0  0  0  0  0  0  0999 V2000
  -28.0162   -0.8135   28.8779 C   0  0  0  0  0  0  0  0  0  0  0  0
  -27.0636   -0.1189   28.6079 C   0  0  0  0  0  0  0  0  0  0  0  0
  -27.0010    0.6913   27.4910 C   0  0  0  0  0  0  0  0  0  0  0  0
  -25.8548    1.4825   27.0830 C   0  0  0  0  0  0  0  0  0  0  0  0
  -24.6901    1.4526   27.8807 C   0  0  0  0  0  0  0  0  0  0  0  0
  -24.7379    0.6010   29.0416 C   0  0  0  0  0  0  0  0  0  0  0  0
  -25.8234   -0.1688   29.3887 C   0  0  0  0  0  0  0  0  0  0  0  0
  -28.7350   -0.4637   30.1419 C   0  0  0  0  0  0  0  0  0  0  0  0
  -28.7831    0.6118   30.5175 C   0  0  0  0  0  0  0  0  0  0  0  0
  -29.5935    0.9569   31.7959 C   0  0  0  0  0  0  0  0  0  0  0  0
  -30.1904   -0.1138   32.4264 C   0  0  0  0  0  0  0  0  0  0  0  0
  -29.4171   -1.5941   30.8826 C   0  0  0  0  0  0  0  0  0  0  0  0
  -30.1029   -1.3710   32.0011 C   0  0  0  0  0  0  0  0  0  0  0  0
  -23.4894    2.1644   27.5625 C   0  0  0  0  0  0  0  0  0  0  0  0
  -23.6278    3.2614   27.0404 F   0  0  0  0  0  0  0  0  0  0  0  0
  -22.6926    2.4118   28.6765 F   0  0  0  0  0  0  0  0  0  0  0  0
  -22.6578    1.4166   26.7696 F   0  0  0  0  0  0  0  0  0  0  0  0
  -28.1530    0.8806   26.6062 C   0  0  0  0  0  0  0  0  0  0  0  0
  -28.2539    0.3764   25.5303 O   0  0  0  0  0  0  0  0  0  0  0  0
  -29.3090    1.2314   27.2833 O   0  0  0  0  0  0  0  0  0  0  0  0
  -30.2229    1.9531   26.5822 C   0  0  0  0  0  0  0  0  0  0  0  0
  -30.0361    3.1941   26.4350 C   0  0  0  0  0  0  0  0  0  0  0  0
  -30.5357    3.6858   25.4084 O   0  0  0  0  0  0  0  0  0  0  0  0
  -29.2405    3.9282   27.1801 O   0  0  0  0  0  0  0  0  0  0  0  0
  -31.4719    1.2875   26.4548 C   0  0  0  0  0  0  0  0  0  0  0  0
  -31.6973    0.5245   25.3812 C   0  0  0  0  0  0  0  0  0  0  0  0
  -31.9334   -0.6954   25.5792 C   0  0  0  0  0  0  0  0  0  0  0  0
  -32.0048   -1.6966   24.4118 C   0  0  0  0  0  0  0  0  0  0  0  0
  -31.6799   -1.0510   23.2762 N   0  0  0  0  0  0  0  0  0  0  0  0
  -31.5263    0.6217   23.9581 C   0  0  0  0  0  0  0  0  0  0  0  0
  -29.2733   -2.8996   30.6231 O   0  0  0  0  0  0  0  0  0  0  0  0
  1  2  1  0
  1  8  1  0
  9 10  1  0
  8 12  1  0
 11 13  1  0
 12 13  1  0
  5 14  1  0
 14 15  1  0
 14 16  1  0
 14 17  1  0
  3 18  1  0
 18 19  2  0
 18 20  1  0
 20 21  1  0
 21 22  1  0
 22 23  2  0
 22 24  1  0
 21 25  1  0
 25 26  1  0
 26 27  2  0
 27 28  1  0
 28 29  2  0
 26 30  1  0
 29 30  1  0
 12 31  2  0
  8  9  1  0
 10 11  1  0
  2  3  1  0
  3  4  2  0
  4  5  1  0
  5  6  2  0
  6  7  1  0
  7  2  2  0
M  END

$$$$
