No_3258-gen_results/8p0m/2024-11-26-14-13-15/
     RDKit          3D

 25 29  0  0  0  0  0  0  0  0999 V2000
  -28.0162   -0.8135   28.8779 C   0  0  0  0  0  0  0  0  0  0  0  0
  -28.4690   -0.7850   29.8287 C   0  0  0  0  0  0  0  0  0  0  0  0
  -28.1816    0.4277   28.1134 C   0  0  0  0  0  0  0  0  0  0  0  0
  -27.4498    0.6435   26.8500 C   0  0  0  0  0  0  0  0  0  0  0  0
  -27.8596    1.4573   25.9076 C   0  0  0  0  0  0  0  0  0  0  0  0
  -29.4263    0.1097   30.4178 C   0  0  0  0  0  0  0  0  0  0  0  0
  -29.6233    1.2198   29.7351 C   0  0  0  0  0  0  0  0  0  0  0  0
  -28.9609    1.4529   28.5513 C   0  0  0  0  0  0  0  0  0  0  0  0
  -28.7886    2.5164   26.2663 C   0  0  0  0  0  0  0  0  0  0  0  0
  -29.3391    2.4434   27.6394 C   0  0  0  0  0  0  0  0  0  0  0  0
  -26.5696   -0.2826   26.3795 O   0  0  0  0  0  0  0  0  0  0  0  0
  -25.1884    0.1971   26.4350 C   0  0  0  0  0  0  0  0  0  0  0  0
  -24.4726    0.0449   27.6742 C   0  0  0  0  0  0  0  0  0  0  0  0
  -23.4151    0.8491   27.9135 C   0  0  0  0  0  0  0  0  0  0  0  0
  -22.8721    1.6849   26.8633 C   0  0  0  0  0  0  0  0  0  0  0  0
  -23.6287    1.8864   25.7245 C   0  0  0  0  0  0  0  0  0  0  0  0
  -24.8241    1.1714   25.5321 C   0  0  0  0  0  0  0  0  0  0  0  0
  -22.5362    0.6534   29.3730 Cl  0  0  0  0  0  0  0  0  0  0  0  0
  -30.3059    3.5190   28.0579 C   0  0  0  0  0  0  0  0  0  0  0  0
  -30.7233    4.4889   27.2020 C   0  0  0  0  0  0  0  0  0  0  0  0
  -31.5886    5.4480   27.6142 C   0  0  0  0  0  0  0  0  0  0  0  0
  -32.1090    5.4187   28.8769 C   0  0  0  0  0  0  0  0  0  0  0  0
  -31.6799    4.4312   29.7379 C   0  0  0  0  0  0  0  0  0  0  0  0
  -30.7317    3.4697   29.3599 C   0  0  0  0  0  0  0  0  0  0  0  0
  -30.5314    2.2535   30.2374 C   0  0  0  0  0  0  0  0  0  0  0  0
  4 11  1  0
 11 12  1  0
 14 18  1  0
 10 19  1  0
  7 25  1  0
 24 25  1  0
 12 13  2  0
 13 14  1  0
 14 15  2  0
 15 16  1  0
 16 17  2  0
 17 12  1  0
  3  4  2  0
  4  5  1  0
  5  9  2  0
  9 10  1  0
 10  8  2  0
  1  2  2  0
  2  6  1  0
  6  7  2  0
  7  8  1  0
  8  3  1  0
  3  1  1  0
 19 20  2  0
 20 21  1  0
 21 22  2  0
 22 23  1  0
 23 24  2  0
 24 19  1  0
M  END

$$$$
