No_3156-gen_results/8p0m/2024-11-26-14-13-15/
     RDKit          3D

 22 24  0  0  0  0  0  0  0  0999 V2000
  -28.0162   -0.8135   28.8779 C   0  0  0  0  0  0  0  0  0  0  0  0
  -28.4690   -0.7850   29.8287 C   0  0  0  0  0  0  0  0  0  0  0  0
  -26.5042   -0.7777   28.8766 C   0  0  0  0  0  0  0  0  0  0  0  0
  -25.8103   -0.8531   30.1028 C   0  0  0  0  0  0  0  0  0  0  0  0
  -27.9906   -0.8916   31.2257 C   0  0  0  0  0  0  0  0  0  0  0  0
  -26.6042   -0.8676   31.2652 C   0  0  0  0  0  0  0  0  0  0  0  0
  -29.9538   -0.7893   29.6417 N   0  0  0  0  0  0  0  0  0  0  0  0
  -30.6786    0.2685   30.0366 C   0  0  0  0  0  0  0  0  0  0  0  0
  -32.0523    0.1633   29.8008 C   0  0  0  0  0  0  0  0  0  0  0  0
  -32.9191    1.2547   30.0209 C   0  0  0  0  0  0  0  0  0  0  0  0
  -32.2702    2.4345   30.5568 C   0  0  0  0  0  0  0  0  0  0  0  0
  -30.9303    2.4959   30.7607 C   0  0  0  0  0  0  0  0  0  0  0  0
  -30.0820    1.4317   30.4911 C   0  0  0  0  0  0  0  0  0  0  0  0
  -30.5492   -2.0475   29.4140 C   0  0  0  0  0  0  0  0  0  0  0  0
  -31.8988   -2.1044   29.2769 C   0  0  0  0  0  0  0  0  0  0  0  0
  -32.6006   -1.0682   29.4399 C   0  0  0  0  0  0  0  0  0  0  0  0
  -25.6722   -0.7296   27.6588 C   0  0  0  0  0  0  0  0  0  0  0  0
  -25.2745    0.6401   27.2963 C   0  0  0  0  0  0  0  0  0  0  0  0
  -23.9947    0.9247   27.6790 C   0  0  0  0  0  0  0  0  0  0  0  0
  -23.3350    2.0812   27.1029 C   0  0  0  0  0  0  0  0  0  0  0  0
  -22.0228    2.4708   27.5259 C   0  0  0  0  0  0  0  0  0  0  0  0
  -25.7637    1.2342   26.1144 C   0  0  0  0  0  0  0  0  0  0  0  0
  2  7  1  0
  7  8  1  0
  7 14  1  0
  9 16  1  0
 15 16  1  0
  3 17  1  0
 17 18  1  0
 18 19  1  0
 19 20  2  3
 20 21  1  0
 18 22  1  0
 15 14  1  0
  1  2  2  0
  2  5  1  0
  5  6  2  0
  6  4  1  0
  4  3  2  0
  3  1  1  0
  8 13  1  0
 13 12  2  0
 12 11  1  0
 11 10  2  0
 10  9  1  0
  9  8  2  0
M  END

$$$$
