No_3363-gen_results/8p0m/2024-11-26-14-13-15/
     RDKit          3D

 35 40  0  0  0  0  0  0  0  0999 V2000
  -28.0162   -0.8135   28.8779 C   0  0  0  0  0  0  0  0  0  0  0  0
  -27.0636   -0.1189   28.6079 C   0  0  0  0  0  0  0  0  0  0  0  0
  -25.7923   -0.4302   29.0761 C   0  0  0  0  0  0  0  0  0  0  0  0
  -25.5756   -1.5654   29.9363 C   0  0  0  0  0  0  0  0  0  0  0  0
  -26.7354   -2.3004   30.2173 C   0  0  0  0  0  0  0  0  0  0  0  0
  -27.9184   -1.9537   29.7629 C   0  0  0  0  0  0  0  0  0  0  0  0
  -27.1057    1.1023   27.7593 C   0  0  0  0  0  0  0  0  0  0  0  0
  -26.7157    2.2350   27.9945 C   0  0  0  0  0  0  0  0  0  0  0  0
  -26.0688    2.4770   29.3567 C   0  0  0  0  0  0  0  0  0  0  0  0
  -26.2621    3.4491   30.0956 C   0  0  0  0  0  0  0  0  0  0  0  0
  -25.6340    3.5822   31.4192 C   0  0  0  0  0  0  0  0  0  0  0  0
  -24.6717    2.6589   31.7915 C   0  0  0  0  0  0  0  0  0  0  0  0
  -24.3736    1.6330   30.9475 C   0  0  0  0  0  0  0  0  0  0  0  0
  -25.0017    1.5279   29.7386 C   0  0  0  0  0  0  0  0  0  0  0  0
  -25.3145    0.1511   29.7031 N   0  0  0  0  0  0  0  0  0  0  0  0
  -23.9483   -0.3671   30.2447 C   0  0  0  0  0  0  0  0  0  0  0  0
  -24.3514   -2.0719   30.5146 C   0  0  0  0  0  0  0  0  0  0  0  0
  -23.6965    0.4145   31.5347 C   0  0  0  0  0  0  0  0  0  0  0  0
  -22.7847   -0.3111   29.3038 C   0  0  0  0  0  0  0  0  0  0  0  0
  -27.8794    0.9507   26.4866 C   0  0  0  0  0  0  0  0  0  0  0  0
  -27.7365    1.7398   25.4932 C   0  0  0  0  0  0  0  0  0  0  0  0
  -28.4355    1.4935   24.2965 C   0  0  0  0  0  0  0  0  0  0  0  0
  -29.1634    0.2881   24.1450 C   0  0  0  0  0  0  0  0  0  0  0  0
  -29.3146   -0.5498   25.2314 C   0  0  0  0  0  0  0  0  0  0  0  0
  -28.6498   -0.2763   26.4226 C   0  0  0  0  0  0  0  0  0  0  0  0
  -27.2517    4.5386   29.7860 C   0  0  0  0  0  0  0  0  0  0  0  0
  -27.0952    5.4071   29.1478 O   0  0  0  0  0  0  0  0  0  0  0  0
  -28.3609    4.4295   30.5759 O   0  0  0  0  0  0  0  0  0  0  0  0
  -30.0869   -1.6030   25.0064 O   0  0  0  0  0  0  0  0  0  0  0  0
  -31.2100   -1.4856   24.2097 C   0  0  0  0  0  0  0  0  0  0  0  0
  -32.3144   -2.2755   24.7872 C   0  0  0  0  0  0  0  0  0  0  0  0
  -32.7465   -1.8526   26.0735 C   0  0  0  0  0  0  0  0  0  0  0  0
  -32.7834   -2.5610   26.8597 O   0  0  0  0  0  0  0  0  0  0  0  0
  -32.9216   -0.5957   26.1542 O   0  0  0  0  0  0  0  0  0  0  0  0
  -33.5262    0.2341   25.6367 C   0  0  0  0  0  0  0  0  0  0  0  0
  2  7  1  0
  7  8  2  0
  8  9  1  0
  3 15  1  0
 14 15  1  0
 15 16  1  0
  4 17  1  0
 16 17  1  0
 13 18  1  0
 16 18  1  0
 16 19  1  0
  7 20  1  0
 10 26  1  0
 26 27  2  0
 26 28  1  0
 24 29  1  0
 29 30  1  0
 30 31  1  0
 31 32  1  0
 32 33  2  0
 32 34  1  0
 34 35  1  0
  1  2  2  0
  2  3  1  0
  3  4  2  0
  4  5  1  0
  5  6  2  0
  6  1  1  0
  9 10  2  0
 10 11  1  0
 11 12  2  0
 12 13  1  0
 13 14  2  0
 14  9  1  0
 20 21  2  0
 21 22  1  0
 22 23  2  0
 23 24  1  0
 24 25  2  0
 25 20  1  0
M  END

$$$$
