No_3779-gen_results/8p0m/2024-11-26-14-13-15/
     RDKit          3D

 35 38  0  0  0  0  0  0  0  0999 V2000
  -28.0162   -0.8135   28.8779 C   0  0  0  0  0  0  0  0  0  0  0  0
  -27.0636   -0.1190   28.6079 C   0  0  0  0  0  0  0  0  0  0  0  0
  -25.7923   -0.4302   29.0761 C   0  0  0  0  0  0  0  0  0  0  0  0
  -24.5456    0.3494   28.8225 C   0  0  0  0  0  0  0  0  0  0  0  0
  -24.6586    1.4196   27.8878 C   0  0  0  0  0  0  0  0  0  0  0  0
  -25.9471    1.6811   27.3792 C   0  0  0  0  0  0  0  0  0  0  0  0
  -27.0439    0.9739   27.6871 C   0  0  0  0  0  0  0  0  0  0  0  0
  -27.9517   -1.7518   29.9375 N   0  0  0  0  0  0  0  0  0  0  0  0
  -29.1108   -0.7488   28.3347 O   0  0  0  0  0  0  0  0  0  0  0  0
  -29.0453   -2.6075   30.3999 C   0  0  0  0  0  0  0  0  0  0  0  0
  -23.4628    2.1700   27.6032 C   0  0  0  0  0  0  0  0  0  0  0  0
  -22.2718    1.7430   28.0543 N   0  0  0  0  0  0  0  0  0  0  0  0
  -23.5755    3.2862   27.0337 O   0  0  0  0  0  0  0  0  0  0  0  0
  -29.5076   -2.1436   31.6019 C   0  0  0  0  0  0  0  0  0  0  0  0
  -30.4531   -1.6246   31.4970 F   0  0  0  0  0  0  0  0  0  0  0  0
  -28.5545   -1.4232   32.2276 F   0  0  0  0  0  0  0  0  0  0  0  0
  -29.7024   -3.3071   32.4309 F   0  0  0  0  0  0  0  0  0  0  0  0
  -29.0921   -3.6730   29.8450 O   0  0  0  0  0  0  0  0  0  0  0  0
  -21.9445    0.6282   28.7132 C   0  0  0  0  0  0  0  0  0  0  0  0
  -23.1346   -0.1740   29.1194 C   0  0  0  0  0  0  0  0  0  0  0  0
  -22.9408   -1.6962   30.0820 Br  0  0  0  0  0  0  0  0  0  0  0  0
  -20.7794    0.2573   28.8586 O   0  0  0  0  0  0  0  0  0  0  0  0
  -28.2255    1.3472   27.2202 O   0  0  0  0  0  0  0  0  0  0  0  0
  -28.5589    2.6616   27.5018 C   0  0  0  0  0  0  0  0  0  0  0  0
  -29.7468    2.9039   27.1283 C   0  0  0  0  0  0  0  0  0  0  0  0
  -30.2083    4.2982   27.3720 C   0  0  0  0  0  0  0  0  0  0  0  0
  -31.5260    4.7692   27.0474 C   0  0  0  0  0  0  0  0  0  0  0  0
  -32.4098    3.7497   26.5436 C   0  0  0  0  0  0  0  0  0  0  0  0
  -32.0073    2.4872   26.3248 C   0  0  0  0  0  0  0  0  0  0  0  0
  -30.7713    2.1397   26.6661 C   0  0  0  0  0  0  0  0  0  0  0  0
  -33.9957    4.2910   26.1033 Cl  0  0  0  0  0  0  0  0  0  0  0  0
  -32.8466    1.4055   25.7806 C   0  0  0  0  0  0  0  0  0  0  0  0
  -32.4405    0.2724   25.6512 C   0  0  0  0  0  0  0  0  0  0  0  0
  -31.0191   -0.0874   26.0148 C   0  0  0  0  0  0  0  0  0  0  0  0
  -30.3031    0.7765   26.4891 C   0  0  0  0  0  0  0  0  0  0  0  0
  1  2  1  0
  1  8  1  0
  1  9  2  0
  8 10  1  0
  5 11  1  0
 11 12  1  0
 11 13  2  0
 10 14  1  0
 14 15  1  0
 14 16  1  0
 14 17  1  0
 10 18  2  0
 12 19  1  0
  4 20  1  0
 19 20  1  0
 20 21  1  0
 19 22  2  0
  7 23  1  0
 23 24  1  0
 28 31  1  0
 24 25  1  0
 30 35  2  0
 35 34  1  0
 34 33  2  0
 33 32  1  0
 32 29  2  0
  2  3  2  0
  3  4  1  0
  4  5  2  0
  5  6  1  0
  6  7  2  0
  7  2  1  0
 25 26  2  0
 26 27  1  0
 27 28  2  0
 28 29  1  0
 29 30  1  0
 30 25  1  0
M  END

$$$$
