No_3128-gen_results/8p0m/2024-11-26-14-13-15/
     RDKit          3D

 35 39  0  0  0  0  0  0  0  0999 V2000
  -28.1229   -1.3353   28.4874 O   0  0  0  0  0  0  0  0  0  0  0  0
  -28.5208   -0.4363   29.0779 C   0  0  0  0  0  0  0  0  0  0  0  0
  -27.9150    0.0780   30.0386 O   0  0  0  0  0  0  0  0  0  0  0  0
  -29.9018   -0.0565   28.9721 C   0  0  0  0  0  0  0  0  0  0  0  0
  -30.7762   -0.6532   29.7019 C   0  0  0  0  0  0  0  0  0  0  0  0
  -32.1868   -0.3734   29.4944 C   0  0  0  0  0  0  0  0  0  0  0  0
  -32.4954    0.5790   28.5169 C   0  0  0  0  0  0  0  0  0  0  0  0
  -31.4995    1.1703   27.7597 C   0  0  0  0  0  0  0  0  0  0  0  0
  -30.1506    0.8469   27.9575 C   0  0  0  0  0  0  0  0  0  0  0  0
  -34.1294    0.9774   28.2811 Cl  0  0  0  0  0  0  0  0  0  0  0  0
  -29.0976    1.4248   27.1444 C   0  0  0  0  0  0  0  0  0  0  0  0
  -28.1060    0.9796   26.6916 C   0  0  0  0  0  0  0  0  0  0  0  0
  -27.1540    1.6592   25.7950 C   0  0  0  0  0  0  0  0  0  0  0  0
  -25.8859    1.1538   25.3725 C   0  0  0  0  0  0  0  0  0  0  0  0
  -24.9607    0.9599   26.2808 C   0  0  0  0  0  0  0  0  0  0  0  0
  -25.0270    0.4179   27.3833 C   0  0  0  0  0  0  0  0  0  0  0  0
  -23.8807   -0.0250   28.1767 C   0  0  0  0  0  0  0  0  0  0  0  0
  -22.7276    0.7134   28.0391 C   0  0  0  0  0  0  0  0  0  0  0  0
  -22.5936    1.6047   26.9070 C   0  0  0  0  0  0  0  0  0  0  0  0
  -23.6887    1.7457   26.0744 C   0  0  0  0  0  0  0  0  0  0  0  0
  -29.3879    2.8396   26.7615 C   0  0  0  0  0  0  0  0  0  0  0  0
  -28.5229    3.5650   25.9502 C   0  0  0  0  0  0  0  0  0  0  0  0
  -27.4088    3.0203   25.5005 C   0  0  0  0  0  0  0  0  0  0  0  0
  -23.9727   -0.8893   29.3743 C   0  0  0  0  0  0  0  0  0  0  0  0
  -24.2665   -2.1336   29.1450 C   0  0  0  0  0  0  0  0  0  0  0  0
  -23.5695   -0.4536   30.6393 C   0  0  0  0  0  0  0  0  0  0  0  0
  -23.8580   -1.1721   31.7992 C   0  0  0  0  0  0  0  0  0  0  0  0
  -24.6877   -2.9583   30.3512 C   0  0  0  0  0  0  0  0  0  0  0  0
  -24.3636   -2.4118   31.6578 C   0  0  0  0  0  0  0  0  0  0  0  0
  -27.8965    1.2716   30.5774 C   0  0  0  0  0  0  0  0  0  0  0  0
  -26.6411    1.8132   30.7600 C   0  0  0  0  0  0  0  0  0  0  0  0
  -26.3804    2.9194   31.2270 C   0  0  0  0  0  0  0  0  0  0  0  0
  -27.3428    3.7773   31.6859 C   0  0  0  0  0  0  0  0  0  0  0  0
  -28.6979    3.2761   31.5879 C   0  0  0  0  0  0  0  0  0  0  0  0
  -28.9273    2.0190   31.0441 C   0  0  0  0  0  0  0  0  0  0  0  0
  1  2  2  0
  2  3  1  0
  2  4  1  0
  7 10  1  0
  9 11  1  0
 13 14  1  0
 17 24  1  0
  3 30  1  0
 14 15  1  0
 15 16  2  0
 16 17  1  0
 17 18  2  0
 18 19  1  0
 19 20  2  0
 20 15  1  0
 30 31  2  0
 31 32  1  0
 32 33  2  0
 33 34  1  0
 34 35  2  0
 35 30  1  0
 24 25  2  0
 25 28  1  0
 28 29  2  0
 29 27  1  0
 27 26  2  0
 26 24  1  0
 11 12  2  0
 12 13  1  0
 13 23  2  0
 23 22  1  0
 22 21  2  0
 21 11  1  0
  4  5  2  0
  5  6  1  0
  6  7  2  0
  7  8  1  0
  8  9  2  0
  9  4  1  0
M  END

$$$$
