No_3348-gen_results/8p0m/2024-11-26-14-13-15/
     RDKit          3D

 26 28  0  0  0  0  0  0  0  0999 V2000
  -28.0162   -0.8135   28.8779 C   0  0  0  0  0  0  0  0  0  0  0  0
  -27.0636   -0.1189   28.6079 C   0  0  0  0  0  0  0  0  0  0  0  0
  -25.7923   -0.4302   29.0761 C   0  0  0  0  0  0  0  0  0  0  0  0
  -25.5756   -1.5654   29.9363 C   0  0  0  0  0  0  0  0  0  0  0  0
  -26.7354   -2.3004   30.2173 C   0  0  0  0  0  0  0  0  0  0  0  0
  -27.9184   -1.9537   29.7629 C   0  0  0  0  0  0  0  0  0  0  0  0
  -27.1057    1.1023   27.7593 C   0  0  0  0  0  0  0  0  0  0  0  0
  -26.7157    2.2350   27.9945 C   0  0  0  0  0  0  0  0  0  0  0  0
  -26.0688    2.4770   29.3567 C   0  0  0  0  0  0  0  0  0  0  0  0
  -25.4405    3.7637   29.5605 C   0  0  0  0  0  0  0  0  0  0  0  0
  -25.5223    4.7219   28.6224 C   0  0  0  0  0  0  0  0  0  0  0  0
  -26.0122    4.4992   27.3532 C   0  0  0  0  0  0  0  0  0  0  0  0
  -26.5923    3.2654   27.0520 C   0  0  0  0  0  0  0  0  0  0  0  0
  -27.7989    0.8276   26.4673 C   0  0  0  0  0  0  0  0  0  0  0  0
  -28.9425    1.0199   26.2426 O   0  0  0  0  0  0  0  0  0  0  0  0
  -27.0392    0.2722   25.5602 F   0  0  0  0  0  0  0  0  0  0  0  0
  -29.0977   -2.7145   30.1742 C   0  0  0  0  0  0  0  0  0  0  0  0
  -30.1465   -2.3729   30.1024 O   0  0  0  0  0  0  0  0  0  0  0  0
  -28.7597   -4.0704   30.4509 N   0  0  0  0  0  0  0  0  0  0  0  0
  -29.8340   -5.0150   30.7703 C   0  0  0  0  0  0  0  0  0  0  0  0
  -30.7196   -5.2520   29.7816 C   0  0  0  0  0  0  0  0  0  0  0  0
  -31.4759   -6.3866   29.9050 C   0  0  0  0  0  0  0  0  0  0  0  0
  -32.3436   -6.7813   28.7974 C   0  0  0  0  0  0  0  0  0  0  0  0
  -32.3413   -5.9724   27.6199 C   0  0  0  0  0  0  0  0  0  0  0  0
  -31.4781   -4.8772   27.5301 C   0  0  0  0  0  0  0  0  0  0  0  0
  -30.6400   -4.5593   28.5318 C   0  0  0  0  0  0  0  0  0  0  0  0
  2  7  1  0
  7 14  1  0
 14 15  2  0
 14 16  1  0
  6 17  1  0
 17 18  2  0
 17 19  1  0
 19 20  1  0
 20 21  1  0
  7  8  1  0
  1  2  2  0
  2  3  1  0
  3  4  2  0
  4  5  1  0
  5  6  2  0
  6  1  1  0
  8  9  2  0
  9 10  1  0
 10 11  2  0
 11 12  1  0
 12 13  2  0
 13  8  1  0
 21 22  2  0
 22 23  1  0
 23 24  2  0
 24 25  1  0
 25 26  2  0
 26 21  1  0
M  END

$$$$
