No_3241-gen_results/8p0m/2024-11-26-14-13-15/
     RDKit          3D

 29 34  0  0  0  0  0  0  0  0999 V2000
  -28.0162   -0.8135   28.8779 C   0  0  0  0  0  0  0  0  0  0  0  0
  -27.0636   -0.1190   28.6079 C   0  0  0  0  0  0  0  0  0  0  0  0
  -26.9716    0.7139   27.5060 C   0  0  0  0  0  0  0  0  0  0  0  0
  -28.1053    0.7744   26.6421 C   0  0  0  0  0  0  0  0  0  0  0  0
  -29.2008    0.1044   27.0527 C   0  0  0  0  0  0  0  0  0  0  0  0
  -29.2096   -0.6029   28.1853 C   0  0  0  0  0  0  0  0  0  0  0  0
  -30.3077    0.2215   26.2218 N   0  0  0  0  0  0  0  0  0  0  0  0
  -30.2379    0.2365   24.9221 C   0  0  0  0  0  0  0  0  0  0  0  0
  -29.1586    1.0085   24.4065 C   0  0  0  0  0  0  0  0  0  0  0  0
  -27.8868    1.0003   25.1879 C   0  0  0  0  0  0  0  0  0  0  0  0
  -31.6141   -0.3198   26.7214 C   0  0  0  0  0  0  0  0  0  0  0  0
  -31.9999    0.1921   27.8936 C   0  0  0  0  0  0  0  0  0  0  0  0
  -33.0259    0.6483   28.0445 C   0  0  0  0  0  0  0  0  0  0  0  0
  -33.3810    1.3938   29.2259 C   0  0  0  0  0  0  0  0  0  0  0  0
  -32.5280    1.4340   30.3286 C   0  0  0  0  0  0  0  0  0  0  0  0
  -31.3201    0.8333   30.2090 C   0  0  0  0  0  0  0  0  0  0  0  0
  -30.9678    0.2749   28.9694 C   0  0  0  0  0  0  0  0  0  0  0  0
  -29.7194   -0.1749   28.8716 N   0  0  0  0  0  0  0  0  0  0  0  0
  -29.3277   -0.0827   30.3616 C   0  0  0  0  0  0  0  0  0  0  0  0
  -30.1398    0.2516   31.0492 C   0  0  0  0  0  0  0  0  0  0  0  0
  -31.0259   -0.1640   24.1156 O   0  0  0  0  0  0  0  0  0  0  0  0
  -25.7496   -0.1256   29.4820 C   0  0  0  0  0  0  0  0  0  0  0  0
  -25.3816   -0.8423   30.2105 N   0  0  0  0  0  0  0  0  0  0  0  0
  -25.2884    1.0876   29.6600 F   0  0  0  0  0  0  0  0  0  0  0  0
  -25.6271   -1.5839   30.9184 C   0  0  0  0  0  0  0  0  0  0  0  0
  -23.8761   -1.1452   29.7536 C   0  0  0  0  0  0  0  0  0  0  0  0
  -23.4312   -2.1406   29.1243 C   0  0  0  0  0  0  0  0  0  0  0  0
  -24.0899   -3.3651   29.5682 C   0  0  0  0  0  0  0  0  0  0  0  0
  -25.4263   -3.1448   30.2718 C   0  0  0  0  0  0  0  0  0  0  0  0
  5  7  1  0
  7  8  1  0
  8  9  1  0
  4 10  1  0
  7 11  1  0
 11 12  1  0
  6 18  1  0
 17 18  1  0
 18 19  1  0
 16 20  1  0
 19 20  2  0
  8 21  2  0
  2 22  1  0
 22 23  1  0
 22 24  1  0
 23 25  1  0
 23 26  1  0
 26 27  1  0
 25 29  1  0
 28 29  1  0
 10  9  1  0
 28 27  1  0
  1  2  2  0
  2  3  1  0
  3  4  2  0
  4  5  1  0
  5  6  2  0
  6  1  1  0
 12 13  2  0
 13 14  1  0
 14 15  2  0
 15 16  1  0
 16 17  2  0
 17 12  1  0
M  END

$$$$
