No_324-gen_results/8p0m/2024-11-26-14-13-15/
     RDKit          3D

 34 39  0  0  0  0  0  0  0  0999 V2000
  -28.0162   -0.8135   28.8779 C   0  0  0  0  0  0  0  0  0  0  0  0
  -28.4690   -0.7850   29.8287 C   0  0  0  0  0  0  0  0  0  0  0  0
  -26.5455   -0.8762   28.8500 C   0  0  0  0  0  0  0  0  0  0  0  0
  -25.8041   -1.0324   30.0571 C   0  0  0  0  0  0  0  0  0  0  0  0
  -26.5373   -1.0386   31.2171 C   0  0  0  0  0  0  0  0  0  0  0  0
  -27.8843   -0.9532   31.1862 C   0  0  0  0  0  0  0  0  0  0  0  0
  -24.3555   -1.1121   30.0346 C   0  0  0  0  0  0  0  0  0  0  0  0
  -23.6610    0.1027   29.8448 C   0  0  0  0  0  0  0  0  0  0  0  0
  -23.9525    1.2330   30.4520 C   0  0  0  0  0  0  0  0  0  0  0  0
  -22.5070    0.1052   28.9319 C   0  0  0  0  0  0  0  0  0  0  0  0
  -22.0627    1.2509   28.2955 C   0  0  0  0  0  0  0  0  0  0  0  0
  -25.0897    1.3304   31.4027 C   0  0  0  0  0  0  0  0  0  0  0  0
  -25.3876    2.7027   31.9204 C   0  0  0  0  0  0  0  0  0  0  0  0
  -22.8500    2.4609   28.4434 C   0  0  0  0  0  0  0  0  0  0  0  0
  -23.7132    2.4973   29.6238 C   0  0  0  0  0  0  0  0  0  0  0  0
  -25.7552   -0.7533   27.5682 C   0  0  0  0  0  0  0  0  0  0  0  0
  -25.1572    3.6735   31.3091 C   0  0  0  0  0  0  0  0  0  0  0  0
  -24.3094    3.7284   30.1402 C   0  0  0  0  0  0  0  0  0  0  0  0
  -28.7439   -1.0022   32.4283 C   0  0  0  0  0  0  0  0  0  0  0  0
  -29.2395   -1.9400   32.7900 O   0  0  0  0  0  0  0  0  0  0  0  0
  -29.0477    0.2463   32.9114 O   0  0  0  0  0  0  0  0  0  0  0  0
  -26.3548    2.6249   33.1352 C   0  0  0  0  0  0  0  0  0  0  0  0
  -26.6487    1.8590   33.7912 N   0  0  0  0  0  0  0  0  0  0  0  0
  -27.0290    1.8994   35.0400 C   0  0  0  0  0  0  0  0  0  0  0  0
  -27.2984    3.2480   35.3666 C   0  0  0  0  0  0  0  0  0  0  0  0
  -26.5079    3.9135   33.8282 N   0  0  0  0  0  0  0  0  0  0  0  0
  -26.5325    5.1871   33.7044 C   0  0  0  0  0  0  0  0  0  0  0  0
  -27.0667    5.6860   32.8687 C   0  0  0  0  0  0  0  0  0  0  0  0
  -27.7114    6.5162   32.8179 C   0  0  0  0  0  0  0  0  0  0  0  0
  -28.4406    7.0041   31.6432 C   0  0  0  0  0  0  0  0  0  0  0  0
  -28.1246    6.4608   30.4602 C   0  0  0  0  0  0  0  0  0  0  0  0
  -27.2059    5.4977   30.3829 C   0  0  0  0  0  0  0  0  0  0  0  0
  -26.6735    5.0321   31.5386 C   0  0  0  0  0  0  0  0  0  0  0  0
  -25.9268    4.2513   31.5572 N   0  0  0  0  0  0  0  0  0  0  0  0
  4  7  1  0
  7  8  1  0
  3 16  1  0
  6 19  1  0
 19 20  2  0
 19 21  1  0
 13 22  1  0
 22 23  2  0
 23 24  1  0
 24 25  2  0
 22 26  1  0
 25 26  1  0
 26 27  1  0
 17 34  1  0
 33 34  1  0
 27 28  1  0
  8  9  2  0
 15 14  2  0
 14 11  1  0
 11 10  2  0
 10  8  1  0
  9 12  1  0
 12 13  2  0
 13 17  1  0
 17 18  2  0
 18 15  1  0
 15  9  1  0
  1  2  2  0
  2  6  1  0
  6  5  2  0
  5  4  1  0
  4  3  2  0
  3  1  1  0
 28 29  2  0
 29 30  1  0
 30 31  2  0
 31 32  1  0
 32 33  2  0
 33 28  1  0
M  END

$$$$
