No_3084-gen_results/8p0m/2024-11-26-14-13-15/
     RDKit          3D

 14 15  0  0  0  0  0  0  0  0999 V2000
  -28.0162   -0.8135   28.8779 C   0  0  0  0  0  0  0  0  0  0  0  0
  -27.0636   -0.1189   28.6079 C   0  0  0  0  0  0  0  0  0  0  0  0
  -27.0010    0.6913   27.4910 C   0  0  0  0  0  0  0  0  0  0  0  0
  -28.1373    0.7363   26.6350 C   0  0  0  0  0  0  0  0  0  0  0  0
  -29.2360    0.0765   27.0690 C   0  0  0  0  0  0  0  0  0  0  0  0
  -29.2177   -0.6429   28.1747 C   0  0  0  0  0  0  0  0  0  0  0  0
  -30.3423    0.1617   26.2790 O   0  0  0  0  0  0  0  0  0  0  0  0
  -25.7291   -0.2038   29.3995 C   0  0  0  0  0  0  0  0  0  0  0  0
  -25.4247   -1.0366   30.0536 C   0  0  0  0  0  0  0  0  0  0  0  0
  -24.3485   -1.3063   30.5193 C   0  0  0  0  0  0  0  0  0  0  0  0
  -23.1990   -0.3972   30.4474 C   0  0  0  0  0  0  0  0  0  0  0  0
  -23.4703    0.7005   29.6769 C   0  0  0  0  0  0  0  0  0  0  0  0
  -24.7470    0.8341   29.0321 C   0  0  0  0  0  0  0  0  0  0  0  0
  -30.2874   -0.3264   25.0636 C   0  0  0  0  0  0  0  0  0  0  0  0
  5  7  1  0
  2  8  1  0
  7 14  1  0
  1  2  2  0
  2  3  1  0
  3  4  2  0
  4  5  1  0
  5  6  2  0
  6  1  1  0
  8  9  2  0
  9 10  1  0
 10 11  2  0
 11 12  1  0
 12 13  2  0
 13  8  1  0
M  END

$$$$
