No_3617-gen_results/8p0m/2024-11-26-14-13-15/
     RDKit          3D

 22 24  0  0  0  0  0  0  0  0999 V2000
  -28.0162   -0.8135   28.8779 C   0  0  0  0  0  0  0  0  0  0  0  0
  -28.4690   -0.7850   29.8287 C   0  0  0  0  0  0  0  0  0  0  0  0
  -27.1356    0.2359   28.5352 C   0  0  0  0  0  0  0  0  0  0  0  0
  -26.8745    1.2825   29.3982 C   0  0  0  0  0  0  0  0  0  0  0  0
  -28.3613    0.1987   30.9244 C   0  0  0  0  0  0  0  0  0  0  0  0
  -27.5277    1.2234   30.6356 C   0  0  0  0  0  0  0  0  0  0  0  0
  -26.3879    0.2914   27.2334 C   0  0  0  0  0  0  0  0  0  0  0  0
  -25.7788   -0.5228   27.0339 F   0  0  0  0  0  0  0  0  0  0  0  0
  -25.6033    1.4596   27.1041 F   0  0  0  0  0  0  0  0  0  0  0  0
  -27.3759    0.5235   26.2013 F   0  0  0  0  0  0  0  0  0  0  0  0
  -29.3958   -2.0216   30.3203 C   0  0  0  0  0  0  0  0  0  0  0  0
  -30.4676   -2.0325   30.0565 O   0  0  0  0  0  0  0  0  0  0  0  0
  -28.8026   -3.0273   31.0046 O   0  0  0  0  0  0  0  0  0  0  0  0
  -27.2664    2.3347   31.6023 C   0  0  0  0  0  0  0  0  0  0  0  0
  -27.2947    2.4342   32.6419 N   0  0  0  0  0  0  0  0  0  0  0  0
  -26.9483    3.6673   30.8682 C   0  0  0  0  0  0  0  0  0  0  0  0
  -26.8901    3.9579   29.5332 C   0  0  0  0  0  0  0  0  0  0  0  0
  -26.6358    4.7148   31.8623 C   0  0  0  0  0  0  0  0  0  0  0  0
  -26.6204    4.6008   33.1720 C   0  0  0  0  0  0  0  0  0  0  0  0
  -26.9567    3.2993   33.6520 C   0  0  0  0  0  0  0  0  0  0  0  0
  -27.1173    2.8297   28.6012 C   0  0  0  0  0  0  0  0  0  0  0  0
  -25.5751    4.6579   29.2282 C   0  0  0  0  0  0  0  0  0  0  0  0
  3  7  1  0
  7  8  1  0
  7  9  1  0
  7 10  1  0
  2 11  1  0
 11 12  2  0
 11 13  1  0
 17 22  1  0
 14 15  2  0
 15 20  1  0
 20 19  2  0
 19 18  1  0
 18 16  2  0
  1  2  2  0
  2  5  1  0
  5  6  2  0
  4  3  2  0
  3  1  1  0
  4  6  1  0
  6 14  1  0
 14 16  1  0
 16 17  1  0
 17 21  2  0
 21  4  1  0
M  END

$$$$
