No_3057-gen_results/8p0m/2024-11-26-14-13-15/
     RDKit          3D

 13 13  0  0  0  0  0  0  0  0999 V2000
  -28.0162   -0.8135   28.8779 C   0  0  0  0  0  0  0  0  0  0  0  0
  -27.0636   -0.1189   28.6079 C   0  0  0  0  0  0  0  0  0  0  0  0
  -27.0010    0.6913   27.4910 C   0  0  0  0  0  0  0  0  0  0  0  0
  -25.8548    1.4825   27.0830 C   0  0  0  0  0  0  0  0  0  0  0  0
  -24.6901    1.4526   27.8807 C   0  0  0  0  0  0  0  0  0  0  0  0
  -23.4878    2.1451   27.6011 C   0  0  0  0  0  0  0  0  0  0  0  0
  -25.8122   -0.1656   29.4298 C   0  0  0  0  0  0  0  0  0  0  0  0
  -24.6457    0.5887   29.0806 C   0  0  0  0  0  0  0  0  0  0  0  0
  -27.7065   -1.9553   29.3346 F   0  0  0  0  0  0  0  0  0  0  0  0
  -28.8415   -1.0215   27.8866 F   0  0  0  0  0  0  0  0  0  0  0  0
  -28.7567   -0.1980   29.8745 F   0  0  0  0  0  0  0  0  0  0  0  0
  -22.3161    1.8492   28.1511 N   0  0  0  0  0  0  0  0  0  0  0  0
  -23.4830    2.9692   26.5907 O   0  0  0  0  0  0  0  0  0  0  0  0
  1  2  1  0
  5  6  1  0
  1  9  1  0
  1 10  1  0
  1 11  1  0
  6 12  1  0
  6 13  2  0
  2  3  2  0
  3  4  1  0
  4  5  2  0
  5  8  1  0
  8  7  2  0
  7  2  1  0
M  END

$$$$
