No_3536-gen_results/8p0m/2024-11-26-14-13-15/
     RDKit          3D

 13 13  0  0  0  0  0  0  0  0999 V2000
  -28.0162   -0.8135   28.8779 C   0  0  0  0  0  0  0  0  0  0  0  0
  -28.4690   -0.7850   29.8287 C   0  0  0  0  0  0  0  0  0  0  0  0
  -26.5042   -0.7777   28.8766 C   0  0  0  0  0  0  0  0  0  0  0  0
  -25.6540   -0.6597   27.7191 C   0  0  0  0  0  0  0  0  0  0  0  0
  -27.9180   -0.9374   31.1824 C   0  0  0  0  0  0  0  0  0  0  0  0
  -26.5423   -0.9399   31.2606 C   0  0  0  0  0  0  0  0  0  0  0  0
  -25.7832   -0.8935   30.1201 C   0  0  0  0  0  0  0  0  0  0  0  0
  -25.4163    0.5023   27.4711 F   0  0  0  0  0  0  0  0  0  0  0  0
  -24.4331   -1.3297   27.9336 F   0  0  0  0  0  0  0  0  0  0  0  0
  -26.2209   -1.1618   26.6042 F   0  0  0  0  0  0  0  0  0  0  0  0
  -30.0519   -0.8059   29.8911 C   0  0  0  0  0  0  0  0  0  0  0  0
  -30.6647   -0.2288   30.7856 O   0  0  0  0  0  0  0  0  0  0  0  0
  -30.6267   -1.3395   28.9031 O   0  0  0  0  0  0  0  0  0  0  0  0
  3  4  1  0
  4  8  1  0
  4  9  1  0
  4 10  1  0
  2 11  1  0
 11 12  2  0
 11 13  1  0
  1  2  2  0
  2  5  1  0
  5  6  2  0
  6  7  1  0
  7  3  2  0
  3  1  1  0
M  END

$$$$
