No_3279-gen_results/8p0m/2024-11-26-14-13-15/
     RDKit          3D

 18 19  0  0  0  0  0  0  0  0999 V2000
  -28.0162   -0.8135   28.8779 C   0  0  0  0  0  0  0  0  0  0  0  0
  -27.0636   -0.1189   28.6079 C   0  0  0  0  0  0  0  0  0  0  0  0
  -27.0788    0.9846   29.1738 F   0  0  0  0  0  0  0  0  0  0  0  0
  -26.7804    0.1060   27.1177 C   0  0  0  0  0  0  0  0  0  0  0  0
  -25.7187   -0.8149   29.1546 C   0  0  0  0  0  0  0  0  0  0  0  0
  -25.5905   -2.0965   29.3403 C   0  0  0  0  0  0  0  0  0  0  0  0
  -29.3045   -0.1785   28.9238 C   0  0  0  0  0  0  0  0  0  0  0  0
  -29.6618    0.5111   29.9463 O   0  0  0  0  0  0  0  0  0  0  0  0
  -24.3438   -2.6584   29.6278 C   0  0  0  0  0  0  0  0  0  0  0  0
  -23.2569   -1.8471   29.6576 C   0  0  0  0  0  0  0  0  0  0  0  0
  -24.3917   -0.1424   29.0948 C   0  0  0  0  0  0  0  0  0  0  0  0
  -23.2242   -0.5742   29.3504 C   0  0  0  0  0  0  0  0  0  0  0  0
  -30.0558   -0.3211   27.8981 O   0  0  0  0  0  0  0  0  0  0  0  0
  -27.7986    0.6988   26.3884 C   0  0  0  0  0  0  0  0  0  0  0  0
  -25.6115   -0.2690   26.4302 C   0  0  0  0  0  0  0  0  0  0  0  0
  -27.5693    0.9372   25.0306 C   0  0  0  0  0  0  0  0  0  0  0  0
  -25.4367    0.1378   25.0983 C   0  0  0  0  0  0  0  0  0  0  0  0
  -26.4186    0.6769   24.4114 C   0  0  0  0  0  0  0  0  0  0  0  0
  1  2  1  0
  2  3  1  0
  2  4  1  0
  2  5  1  0
  1  7  1  0
  7  8  2  0
  7 13  1  0
  4 14  2  0
 14 16  1  0
 16 18  2  0
 18 17  1  0
 17 15  2  0
 15  4  1  0
  5  6  2  0
  6  9  1  0
  9 10  2  0
 10 12  1  0
 12 11  2  0
 11  5  1  0
M  END

$$$$
