No_3717-gen_results/8p0m/2024-11-26-14-13-15/
     RDKit          3D

 16 16  0  0  0  0  0  0  0  0999 V2000
  -28.0162   -0.8135   28.8779 C   0  0  0  0  0  0  0  0  0  0  0  0
  -27.0636   -0.1189   28.6079 C   0  0  0  0  0  0  0  0  0  0  0  0
  -26.9716    0.7139   27.5060 C   0  0  0  0  0  0  0  0  0  0  0  0
  -28.1053    0.7744   26.6421 C   0  0  0  0  0  0  0  0  0  0  0  0
  -29.2041    0.1179   27.0477 C   0  0  0  0  0  0  0  0  0  0  0  0
  -30.3488    0.2568   26.2203 C   0  0  0  0  0  0  0  0  0  0  0  0
  -29.1817   -0.6758   28.1173 C   0  0  0  0  0  0  0  0  0  0  0  0
  -30.1729   -0.1730   25.0430 F   0  0  0  0  0  0  0  0  0  0  0  0
  -31.3325   -0.5685   26.7043 F   0  0  0  0  0  0  0  0  0  0  0  0
  -30.8378    1.4622   26.0965 F   0  0  0  0  0  0  0  0  0  0  0  0
  -25.6740    1.4383   27.1313 C   0  0  0  0  0  0  0  0  0  0  0  0
  -24.5658    1.0375   27.8014 C   0  0  0  0  0  0  0  0  0  0  0  0
  -23.3085    1.7855   27.4590 C   0  0  0  0  0  0  0  0  0  0  0  0
  -22.1110    1.5344   28.2419 C   0  0  0  0  0  0  0  0  0  0  0  0
  -22.0794    0.4437   29.0988 C   0  0  0  0  0  0  0  0  0  0  0  0
  -23.2012   -0.3617   29.3530 C   0  0  0  0  0  0  0  0  0  0  0  0
  5  6  1  0
  6  8  1  0
  6  9  1  0
  6 10  1  0
  3 11  1  0
 11 12  2  3
 12 13  1  0
 13 14  2  3
 14 15  1  0
 15 16  2  0
  1  2  2  0
  2  3  1  0
  3  4  2  0
  4  5  1  0
  5  7  2  0
  7  1  1  0
M  END

$$$$
