No_3413-gen_results/8p0m/2024-11-26-14-13-15/
     RDKit          3D

 19 21  0  0  0  0  0  0  0  0999 V2000
  -28.0162   -0.8135   28.8779 C   0  0  0  0  0  0  0  0  0  0  0  0
  -27.0636   -0.1189   28.6079 C   0  0  0  0  0  0  0  0  0  0  0  0
  -25.8176   -0.3427   29.0488 N   0  0  0  0  0  0  0  0  0  0  0  0
  -25.5552   -1.4726   29.7295 C   0  0  0  0  0  0  0  0  0  0  0  0
  -26.6210   -2.2986   30.1049 C   0  0  0  0  0  0  0  0  0  0  0  0
  -27.8348   -1.9700   29.6762 C   0  0  0  0  0  0  0  0  0  0  0  0
  -27.1598    1.0910   27.8992 N   0  0  0  0  0  0  0  0  0  0  0  0
  -27.6895    1.1876   26.7187 C   0  0  0  0  0  0  0  0  0  0  0  0
  -28.3825    0.2716   26.2261 C   0  0  0  0  0  0  0  0  0  0  0  0
  -28.9494    0.3502   24.8926 C   0  0  0  0  0  0  0  0  0  0  0  0
  -28.7103    1.5228   24.1745 C   0  0  0  0  0  0  0  0  0  0  0  0
  -27.9649    2.5632   24.7067 C   0  0  0  0  0  0  0  0  0  0  0  0
  -27.4523    2.4621   25.9703 C   0  0  0  0  0  0  0  0  0  0  0  0
  -26.5871    2.3248   28.5947 C   0  0  0  0  0  0  0  0  0  0  0  0
  -26.3192    2.2394   30.0448 C   0  0  0  0  0  0  0  0  0  0  0  0
  -25.7306    3.3962   30.4798 C   0  0  0  0  0  0  0  0  0  0  0  0
  -25.4820    4.5456   29.7821 C   0  0  0  0  0  0  0  0  0  0  0  0
  -25.7452    4.5358   28.4127 C   0  0  0  0  0  0  0  0  0  0  0  0
  -26.2916    3.3845   27.8096 C   0  0  0  0  0  0  0  0  0  0  0  0
  2  7  1  0
  7  8  1  0
  7 14  1  0
  1  2  2  0
  2  3  1  0
  3  4  2  0
  4  5  1  0
  5  6  2  0
  6  1  1  0
  8  9  2  0
  9 10  1  0
 10 11  2  0
 11 12  1  0
 12 13  2  0
 13  8  1  0
 14 15  2  0
 15 16  1  0
 16 17  2  0
 17 18  1  0
 18 19  2  0
 19 14  1  0
M  END

$$$$
