No_3292-gen_results/8p0m/2024-11-26-14-13-15/
     RDKit          3D

 35 37  0  0  0  0  0  0  0  0999 V2000
  -28.0162   -0.8135   28.8779 C   0  0  0  0  0  0  0  0  0  0  0  0
  -27.0636   -0.1190   28.6079 C   0  0  0  0  0  0  0  0  0  0  0  0
  -27.0010    0.6913   27.4910 C   0  0  0  0  0  0  0  0  0  0  0  0
  -25.8548    1.4825   27.0830 C   0  0  0  0  0  0  0  0  0  0  0  0
  -24.6901    1.4526   27.8807 C   0  0  0  0  0  0  0  0  0  0  0  0
  -24.7379    0.6010   29.0416 C   0  0  0  0  0  0  0  0  0  0  0  0
  -25.8234   -0.1688   29.3887 C   0  0  0  0  0  0  0  0  0  0  0  0
  -28.1013   -1.8474   30.2999 Cl  0  0  0  0  0  0  0  0  0  0  0  0
  -23.5174    2.2074   27.5644 C   0  0  0  0  0  0  0  0  0  0  0  0
  -22.5210    2.2085   28.3666 N   0  0  0  0  0  0  0  0  0  0  0  0
  -23.4952    2.7743   26.4286 F   0  0  0  0  0  0  0  0  0  0  0  0
  -29.6201   -0.4873   28.3325 Cl  0  0  0  0  0  0  0  0  0  0  0  0
  -28.0170    0.7683   26.6752 O   0  0  0  0  0  0  0  0  0  0  0  0
  -28.0275    0.6022   25.4451 C   0  0  0  0  0  0  0  0  0  0  0  0
  -29.2044    0.2638   24.7892 C   0  0  0  0  0  0  0  0  0  0  0  0
  -30.1568   -0.0369   25.5169 C   0  0  0  0  0  0  0  0  0  0  0  0
  -31.3973   -0.6343   24.9747 C   0  0  0  0  0  0  0  0  0  0  0  0
  -32.3988   -1.1992   25.8023 C   0  0  0  0  0  0  0  0  0  0  0  0
  -33.2207   -2.0604   25.4076 C   0  0  0  0  0  0  0  0  0  0  0  0
  -34.2122   -2.6630   26.2608 C   0  0  0  0  0  0  0  0  0  0  0  0
  -34.1990   -2.2809   27.6094 C   0  0  0  0  0  0  0  0  0  0  0  0
  -33.3177   -1.3617   28.0495 C   0  0  0  0  0  0  0  0  0  0  0  0
  -32.3920   -0.8234   27.2045 C   0  0  0  0  0  0  0  0  0  0  0  0
  -26.9509    0.7407   24.7518 O   0  0  0  0  0  0  0  0  0  0  0  0
  -29.2900    0.1572   23.3696 C   0  0  0  0  0  0  0  0  0  0  0  0
  -30.4337   -0.3694   22.9294 C   0  0  0  0  0  0  0  0  0  0  0  0
  -31.4203   -0.8047   23.6621 C   0  0  0  0  0  0  0  0  0  0  0  0
  -35.2675   -2.8855   28.4893 C   0  0  0  0  0  0  0  0  0  0  0  0
  -35.3970   -2.4994   29.6138 O   0  0  0  0  0  0  0  0  0  0  0  0
  -35.8456   -3.8347   28.0853 O   0  0  0  0  0  0  0  0  0  0  0  0
  -36.1442   -2.7294   30.4958 C   0  0  0  0  0  0  0  0  0  0  0  0
  -36.3022   -2.0905   31.3786 C   0  0  0  0  0  0  0  0  0  0  0  0
  -36.8595   -3.9996   30.3922 C   0  0  0  0  0  0  0  0  0  0  0  0
  -37.7768   -4.3736   31.4144 C   0  0  0  0  0  0  0  0  0  0  0  0
  -37.2212   -2.3322   32.5435 C   0  0  0  0  0  0  0  0  0  0  0  0
  1  2  1  0
  1  8  1  0
  5  9  1  0
  9 10  2  0
  9 11  1  0
  1 12  1  0
  3 13  1  0
 13 14  1  0
 14 15  1  0
 17 18  1  0
 14 24  2  0
 21 28  1  0
 28 29  1  0
 28 30  2  0
 29 31  1  0
 31 32  2  3
 31 33  1  0
 33 34  2  0
 32 35  1  0
 18 19  2  0
 19 20  1  0
 20 21  2  0
 21 22  1  0
 22 23  2  0
 23 18  1  0
  2  3  2  0
  3  4  1  0
  4  5  2  0
  5  6  1  0
  6  7  2  0
  7  2  1  0
 15 16  2  0
 16 17  1  0
 17 27  2  0
 27 26  1  0
 26 25  2  0
 25 15  1  0
M  END

$$$$
