No_3913-gen_results/8p0m/2024-11-26-14-13-15/
     RDKit          3D

 19 21  0  0  0  0  0  0  0  0999 V2000
  -28.1229   -1.3353   28.4874 O   0  0  0  0  0  0  0  0  0  0  0  0
  -27.4806   -0.4044   28.7094 C   0  0  0  0  0  0  0  0  0  0  0  0
  -27.2412    0.3910   29.5098 N   0  0  0  0  0  0  0  0  0  0  0  0
  -26.4066   -0.1069   27.4496 C   0  0  0  0  0  0  0  0  0  0  0  0
  -25.4358    0.8473   27.6341 C   0  0  0  0  0  0  0  0  0  0  0  0
  -24.3969    1.1078   26.6806 C   0  0  0  0  0  0  0  0  0  0  0  0
  -28.1114    0.2298   30.7160 C   0  0  0  0  0  0  0  0  0  0  0  0
  -23.3378    2.0296   27.0921 C   0  0  0  0  0  0  0  0  0  0  0  0
  -23.1858    2.2624   28.4306 C   0  0  0  0  0  0  0  0  0  0  0  0
  -24.0266    1.8141   29.3830 C   0  0  0  0  0  0  0  0  0  0  0  0
  -25.0754    1.0925   29.0410 C   0  0  0  0  0  0  0  0  0  0  0  0
  -26.0565    1.0820   29.8912 C   0  0  0  0  0  0  0  0  0  0  0  0
  -25.9774    1.6993   31.0322 O   0  0  0  0  0  0  0  0  0  0  0  0
  -29.4125    0.6692   30.2847 C   0  0  0  0  0  0  0  0  0  0  0  0
  -29.8460    1.5270   30.8847 C   0  0  0  0  0  0  0  0  0  0  0  0
  -31.1247    2.1492   30.4510 C   0  0  0  0  0  0  0  0  0  0  0  0
  -31.8238    1.5396   29.4126 C   0  0  0  0  0  0  0  0  0  0  0  0
  -31.2698    0.4795   28.7614 C   0  0  0  0  0  0  0  0  0  0  0  0
  -30.0352    0.0124   29.1569 C   0  0  0  0  0  0  0  0  0  0  0  0
  1  2  2  0
  2  3  1  0
  2  4  1  0
  3  7  1  0
  3 12  1  0
 11 12  1  0
 12 13  2  0
  7 14  1  0
  4  5  1  0
  5  6  2  0
  6  8  1  0
  8  9  2  0
  9 10  1  0
 10 11  2  0
 11  5  1  0
 14 15  2  0
 15 16  1  0
 16 17  2  0
 17 18  1  0
 18 19  2  0
 19 14  1  0
M  END

$$$$
