No_3942-gen_results/8p0m/2024-11-26-14-13-15/
     RDKit          3D

 30 30  0  0  0  0  0  0  0  0999 V2000
  -28.0162   -0.8135   28.8779 C   0  0  0  0  0  0  0  0  0  0  0  0
  -27.0636   -0.1190   28.6079 C   0  0  0  0  0  0  0  0  0  0  0  0
  -27.0010    0.6913   27.4910 C   0  0  0  0  0  0  0  0  0  0  0  0
  -25.8548    1.4825   27.0830 C   0  0  0  0  0  0  0  0  0  0  0  0
  -24.6901    1.4526   27.8807 C   0  0  0  0  0  0  0  0  0  0  0  0
  -24.7379    0.6010   29.0416 C   0  0  0  0  0  0  0  0  0  0  0  0
  -25.8234   -0.1688   29.3887 C   0  0  0  0  0  0  0  0  0  0  0  0
  -27.9613   -1.6072   30.0877 N   0  0  0  0  0  0  0  0  0  0  0  0
  -23.5206    2.2106   27.5734 C   0  0  0  0  0  0  0  0  0  0  0  0
  -23.5797    2.8572   26.6718 F   0  0  0  0  0  0  0  0  0  0  0  0
  -23.0327    2.9358   28.6072 F   0  0  0  0  0  0  0  0  0  0  0  0
  -22.4011    1.3412   27.4106 F   0  0  0  0  0  0  0  0  0  0  0  0
  -29.1887   -0.5962   28.5039 O   0  0  0  0  0  0  0  0  0  0  0  0
  -29.0649   -2.4662   30.5825 C   0  0  0  0  0  0  0  0  0  0  0  0
  -29.4283   -2.0871   31.7992 C   0  0  0  0  0  0  0  0  0  0  0  0
  -28.5249   -1.7097   32.5012 F   0  0  0  0  0  0  0  0  0  0  0  0
  -30.3391   -1.0689   31.7032 F   0  0  0  0  0  0  0  0  0  0  0  0
  -30.1401   -3.1540   32.3583 F   0  0  0  0  0  0  0  0  0  0  0  0
  -29.1437   -3.5280   29.9483 O   0  0  0  0  0  0  0  0  0  0  0  0
  -23.2722    0.4596   29.9811 Cl  0  0  0  0  0  0  0  0  0  0  0  0
  -28.0508    0.7657   26.7214 O   0  0  0  0  0  0  0  0  0  0  0  0
  -28.6308    1.9025   26.4841 C   0  0  0  0  0  0  0  0  0  0  0  0
  -29.0515    2.0174   25.2641 C   0  0  0  0  0  0  0  0  0  0  0  0
  -30.2393    1.3276   24.9690 C   0  0  0  0  0  0  0  0  0  0  0  0
  -30.5932    0.4202   25.5355 C   0  0  0  0  0  0  0  0  0  0  0  0
  -31.7955   -0.4245   25.1655 C   0  0  0  0  0  0  0  0  0  0  0  0
  -32.1321   -1.6247   25.8485 C   0  0  0  0  0  0  0  0  0  0  0  0
  -31.7193   -1.7120   27.0893 C   0  0  0  0  0  0  0  0  0  0  0  0
  -32.2693   -1.1045   27.9482 C   0  0  0  0  0  0  0  0  0  0  0  0
  -33.1342   -1.0937   28.7271 N   0  0  0  0  0  0  0  0  0  0  0  0
  1  2  1  0
  1  8  1  0
  5  9  1  0
  9 10  1  0
  9 11  1  0
  9 12  1  0
  1 13  2  0
  8 14  1  0
 14 15  1  0
 15 16  1  0
 15 17  1  0
 15 18  1  0
 14 19  2  0
  6 20  1  0
  3 21  1  0
 21 22  1  0
 22 23  1  0
 23 24  1  0
 24 25  1  0
 25 26  2  3
 26 27  1  0
 27 28  2  3
 28 29  1  0
 29 30  3  0
  2  3  2  0
  3  4  1  0
  4  5  2  0
  5  6  1  0
  6  7  2  0
  7  2  1  0
M  END

$$$$
