No_3445-gen_results/8p0m/2024-11-26-14-13-15/
     RDKit          3D

 35 38  0  0  0  0  0  0  0  0999 V2000
  -28.0162   -0.8135   28.8779 C   0  0  0  0  0  0  0  0  0  0  0  0
  -27.0636   -0.1190   28.6079 C   0  0  0  0  0  0  0  0  0  0  0  0
  -26.9716    0.7139   27.5060 C   0  0  0  0  0  0  0  0  0  0  0  0
  -28.1053    0.7744   26.6421 C   0  0  0  0  0  0  0  0  0  0  0  0
  -29.2041    0.1179   27.0477 C   0  0  0  0  0  0  0  0  0  0  0  0
  -29.2528   -0.3099   28.1229 C   0  0  0  0  0  0  0  0  0  0  0  0
  -25.8268    1.3208   27.1223 F   0  0  0  0  0  0  0  0  0  0  0  0
  -30.3811    0.3478   26.1248 C   0  0  0  0  0  0  0  0  0  0  0  0
  -31.2986   -0.2682   26.2333 O   0  0  0  0  0  0  0  0  0  0  0  0
  -30.2272    1.1756   25.0037 N   0  0  0  0  0  0  0  0  0  0  0  0
  -28.1012   -1.4698   30.0220 F   0  0  0  0  0  0  0  0  0  0  0  0
  -29.1905    2.1148   24.8228 C   0  0  0  0  0  0  0  0  0  0  0  0
  -27.9248    1.7957   25.5381 C   0  0  0  0  0  0  0  0  0  0  0  0
  -25.7028   -0.3381   29.3913 C   0  0  0  0  0  0  0  0  0  0  0  0
  -25.0881   -1.5214   29.2402 C   0  0  0  0  0  0  0  0  0  0  0  0
  -25.4632   -2.6152   28.9581 C   0  0  0  0  0  0  0  0  0  0  0  0
  -24.6099   -3.8110   28.9720 C   0  0  0  0  0  0  0  0  0  0  0  0
  -23.3900   -3.2802   29.0457 N   0  0  0  0  0  0  0  0  0  0  0  0
  -23.6359   -1.8959   29.2862 C   0  0  0  0  0  0  0  0  0  0  0  0
  -24.8384   -5.0490   28.7316 N   0  0  0  0  0  0  0  0  0  0  0  0
  -31.3371    1.3661   24.1340 C   0  0  0  0  0  0  0  0  0  0  0  0
  -22.7473   -0.8939   29.5042 N   0  0  0  0  0  0  0  0  0  0  0  0
  -21.8870   -0.5062   28.5159 C   0  0  0  0  0  0  0  0  0  0  0  0
  -22.7114   -0.2814   30.8282 C   0  0  0  0  0  0  0  0  0  0  0  0
  -21.6786    1.0008   28.4362 C   0  0  0  0  0  0  0  0  0  0  0  0
  -22.5002    1.4996   27.4113 F   0  0  0  0  0  0  0  0  0  0  0  0
  -22.0350    1.6542   29.3996 F   0  0  0  0  0  0  0  0  0  0  0  0
  -20.4509    1.2679   27.9581 F   0  0  0  0  0  0  0  0  0  0  0  0
  -31.6181    2.6759   23.8241 C   0  0  0  0  0  0  0  0  0  0  0  0
  -32.7588    2.8674   22.9810 C   0  0  0  0  0  0  0  0  0  0  0  0
  -33.3927    1.8134   22.3717 C   0  0  0  0  0  0  0  0  0  0  0  0
  -33.0042    0.5212   22.7013 C   0  0  0  0  0  0  0  0  0  0  0  0
  -31.9806    0.2991   23.5906 C   0  0  0  0  0  0  0  0  0  0  0  0
  -29.1538    2.9756   23.9906 O   0  0  0  0  0  0  0  0  0  0  0  0
  -33.1975    4.2683   22.5577 C   0  0  0  0  0  0  0  0  0  0  0  0
  3  7  1  0
  5  8  1  0
  8  9  2  0
  8 10  1  0
  1 11  1  0
 10 12  1  0
  4 13  1  0
 12 13  1  0
  2 14  1  0
 14 15  1  0
 15 16  2  0
 16 17  1  0
 17 18  2  0
 15 19  1  0
 18 19  1  0
 17 20  1  0
 10 21  1  0
 19 22  1  0
 22 23  1  0
 22 24  1  0
 23 25  1  0
 25 26  1  0
 25 27  1  0
 25 28  1  0
 12 34  2  0
 30 35  1  0
  1  2  2  0
  2  3  1  0
  3  4  2  0
  4  5  1  0
  5  6  2  0
  6  1  1  0
 21 29  2  0
 29 30  1  0
 30 31  2  0
 31 32  1  0
 32 33  2  0
 33 21  1  0
M  END

$$$$
