No_3786-gen_results/8p0m/2024-11-26-14-13-15/
     RDKit          3D

 10 11  0  0  0  0  0  0  0  0999 V2000
  -28.0162   -0.8135   28.8779 C   0  0  0  0  0  0  0  0  0  0  0  0
  -27.0636   -0.1189   28.6079 C   0  0  0  0  0  0  0  0  0  0  0  0
  -25.7923   -0.4302   29.0761 C   0  0  0  0  0  0  0  0  0  0  0  0
  -25.5756   -1.5654   29.9363 C   0  0  0  0  0  0  0  0  0  0  0  0
  -26.7354   -2.3004   30.2173 C   0  0  0  0  0  0  0  0  0  0  0  0
  -27.9184   -1.9537   29.7629 C   0  0  0  0  0  0  0  0  0  0  0  0
  -26.8968    1.1016   27.7052 C   0  0  0  0  0  0  0  0  0  0  0  0
  -25.8554    1.5416   27.2307 C   0  0  0  0  0  0  0  0  0  0  0  0
  -24.5492    1.1632   27.8487 C   0  0  0  0  0  0  0  0  0  0  0  0
  -24.4994    0.1126   28.6990 C   0  0  0  0  0  0  0  0  0  0  0  0
  1  2  2  0
  3  4  2  0
  4  5  1  0
  5  6  2  0
  6  1  1  0
  2  3  1  0
  3 10  1  0
 10  9  2  0
  9  8  1  0
  8  7  2  0
  7  2  1  0
M  END

$$$$
