No_3838-gen_results/8p0m/2024-11-26-14-13-15/
     RDKit          3D

 18 18  0  0  0  0  0  0  0  0999 V2000
  -28.0162   -0.8135   28.8779 C   0  0  0  0  0  0  0  0  0  0  0  0
  -28.4690   -0.7850   29.8287 C   0  0  0  0  0  0  0  0  0  0  0  0
  -26.5042   -0.7777   28.8766 C   0  0  0  0  0  0  0  0  0  0  0  0
  -25.6540   -0.6597   27.7191 C   0  0  0  0  0  0  0  0  0  0  0  0
  -27.9180   -0.9374   31.1824 C   0  0  0  0  0  0  0  0  0  0  0  0
  -26.5423   -0.9399   31.2606 C   0  0  0  0  0  0  0  0  0  0  0  0
  -25.7832   -0.8935   30.1201 C   0  0  0  0  0  0  0  0  0  0  0  0
  -25.9259    0.2819   26.7445 C   0  0  0  0  0  0  0  0  0  0  0  0
  -24.9904    0.6776   25.8676 C   0  0  0  0  0  0  0  0  0  0  0  0
  -24.1885    1.6080   25.8479 C   0  0  0  0  0  0  0  0  0  0  0  0
  -24.1204    2.5824   26.9652 C   0  0  0  0  0  0  0  0  0  0  0  0
  -23.4494    3.3739   26.9136 F   0  0  0  0  0  0  0  0  0  0  0  0
  -23.7252    1.7839   28.1058 F   0  0  0  0  0  0  0  0  0  0  0  0
  -25.4047    2.9878   27.2020 F   0  0  0  0  0  0  0  0  0  0  0  0
  -30.0600   -0.7337   29.8704 C   0  0  0  0  0  0  0  0  0  0  0  0
  -30.6473    0.3652   30.2424 N   0  0  0  0  0  0  0  0  0  0  0  0
  -31.7718    0.6566   30.1762 C   0  0  0  0  0  0  0  0  0  0  0  0
  -32.2950    1.9642   30.5730 C   0  0  0  0  0  0  0  0  0  0  0  0
  3  4  1  0
  4  8  1  0
  8  9  2  3
  9 10  1  0
 10 11  1  0
 11 12  1  0
 11 13  1  0
 11 14  1  0
  2 15  1  0
 15 16  1  0
 16 17  1  0
 17 18  2  0
  1  2  2  0
  2  5  1  0
  5  6  2  0
  6  7  1  0
  7  3  2  0
  3  1  1  0
M  END

$$$$
