No_3673-gen_results/8p0m/2024-11-26-14-13-15/
     RDKit          3D

 17 18  0  0  0  0  0  0  0  0999 V2000
  -28.1229   -1.3353   28.4874 O   0  0  0  0  0  0  0  0  0  0  0  0
  -27.4806   -0.4044   28.7094 C   0  0  0  0  0  0  0  0  0  0  0  0
  -26.3804   -0.0867   27.9394 C   0  0  0  0  0  0  0  0  0  0  0  0
  -27.6664    0.4468   29.8988 N   0  0  0  0  0  0  0  0  0  0  0  0
  -25.1773   -0.4388   28.3946 C   0  0  0  0  0  0  0  0  0  0  0  0
  -26.5259    0.6036   26.6867 C   0  0  0  0  0  0  0  0  0  0  0  0
  -24.8099   -1.1180   29.5646 C   0  0  0  0  0  0  0  0  0  0  0  0
  -28.7694    0.1525   30.7242 C   0  0  0  0  0  0  0  0  0  0  0  0
  -23.5473   -1.4995   29.8975 C   0  0  0  0  0  0  0  0  0  0  0  0
  -22.5110   -0.8915   29.1449 C   0  0  0  0  0  0  0  0  0  0  0  0
  -22.7033   -0.0226   28.0922 C   0  0  0  0  0  0  0  0  0  0  0  0
  -23.9963    0.1988   27.7089 C   0  0  0  0  0  0  0  0  0  0  0  0
  -24.2549    1.0156   26.6080 C   0  0  0  0  0  0  0  0  0  0  0  0
  -25.5034    1.2281   26.0889 C   0  0  0  0  0  0  0  0  0  0  0  0
  -26.8405    1.5334   30.2058 C   0  0  0  0  0  0  0  0  0  0  0  0
  -26.0899    1.4237   31.2152 C   0  0  0  0  0  0  0  0  0  0  0  0
  -26.4493    1.2202   32.4615 C   0  0  0  0  0  0  0  0  0  0  0  0
  1  2  2  0
  2  3  1  0
  2  4  1  0
  3  5  1  0
  3  6  1  0
  4  8  1  0
 12 13  1  0
  6 14  1  0
 13 14  1  0
  4 15  1  0
 15 16  2  3
 16 17  1  0
  5  7  2  0
  7  9  1  0
  9 10  2  0
 10 11  1  0
 11 12  2  0
 12  5  1  0
M  END

$$$$
