No_3344-gen_results/8p0m/2024-11-26-14-13-15/
     RDKit          3D

 19 20  0  0  0  0  0  0  0  0999 V2000
  -28.0162   -0.8135   28.8779 C   0  0  0  0  0  0  0  0  0  0  0  0
  -27.0636   -0.1189   28.6079 C   0  0  0  0  0  0  0  0  0  0  0  0
  -26.9716    0.7139   27.5060 C   0  0  0  0  0  0  0  0  0  0  0  0
  -28.1053    0.7744   26.6421 C   0  0  0  0  0  0  0  0  0  0  0  0
  -29.2008    0.1044   27.0527 C   0  0  0  0  0  0  0  0  0  0  0  0
  -28.0219   -1.5899   30.0879 C   0  0  0  0  0  0  0  0  0  0  0  0
  -29.1640   -0.6394   28.1484 C   0  0  0  0  0  0  0  0  0  0  0  0
  -27.0665   -2.4543   30.3037 N   0  0  0  0  0  0  0  0  0  0  0  0
  -29.0149   -1.6588   30.8762 O   0  0  0  0  0  0  0  0  0  0  0  0
  -30.5856    0.2161   26.0644 Cl  0  0  0  0  0  0  0  0  0  0  0  0
  -25.8504   -2.5230   29.5167 C   0  0  0  0  0  0  0  0  0  0  0  0
  -24.8468   -1.6362   29.7501 C   0  0  0  0  0  0  0  0  0  0  0  0
  -23.7710   -1.9899   30.2247 C   0  0  0  0  0  0  0  0  0  0  0  0
  -22.8162   -0.9229   30.4469 C   0  0  0  0  0  0  0  0  0  0  0  0
  -23.0131    0.3645   30.0116 C   0  0  0  0  0  0  0  0  0  0  0  0
  -24.1940    0.6898   29.4740 C   0  0  0  0  0  0  0  0  0  0  0  0
  -25.0991   -0.2873   29.3446 C   0  0  0  0  0  0  0  0  0  0  0  0
  -25.7731   -0.4245   28.5433 F   0  0  0  0  0  0  0  0  0  0  0  0
  -27.0036    1.0633   29.8643 C   0  0  0  0  0  0  0  0  0  0  0  0
  1  6  1  0
  6  8  1  0
  6  9  2  0
  5 10  1  0
  8 11  1  0
 11 12  1  0
 17 18  1  0
  2 19  1  0
 12 13  2  0
 13 14  1  0
 14 15  2  0
 15 16  1  0
 16 17  2  0
 17 12  1  0
  1  2  2  0
  2  3  1  0
  3  4  2  0
  4  5  1  0
  5  7  2  0
  7  1  1  0
M  END

$$$$
