No_3878-gen_results/8p0m/2024-11-26-14-13-15/
     RDKit          3D

 10  9  0  0  0  0  0  0  0  0999 V2000
  -28.1493   -0.8198   28.9079 Cl  0  0  0  0  0  0  0  0  0  0  0  0
  -27.8339    0.4961   29.0598 C   0  0  0  0  0  0  0  0  0  0  0  0
  -27.8833    1.0376   30.1944 F   0  0  0  0  0  0  0  0  0  0  0  0
  -26.3797    0.7729   28.5385 C   0  0  0  0  0  0  0  0  0  0  0  0
  -28.6112    1.2493   28.2241 F   0  0  0  0  0  0  0  0  0  0  0  0
  -26.0297    0.7143   27.2839 C   0  0  0  0  0  0  0  0  0  0  0  0
  -26.9655    0.4209   26.3783 C   0  0  0  0  0  0  0  0  0  0  0  0
  -28.2803    0.6791   26.4637 C   0  0  0  0  0  0  0  0  0  0  0  0
  -29.3636    0.8022   25.8014 C   0  0  0  0  0  0  0  0  0  0  0  0
  -29.0386    0.8336   27.1228 O   0  0  0  0  0  0  0  0  0  0  0  0
  1  2  1  0
  2  3  1  0
  2  4  1  0
  2  5  1  0
  4  6  2  3
  6  7  1  0
  7  8  2  3
  8  9  1  0
  8 10  1  0
M  END

$$$$
