No_3734-gen_results/8p0m/2024-11-26-14-13-15/
     RDKit          3D

 16 16  0  0  0  0  0  0  0  0999 V2000
  -28.0162   -0.8135   28.8779 C   0  0  0  0  0  0  0  0  0  0  0  0
  -28.4690   -0.7850   29.8287 C   0  0  0  0  0  0  0  0  0  0  0  0
  -27.1356    0.2359   28.5352 C   0  0  0  0  0  0  0  0  0  0  0  0
  -26.8050    1.0509   29.2763 C   0  0  0  0  0  0  0  0  0  0  0  0
  -28.2372    0.1503   30.9300 C   0  0  0  0  0  0  0  0  0  0  0  0
  -27.3522    1.1239   30.6071 C   0  0  0  0  0  0  0  0  0  0  0  0
  -26.4705    0.1962   27.1308 C   0  0  0  0  0  0  0  0  0  0  0  0
  -25.0393    0.1871   27.1090 C   0  0  0  0  0  0  0  0  0  0  0  0
  -27.1793    0.3412   25.9392 C   0  0  0  0  0  0  0  0  0  0  0  0
  -28.5297    0.4415   25.9272 C   0  0  0  0  0  0  0  0  0  0  0  0
  -29.1225    0.4562   24.6435 C   0  0  0  0  0  0  0  0  0  0  0  0
  -30.5289    0.5164   24.5369 C   0  0  0  0  0  0  0  0  0  0  0  0
  -31.0763    0.4923   23.4089 C   0  0  0  0  0  0  0  0  0  0  0  0
  -32.5192    0.4327   23.3114 C   0  0  0  0  0  0  0  0  0  0  0  0
  -33.3186    0.4690   24.4400 C   0  0  0  0  0  0  0  0  0  0  0  0
  -32.7123    0.5166   25.6447 C   0  0  0  0  0  0  0  0  0  0  0  0
  3  7  1  0
  7  8  1  0
  7  9  1  0
  9 10  1  0
 10 11  2  3
 11 12  1  0
 12 13  2  3
 13 14  1  0
 14 15  2  3
 15 16  1  0
  1  2  2  0
  2  5  1  0
  5  6  2  0
  6  4  1  0
  4  3  2  0
  3  1  1  0
M  END

$$$$
