No_3086-gen_results/8p0m/2024-11-26-14-13-15/
     RDKit          3D

 13 14  0  0  0  0  0  0  0  0999 V2000
  -28.0162   -0.8135   28.8779 C   0  0  0  0  0  0  0  0  0  0  0  0
  -27.0636   -0.1189   28.6079 C   0  0  0  0  0  0  0  0  0  0  0  0
  -26.9287    1.1713   29.0083 C   0  0  0  0  0  0  0  0  0  0  0  0
  -27.9560    1.7411   29.7840 C   0  0  0  0  0  0  0  0  0  0  0  0
  -29.0569   -0.3271   29.7466 C   0  0  0  0  0  0  0  0  0  0  0  0
  -28.9828    0.9722   30.1516 C   0  0  0  0  0  0  0  0  0  0  0  0
  -25.7249   -0.7275   27.6731 Cl  0  0  0  0  0  0  0  0  0  0  0  0
  -30.2534    1.4201   31.2318 Cl  0  0  0  0  0  0  0  0  0  0  0  0
  -27.8109    3.1704   30.1854 C   0  0  0  0  0  0  0  0  0  0  0  0
  -27.2270    3.9778   29.4621 N   0  0  0  0  0  0  0  0  0  0  0  0
  -26.4927    3.7982   28.5150 C   0  0  0  0  0  0  0  0  0  0  0  0
  -25.7798    3.0543   27.8455 C   0  0  0  0  0  0  0  0  0  0  0  0
  -26.0581    1.6804   27.9481 C   0  0  0  0  0  0  0  0  0  0  0  0
  2  7  1  0
  6  8  1  0
  4  9  1  0
  9 10  1  0
 10 11  1  0
 11 12  2  0
  3 13  1  0
 12 13  1  0
  1  2  2  0
  2  3  1  0
  3  4  2  0
  4  6  1  0
  6  5  2  0
  5  1  1  0
M  END

$$$$
