No_3015-gen_results/8p0m/2024-11-26-14-13-15/
     RDKit          3D

 17 18  0  0  0  0  0  0  0  0999 V2000
  -28.0162   -0.8135   28.8779 C   0  0  0  0  0  0  0  0  0  0  0  0
  -28.4690   -0.7850   29.8287 C   0  0  0  0  0  0  0  0  0  0  0  0
  -26.5042   -0.7777   28.8766 C   0  0  0  0  0  0  0  0  0  0  0  0
  -25.8103   -0.8531   30.1028 C   0  0  0  0  0  0  0  0  0  0  0  0
  -27.9906   -0.8916   31.2257 C   0  0  0  0  0  0  0  0  0  0  0  0
  -26.6042   -0.8676   31.2652 C   0  0  0  0  0  0  0  0  0  0  0  0
  -24.3894   -0.8050   30.1638 C   0  0  0  0  0  0  0  0  0  0  0  0
  -23.7660   -0.9500   31.0679 C   0  0  0  0  0  0  0  0  0  0  0  0
  -22.6512   -0.6461   31.4344 C   0  0  0  0  0  0  0  0  0  0  0  0
  -21.7485   -0.3305   30.3721 C   0  0  0  0  0  0  0  0  0  0  0  0
  -22.3144   -0.1125   29.1112 C   0  0  0  0  0  0  0  0  0  0  0  0
  -23.7531   -0.3709   28.9587 C   0  0  0  0  0  0  0  0  0  0  0  0
  -30.0942   -0.7764   29.8422 C   0  0  0  0  0  0  0  0  0  0  0  0
  -30.3819   -0.5121   28.7767 F   0  0  0  0  0  0  0  0  0  0  0  0
  -30.7539   -1.6022   30.4988 F   0  0  0  0  0  0  0  0  0  0  0  0
  -30.3726    0.3992   30.5678 F   0  0  0  0  0  0  0  0  0  0  0  0
  -21.4100    0.4831   27.8140 Cl  0  0  0  0  0  0  0  0  0  0  0  0
  4  7  1  0
  2 13  1  0
 13 14  1  0
 13 15  1  0
 13 16  1  0
 11 17  1  0
  1  2  2  0
  2  5  1  0
  5  6  2  0
  6  4  1  0
  4  3  2  0
  3  1  1  0
  7  8  2  0
  8  9  1  0
  9 10  2  0
 10 11  1  0
 11 12  2  0
 12  7  1  0
M  END

$$$$
