No_3616-gen_results/8p0m/2024-11-26-14-13-15/
     RDKit          3D

 15 16  0  0  0  0  0  0  0  0999 V2000
  -28.1229   -1.3353   28.4874 O   0  0  0  0  0  0  0  0  0  0  0  0
  -27.4806   -0.4044   28.7094 C   0  0  0  0  0  0  0  0  0  0  0  0
  -26.3804   -0.0867   27.9394 C   0  0  0  0  0  0  0  0  0  0  0  0
  -27.4232    0.1749   30.0549 N   0  0  0  0  0  0  0  0  0  0  0  0
  -25.4065    0.7421   28.2860 C   0  0  0  0  0  0  0  0  0  0  0  0
  -25.5698    1.4353   29.5751 C   0  0  0  0  0  0  0  0  0  0  0  0
  -26.5341    1.0730   30.4232 C   0  0  0  0  0  0  0  0  0  0  0  0
  -24.3030    1.2271   27.4407 C   0  0  0  0  0  0  0  0  0  0  0  0
  -23.0274    1.3759   27.9908 C   0  0  0  0  0  0  0  0  0  0  0  0
  -21.9680    1.8559   27.1231 C   0  0  0  0  0  0  0  0  0  0  0  0
  -24.4515    1.5481   26.1064 C   0  0  0  0  0  0  0  0  0  0  0  0
  -23.3930    2.0341   25.3439 C   0  0  0  0  0  0  0  0  0  0  0  0
  -22.1878    2.1807   25.9036 C   0  0  0  0  0  0  0  0  0  0  0  0
  -28.5649   -0.2682   30.8914 C   0  0  0  0  0  0  0  0  0  0  0  0
  -26.6491    1.6364   31.6080 O   0  0  0  0  0  0  0  0  0  0  0  0
  1  2  2  0
  2  3  1  0
  2  4  1  0
  5  6  1  0
  4  7  1  0
  6  7  1  0
  5  8  1  0
  4 14  1  0
  7 15  2  0
  3  5  1  0
  8  9  2  0
  9 10  1  0
 10 13  2  0
 13 12  1  0
 12 11  2  0
 11  8  1  0
M  END

$$$$
