No_352-gen_results/8p0m/2024-11-26-14-13-15/
     RDKit          3D

 15 15  0  0  0  0  0  0  0  0999 V2000
  -28.0162   -0.8135   28.8779 C   0  0  0  0  0  0  0  0  0  0  0  0
  -27.0636   -0.1190   28.6079 C   0  0  0  0  0  0  0  0  0  0  0  0
  -25.7923   -0.4302   29.0761 C   0  0  0  0  0  0  0  0  0  0  0  0
  -25.5756   -1.5654   29.9363 C   0  0  0  0  0  0  0  0  0  0  0  0
  -26.7354   -2.3004   30.2173 C   0  0  0  0  0  0  0  0  0  0  0  0
  -27.9184   -1.9537   29.7629 C   0  0  0  0  0  0  0  0  0  0  0  0
  -27.1057    1.1023   27.7593 C   0  0  0  0  0  0  0  0  0  0  0  0
  -26.6596    2.2312   27.9242 Cl  0  0  0  0  0  0  0  0  0  0  0  0
  -27.7884    0.7181   26.5678 F   0  0  0  0  0  0  0  0  0  0  0  0
  -28.9684   -2.7225   30.1402 O   0  0  0  0  0  0  0  0  0  0  0  0
  -30.1383   -2.2004   30.5041 C   0  0  0  0  0  0  0  0  0  0  0  0
  -31.2072   -2.8735   30.0143 C   0  0  0  0  0  0  0  0  0  0  0  0
  -32.1612   -2.8604   30.4767 O   0  0  0  0  0  0  0  0  0  0  0  0
  -30.9789   -3.8737   29.1947 O   0  0  0  0  0  0  0  0  0  0  0  0
  -30.2050   -1.1116   31.0782 O   0  0  0  0  0  0  0  0  0  0  0  0
  2  7  1  0
  7  8  1  0
  7  9  1  0
  6 10  1  0
 10 11  1  0
 11 12  1  0
 12 13  2  0
 12 14  1  0
 11 15  2  0
  1  2  2  0
  2  3  1  0
  3  4  2  0
  4  5  1  0
  5  6  2  0
  6  1  1  0
M  END

$$$$
