No_3803-gen_results/8p0m/2024-11-26-14-13-15/
     RDKit          3D

 30 31  0  0  0  0  0  0  0  0999 V2000
  -28.1229   -1.3353   28.4874 O   0  0  0  0  0  0  0  0  0  0  0  0
  -28.5208   -0.4363   29.0779 C   0  0  0  0  0  0  0  0  0  0  0  0
  -29.6977    0.0507   28.9764 C   0  0  0  0  0  0  0  0  0  0  0  0
  -27.5405    0.1756   30.0054 N   0  0  0  0  0  0  0  0  0  0  0  0
  -26.2376   -0.0526   30.0396 C   0  0  0  0  0  0  0  0  0  0  0  0
  -25.5911   -0.7002   30.5795 C   0  0  0  0  0  0  0  0  0  0  0  0
  -24.0651   -0.9531   30.4952 C   0  0  0  0  0  0  0  0  0  0  0  0
  -23.4349   -0.2308   29.4724 C   0  0  0  0  0  0  0  0  0  0  0  0
  -24.2772    0.5436   28.6038 C   0  0  0  0  0  0  0  0  0  0  0  0
  -25.6322    0.6776   28.8224 C   0  0  0  0  0  0  0  0  0  0  0  0
  -30.6945   -0.4585   29.5328 N   0  0  0  0  0  0  0  0  0  0  0  0
  -30.6342   -1.2886   30.3769 C   0  0  0  0  0  0  0  0  0  0  0  0
  -29.8399   -1.4460   31.2350 C   0  0  0  0  0  0  0  0  0  0  0  0
  -29.5407   -1.9827   32.1029 C   0  0  0  0  0  0  0  0  0  0  0  0
  -28.3310   -1.9067   33.0078 C   0  0  0  0  0  0  0  0  0  0  0  0
  -27.6241   -0.7133   32.8121 C   0  0  0  0  0  0  0  0  0  0  0  0
  -28.0675    0.3824   33.3023 C   0  0  0  0  0  0  0  0  0  0  0  0
  -27.3292    1.6578   33.1497 C   0  0  0  0  0  0  0  0  0  0  0  0
  -27.8777    2.9508   33.2601 C   0  0  0  0  0  0  0  0  0  0  0  0
  -27.2058    4.0941   32.9486 C   0  0  0  0  0  0  0  0  0  0  0  0
  -25.8613    4.0208   32.4559 C   0  0  0  0  0  0  0  0  0  0  0  0
  -25.2891    2.7546   32.3009 C   0  0  0  0  0  0  0  0  0  0  0  0
  -26.0124    1.6220   32.6241 C   0  0  0  0  0  0  0  0  0  0  0  0
  -30.4190   -3.1733   32.6541 C   0  0  0  0  0  0  0  0  0  0  0  0
  -23.5798    1.2760   27.5175 C   0  0  0  0  0  0  0  0  0  0  0  0
  -22.2745    1.7282   27.5751 C   0  0  0  0  0  0  0  0  0  0  0  0
  -24.2777    1.5813   26.3227 C   0  0  0  0  0  0  0  0  0  0  0  0
  -29.7970    1.2077   27.9509 C   0  0  0  0  0  0  0  0  0  0  0  0
  -30.2887    0.9026   26.9742 F   0  0  0  0  0  0  0  0  0  0  0  0
  -28.5423    1.7208   27.7934 F   0  0  0  0  0  0  0  0  0  0  0  0
  1  2  2  0
  2  3  1  0
  2  4  1  0
  4  5  1  0
  3 11  1  0
 11 12  1  0
 12 13  2  3
 13 14  1  0
 14 15  2  3
 15 16  1  0
 16 17  2  3
 17 18  1  0
 14 24  1  0
  9 25  1  0
 25 26  1  0
 25 27  1  0
  3 28  1  0
 28 29  1  0
 28 30  1  0
 18 19  2  0
 19 20  1  0
 20 21  2  0
 21 22  1  0
 22 23  2  0
 23 18  1  0
  5  6  2  0
  6  7  1  0
  7  8  2  0
  8  9  1  0
  9 10  2  0
 10  5  1  0
M  END

$$$$
