No_3738-gen_results/8p0m/2024-11-26-14-13-15/
     RDKit          3D

 10 10  0  0  0  0  0  0  0  0999 V2000
  -28.1493   -0.8198   28.9079 Cl  0  0  0  0  0  0  0  0  0  0  0  0
  -27.8339    0.4961   29.0598 C   0  0  0  0  0  0  0  0  0  0  0  0
  -27.8833    1.0376   30.1944 F   0  0  0  0  0  0  0  0  0  0  0  0
  -26.3797    0.7729   28.5385 C   0  0  0  0  0  0  0  0  0  0  0  0
  -28.6112    1.2493   28.2241 F   0  0  0  0  0  0  0  0  0  0  0  0
  -25.8804    2.0485   28.6372 C   0  0  0  0  0  0  0  0  0  0  0  0
  -24.6688    2.3530   28.0109 C   0  0  0  0  0  0  0  0  0  0  0  0
  -23.8269    1.3376   27.5457 C   0  0  0  0  0  0  0  0  0  0  0  0
  -24.2928    0.0656   27.6341 C   0  0  0  0  0  0  0  0  0  0  0  0
  -25.5526   -0.2201   28.0605 C   0  0  0  0  0  0  0  0  0  0  0  0
  1  2  1  0
  2  3  1  0
  2  4  1  0
  2  5  1  0
  4  6  2  0
  6  7  1  0
  7  8  2  0
  8  9  1  0
  9 10  2  0
 10  4  1  0
M  END

$$$$
