No_3615-gen_results/8p0m/2024-11-26-14-13-15/
     RDKit          3D

 26 28  0  0  0  0  0  0  0  0999 V2000
  -28.1229   -1.3353   28.4874 O   0  0  0  0  0  0  0  0  0  0  0  0
  -27.4806   -0.4044   28.7094 C   0  0  0  0  0  0  0  0  0  0  0  0
  -26.3804   -0.0867   27.9394 C   0  0  0  0  0  0  0  0  0  0  0  0
  -27.8993    0.6459   29.6321 N   0  0  0  0  0  0  0  0  0  0  0  0
  -25.1243   -0.5319   28.3714 C   0  0  0  0  0  0  0  0  0  0  0  0
  -24.8082   -1.5509   29.1873 C   0  0  0  0  0  0  0  0  0  0  0  0
  -23.5414   -2.0104   29.4946 C   0  0  0  0  0  0  0  0  0  0  0  0
  -22.5562   -1.1672   29.0444 C   0  0  0  0  0  0  0  0  0  0  0  0
  -22.6688   -0.0081   28.3035 C   0  0  0  0  0  0  0  0  0  0  0  0
  -23.9990    0.3055   27.9511 C   0  0  0  0  0  0  0  0  0  0  0  0
  -27.2738    1.9078   29.8365 C   0  0  0  0  0  0  0  0  0  0  0  0
  -27.5026    2.7375   30.4134 C   0  0  0  0  0  0  0  0  0  0  0  0
  -28.6020    2.7523   31.3465 C   0  0  0  0  0  0  0  0  0  0  0  0
  -29.3352    1.5285   31.3075 C   0  0  0  0  0  0  0  0  0  0  0  0
  -28.9708    0.4954   30.5010 C   0  0  0  0  0  0  0  0  0  0  0  0
  -26.5635    0.4875   26.6751 C   0  0  0  0  0  0  0  0  0  0  0  0
  -27.1724    0.4190   25.8359 C   0  0  0  0  0  0  0  0  0  0  0  0
  -28.4179   -0.4321   25.8985 C   0  0  0  0  0  0  0  0  0  0  0  0
  -29.3301   -0.3952   24.7413 C   0  0  0  0  0  0  0  0  0  0  0  0
  -28.8752    0.1504   23.6331 C   0  0  0  0  0  0  0  0  0  0  0  0
  -27.7575    0.9135   23.5086 C   0  0  0  0  0  0  0  0  0  0  0  0
  -26.9010    1.0745   24.6009 C   0  0  0  0  0  0  0  0  0  0  0  0
  -30.5185   -1.1753   24.7781 C   0  0  0  0  0  0  0  0  0  0  0  0
  -31.3467   -0.5932   25.6978 F   0  0  0  0  0  0  0  0  0  0  0  0
  -30.3816   -2.4364   25.1215 F   0  0  0  0  0  0  0  0  0  0  0  0
  -31.1953   -1.0674   23.6154 F   0  0  0  0  0  0  0  0  0  0  0  0
  1  2  2  0
  2  3  1  0
  2  4  1  0
  4 11  1  0
 12 13  1  0
  4 15  1  0
 14 15  1  0
  3 16  1  0
 19 23  1  0
 23 24  1  0
 23 25  1  0
 23 26  1  0
 16 17  1  0
  3  5  1  0
 11 12  1  0
 13 14  1  0
 17 18  2  0
 18 19  1  0
 19 20  2  0
 20 21  1  0
 21 22  2  0
 22 17  1  0
  5  6  2  0
  6  7  1  0
  7  8  2  0
  8  9  1  0
  9 10  2  0
 10  5  1  0
M  END

$$$$
