No_3494-gen_results/8p0m/2024-11-26-14-13-15/
     RDKit          3D

  8  7  0  0  0  0  0  0  0  0999 V2000
  -28.0727   -1.2542   28.5316 F   0  0  0  0  0  0  0  0  0  0  0  0
  -27.3591   -0.3792   28.7224 C   0  0  0  0  0  0  0  0  0  0  0  0
  -26.3180   -0.6608   29.1159 F   0  0  0  0  0  0  0  0  0  0  0  0
  -27.2545    0.4794   27.4896 C   0  0  0  0  0  0  0  0  0  0  0  0
  -28.0809    0.5777   29.4788 F   0  0  0  0  0  0  0  0  0  0  0  0
  -27.4089    1.7598   27.4875 C   0  0  0  0  0  0  0  0  0  0  0  0
  -26.6147   -0.1868   26.4138 O   0  0  0  0  0  0  0  0  0  0  0  0
  -28.2632    2.4184   28.2161 C   0  0  0  0  0  0  0  0  0  0  0  0
  1  2  1  0
  2  3  1  0
  2  4  1  0
  2  5  1  0
  4  6  1  0
  4  7  1  0
  6  8  2  0
M  END

$$$$
