No_3222-gen_results/8p0m/2024-11-26-14-13-15/
     RDKit          3D

 28 31  0  0  0  0  0  0  0  0999 V2000
  -28.0162   -0.8135   28.8779 C   0  0  0  0  0  0  0  0  0  0  0  0
  -28.4690   -0.7850   29.8287 C   0  0  0  0  0  0  0  0  0  0  0  0
  -26.5455   -0.8762   28.8500 C   0  0  0  0  0  0  0  0  0  0  0  0
  -25.8041   -1.0324   30.0571 C   0  0  0  0  0  0  0  0  0  0  0  0
  -27.9437   -0.9869   31.2075 C   0  0  0  0  0  0  0  0  0  0  0  0
  -24.4008   -1.0969   30.0965 C   0  0  0  0  0  0  0  0  0  0  0  0
  -26.5612   -1.0746   31.2270 C   0  0  0  0  0  0  0  0  0  0  0  0
  -23.6345   -0.8924   29.0458 C   0  0  0  0  0  0  0  0  0  0  0  0
  -22.1743   -0.7863   29.1506 C   0  0  0  0  0  0  0  0  0  0  0  0
  -21.6088    0.4081   28.9496 C   0  0  0  0  0  0  0  0  0  0  0  0
  -22.0805    1.3783   28.0013 C   0  0  0  0  0  0  0  0  0  0  0  0
  -23.4998    1.2998   27.7246 C   0  0  0  0  0  0  0  0  0  0  0  0
  -24.0723   -0.9109   27.6371 C   0  0  0  0  0  0  0  0  0  0  0  0
  -24.2460    0.3962   27.2729 C   0  0  0  0  0  0  0  0  0  0  0  0
  -29.9439   -0.7199   29.9031 O   0  0  0  0  0  0  0  0  0  0  0  0
  -30.5568   -0.1489   28.9447 C   0  0  0  0  0  0  0  0  0  0  0  0
  -25.3591    0.5814   26.2721 C   0  0  0  0  0  0  0  0  0  0  0  0
  -25.5125   -0.2771   25.2413 C   0  0  0  0  0  0  0  0  0  0  0  0
  -26.6074   -0.1069   24.3548 C   0  0  0  0  0  0  0  0  0  0  0  0
  -27.6294    0.8613   24.6881 C   0  0  0  0  0  0  0  0  0  0  0  0
  -26.3461    1.5975   26.5179 C   0  0  0  0  0  0  0  0  0  0  0  0
  -27.4384    1.7014   25.7792 C   0  0  0  0  0  0  0  0  0  0  0  0
  -31.9150    0.2880   29.1368 C   0  0  0  0  0  0  0  0  0  0  0  0
  -32.5016    0.1737   30.0645 C   0  0  0  0  0  0  0  0  0  0  0  0
  -33.9215    0.6237   30.2901 C   0  0  0  0  0  0  0  0  0  0  0  0
  -34.4784    1.2172   29.1560 C   0  0  0  0  0  0  0  0  0  0  0  0
  -33.8314    1.3718   28.0051 C   0  0  0  0  0  0  0  0  0  0  0  0
  -32.4793    0.9487   27.9096 C   0  0  0  0  0  0  0  0  0  0  0  0
  4  6  1  0
  6  8  2  3
  8  9  1  0
  9 10  1  0
 10 11  2  0
 11 12  1  0
  8 13  1  0
 12 14  1  0
 13 14  1  0
  2 15  1  0
 15 16  1  0
 14 17  1  0
 16 23  1  0
 17 18  2  0
 18 19  1  0
 19 20  2  0
 20 22  1  0
 22 21  2  0
 21 17  1  0
 23 24  2  0
 24 25  1  0
 25 26  2  0
 26 27  1  0
 27 28  2  0
 28 23  1  0
  1  2  2  0
  2  5  1  0
  5  7  2  0
  7  4  1  0
  4  3  2  0
  3  1  1  0
M  END

$$$$
