No_3985-gen_results/8p0m/2024-11-26-14-13-15/
     RDKit          3D

 24 26  0  0  0  0  0  0  0  0999 V2000
  -28.0162   -0.8135   28.8779 C   0  0  0  0  0  0  0  0  0  0  0  0
  -28.4690   -0.7850   29.8287 C   0  0  0  0  0  0  0  0  0  0  0  0
  -27.1356    0.2359   28.5352 C   0  0  0  0  0  0  0  0  0  0  0  0
  -26.8745    1.2825   29.3982 C   0  0  0  0  0  0  0  0  0  0  0  0
  -27.5070    1.2380   30.6295 C   0  0  0  0  0  0  0  0  0  0  0  0
  -29.4093   -1.9436   30.2887 C   0  0  0  0  0  0  0  0  0  0  0  0
  -28.3221    0.1318   30.9672 C   0  0  0  0  0  0  0  0  0  0  0  0
  -30.3326   -1.8108   29.8340 O   0  0  0  0  0  0  0  0  0  0  0  0
  -28.9558   -2.8994   31.0545 O   0  0  0  0  0  0  0  0  0  0  0  0
  -26.3947    0.3130   27.2081 C   0  0  0  0  0  0  0  0  0  0  0  0
  -26.3157    1.0871   26.4929 C   0  0  0  0  0  0  0  0  0  0  0  0
  -26.7755    2.3617   26.7184 C   0  0  0  0  0  0  0  0  0  0  0  0
  -26.6563    2.9770   27.8555 C   0  0  0  0  0  0  0  0  0  0  0  0
  -26.6344    2.6879   29.0103 C   0  0  0  0  0  0  0  0  0  0  0  0
  -25.9702    0.7452   25.0463 C   0  0  0  0  0  0  0  0  0  0  0  0
  -26.2586    4.7812   27.6052 Cl  0  0  0  0  0  0  0  0  0  0  0  0
  -24.5685    0.4086   24.8807 C   0  0  0  0  0  0  0  0  0  0  0  0
  -26.9877   -0.2189   24.5016 C   0  0  0  0  0  0  0  0  0  0  0  0
  -26.2858    1.9550   24.3293 O   0  0  0  0  0  0  0  0  0  0  0  0
  -27.4596    1.9105   23.6422 C   0  0  0  0  0  0  0  0  0  0  0  0
  -27.8864    0.5495   23.7700 C   0  0  0  0  0  0  0  0  0  0  0  0
  -28.8489    0.0031   32.3185 C   0  0  0  0  0  0  0  0  0  0  0  0
  -28.6549    0.9154   33.0520 C   0  0  0  0  0  0  0  0  0  0  0  0
  -27.8228    2.0602   32.7883 C   0  0  0  0  0  0  0  0  0  0  0  0
  2  6  1  0
  6  8  2  0
  6  9  1  0
  3 10  1  0
 10 11  1  0
 11 12  2  0
 12 13  1  0
  4 14  1  0
 13 14  2  0
 11 15  1  0
 13 16  1  0
 15 17  1  0
 15 18  1  0
 15 19  1  0
 19 20  1  0
 18 21  1  0
 20 21  2  0
  7 22  1  0
 22 23  2  3
 23 24  1  0
  1  2  2  0
  2  7  1  0
  7  5  2  0
  5  4  1  0
  4  3  2  0
  3  1  1  0
M  END

$$$$
