No_3735-gen_results/8p0m/2024-11-26-14-13-15/
     RDKit          3D

 25 28  0  0  0  0  0  0  0  0999 V2000
  -28.0162   -0.8135   28.8779 C   0  0  0  0  0  0  0  0  0  0  0  0
  -27.0636   -0.1189   28.6079 C   0  0  0  0  0  0  0  0  0  0  0  0
  -25.7647   -0.3897   29.0360 C   0  0  0  0  0  0  0  0  0  0  0  0
  -24.5516    0.4058   28.7646 C   0  0  0  0  0  0  0  0  0  0  0  0
  -24.6957    1.4480   27.7988 C   0  0  0  0  0  0  0  0  0  0  0  0
  -25.9755    1.7250   27.3077 C   0  0  0  0  0  0  0  0  0  0  0  0
  -27.0718    1.0134   27.6535 C   0  0  0  0  0  0  0  0  0  0  0  0
  -28.6178   -0.4695   30.2207 C   0  0  0  0  0  0  0  0  0  0  0  0
  -29.7296   -1.2768   30.7206 C   0  0  0  0  0  0  0  0  0  0  0  0
  -23.4863    2.1902   27.4840 C   0  0  0  0  0  0  0  0  0  0  0  0
  -22.2975    1.7198   27.8271 N   0  0  0  0  0  0  0  0  0  0  0  0
  -23.5704    3.3234   26.9300 O   0  0  0  0  0  0  0  0  0  0  0  0
  -30.1124   -2.1753   29.9425 C   0  0  0  0  0  0  0  0  0  0  0  0
  -31.2684   -2.9366   30.4978 C   0  0  0  0  0  0  0  0  0  0  0  0
  -31.7843   -2.6711   31.6209 C   0  0  0  0  0  0  0  0  0  0  0  0
  -31.3228   -1.6871   32.4612 C   0  0  0  0  0  0  0  0  0  0  0  0
  -30.2549   -0.9197   32.0116 C   0  0  0  0  0  0  0  0  0  0  0  0
  -28.8995    1.0436   30.4827 C   0  0  0  0  0  0  0  0  0  0  0  0
  -27.3965   -0.6954   31.3553 C   0  0  0  0  0  0  0  0  0  0  0  0
  -29.5379    1.4894   31.3334 C   0  0  0  0  0  0  0  0  0  0  0  0
  -30.4850    0.5166   32.1411 C   0  0  0  0  0  0  0  0  0  0  0  0
  -21.9755    0.6411   28.5760 C   0  0  0  0  0  0  0  0  0  0  0  0
  -23.2332   -0.0980   29.1446 C   0  0  0  0  0  0  0  0  0  0  0  0
  -28.3644    1.4335   27.0604 C   0  0  0  0  0  0  0  0  0  0  0  0
  -28.5114    2.1814   25.7663 I   0  0  0  0  0  0  0  0  0  0  0  0
  1  8  1  0
  8  9  1  0
  5 10  1  0
 10 11  1  0
 10 12  2  0
  8 18  1  0
  8 19  1  0
 17 21  1  0
 20 21  1  0
 11 22  1  0
  4 23  1  0
  7 24  1  0
 24 25  1  0
  1  2  1  0
 20 18  1  0
 23 22  1  0
  2  3  2  0
  3  4  1  0
  4  5  2  0
  5  6  1  0
  6  7  2  0
  7  2  1  0
  9 13  2  0
 13 14  1  0
 14 15  2  0
 15 16  1  0
 16 17  2  0
 17  9  1  0
M  END

$$$$
