No_3127-gen_results/8p0m/2024-11-26-14-13-15/
     RDKit          3D

 20 22  0  0  0  0  0  0  0  0999 V2000
  -28.0162   -0.8135   28.8779 C   0  0  0  0  0  0  0  0  0  0  0  0
  -27.0636   -0.1189   28.6079 C   0  0  0  0  0  0  0  0  0  0  0  0
  -25.8176   -0.3427   29.0488 N   0  0  0  0  0  0  0  0  0  0  0  0
  -25.6067   -1.4414   29.8929 C   0  0  0  0  0  0  0  0  0  0  0  0
  -26.6760   -2.2193   30.2363 C   0  0  0  0  0  0  0  0  0  0  0  0
  -27.7633   -1.8664   29.7514 C   0  0  0  0  0  0  0  0  0  0  0  0
  -27.1192    1.0382   27.7990 N   0  0  0  0  0  0  0  0  0  0  0  0
  -26.0960    1.8510   27.6676 C   0  0  0  0  0  0  0  0  0  0  0  0
  -25.7914    2.9074   27.6822 C   0  0  0  0  0  0  0  0  0  0  0  0
  -24.7837    3.6595   27.5926 C   0  0  0  0  0  0  0  0  0  0  0  0
  -23.5456    2.9443   27.3249 C   0  0  0  0  0  0  0  0  0  0  0  0
  -24.7195    1.1506   27.3335 C   0  0  0  0  0  0  0  0  0  0  0  0
  -23.6157    1.7536   27.1219 C   0  0  0  0  0  0  0  0  0  0  0  0
  -28.4069    1.7277   27.9463 C   0  0  0  0  0  0  0  0  0  0  0  0
  -28.9352    2.1195   26.6754 C   0  0  0  0  0  0  0  0  0  0  0  0
  -30.1691    2.7560   26.6971 C   0  0  0  0  0  0  0  0  0  0  0  0
  -30.8542    3.0239   27.8915 C   0  0  0  0  0  0  0  0  0  0  0  0
  -30.2781    2.6157   29.0718 C   0  0  0  0  0  0  0  0  0  0  0  0
  -29.0486    1.9865   29.1404 C   0  0  0  0  0  0  0  0  0  0  0  0
  -24.3697   -1.7056   30.2347 F   0  0  0  0  0  0  0  0  0  0  0  0
  2  7  1  0
  7  8  1  0
  7 14  1  0
  4 20  1  0
  1  2  2  0
  2  3  1  0
  3  4  2  0
  4  5  1  0
  5  6  2  0
  6  1  1  0
 14 15  2  0
 15 16  1  0
 16 17  2  0
 17 18  1  0
 18 19  2  0
 19 14  1  0
  8  9  2  0
  9 10  1  0
 10 11  2  0
 11 13  1  0
 13 12  2  0
 12  8  1  0
M  END

$$$$
