No_3037-gen_results/8p0m/2024-11-26-14-13-15/
     RDKit          3D

 34 36  0  0  0  0  0  0  0  0999 V2000
  -28.0162   -0.8135   28.8779 C   0  0  0  0  0  0  0  0  0  0  0  0
  -28.4690   -0.7850   29.8287 C   0  0  0  0  0  0  0  0  0  0  0  0
  -27.0871    0.2903   28.6377 C   0  0  0  0  0  0  0  0  0  0  0  0
  -26.8317    1.2487   29.5869 C   0  0  0  0  0  0  0  0  0  0  0  0
  -28.3914    0.0801   31.0065 C   0  0  0  0  0  0  0  0  0  0  0  0
  -27.4940    1.1521   30.7841 C   0  0  0  0  0  0  0  0  0  0  0  0
  -26.1256    0.4052   27.0167 Br  0  0  0  0  0  0  0  0  0  0  0  0
  -25.9021    2.3595   29.3644 C   0  0  0  0  0  0  0  0  0  0  0  0
  -26.2487    3.3991   29.5984 O   0  0  0  0  0  0  0  0  0  0  0  0
  -24.6591    2.0261   28.9748 O   0  0  0  0  0  0  0  0  0  0  0  0
  -23.7792    1.4417   29.8377 C   0  0  0  0  0  0  0  0  0  0  0  0
  -22.6344    0.7609   29.2066 C   0  0  0  0  0  0  0  0  0  0  0  0
  -22.4025   -0.5805   29.6917 C   0  0  0  0  0  0  0  0  0  0  0  0
  -23.3747   -1.0178   30.4918 C   0  0  0  0  0  0  0  0  0  0  0  0
  -24.0204   -0.2107   31.3751 C   0  0  0  0  0  0  0  0  0  0  0  0
  -23.9271    1.2878   31.1561 C   0  0  0  0  0  0  0  0  0  0  0  0
  -22.0870    1.2561   27.9843 C   0  0  0  0  0  0  0  0  0  0  0  0
  -24.5834   -0.6300   32.6937 C   0  0  0  0  0  0  0  0  0  0  0  0
  -29.4174   -1.8817   30.1286 O   0  0  0  0  0  0  0  0  0  0  0  0
  -29.0263   -3.1160   30.5866 C   0  0  0  0  0  0  0  0  0  0  0  0
  -27.8261   -3.3691   30.9300 C   0  0  0  0  0  0  0  0  0  0  0  0
  -30.0892   -4.0781   30.5229 C   0  0  0  0  0  0  0  0  0  0  0  0
  -27.4608   -4.7193   30.9849 O   0  0  0  0  0  0  0  0  0  0  0  0
  -31.0791   -3.9925   29.6259 C   0  0  0  0  0  0  0  0  0  0  0  0
  -31.8982   -5.1658   29.3961 C   0  0  0  0  0  0  0  0  0  0  0  0
  -31.7250   -6.2922   30.2387 C   0  0  0  0  0  0  0  0  0  0  0  0
  -30.7192   -6.3538   31.1671 C   0  0  0  0  0  0  0  0  0  0  0  0
  -29.8367   -5.2760   31.3374 C   0  0  0  0  0  0  0  0  0  0  0  0
  -30.5527   -7.5605   31.9974 C   0  0  0  0  0  0  0  0  0  0  0  0
  -30.5970   -8.7118   31.5076 O   0  0  0  0  0  0  0  0  0  0  0  0
  -30.1190   -7.4167   33.2201 O   0  0  0  0  0  0  0  0  0  0  0  0
  -32.9413   -5.0743   28.4335 C   0  0  0  0  0  0  0  0  0  0  0  0
  -32.9228   -5.0351   27.4244 C   0  0  0  0  0  0  0  0  0  0  0  0
  -33.9884   -4.9066   26.3794 C   0  0  0  0  0  0  0  0  0  0  0  0
  3  7  1  0
  4  8  1  0
  8  9  2  0
  8 10  1  0
 10 11  1  0
 12 17  1  0
 15 18  1  0
  2 19  1  0
 19 20  1  0
 20 21  1  0
 20 22  1  0
 21 23  2  0
 27 29  1  0
 29 30  2  0
 29 31  1  0
 25 32  1  0
 32 33  2  3
 33 34  1  0
 11 12  2  0
 12 13  1  0
 13 14  2  0
 14 15  1  0
 15 16  2  0
 16 11  1  0
 22 24  2  0
 24 25  1  0
 25 26  2  0
 26 27  1  0
 27 28  2  0
 28 22  1  0
  1  2  2  0
  2  5  1  0
  5  6  2  0
  6  4  1  0
  4  3  2  0
  3  1  1  0
M  END

$$$$
