No_3484-gen_results/8p0m/2024-11-26-14-13-15/
     RDKit          3D

 35 37  0  0  0  0  0  0  0  0999 V2000
  -28.0162   -0.8135   28.8779 C   0  0  0  0  0  0  0  0  0  0  0  0
  -27.0636   -0.1190   28.6079 C   0  0  0  0  0  0  0  0  0  0  0  0
  -27.0010    0.6913   27.4910 C   0  0  0  0  0  0  0  0  0  0  0  0
  -25.8548    1.4825   27.0830 C   0  0  0  0  0  0  0  0  0  0  0  0
  -24.9008    1.3894   27.5922 C   0  0  0  0  0  0  0  0  0  0  0  0
  -24.6783    0.5764   28.8299 C   0  0  0  0  0  0  0  0  0  0  0  0
  -25.7704   -0.2051   29.2800 C   0  0  0  0  0  0  0  0  0  0  0  0
  -28.6429   -0.4461   30.2385 C   0  0  0  0  0  0  0  0  0  0  0  0
  -28.5883    0.3976   30.8156 O   0  0  0  0  0  0  0  0  0  0  0  0
  -29.0739   -1.7063   30.8824 N   0  0  0  0  0  0  0  0  0  0  0  0
  -23.5769    2.1924   27.2913 C   0  0  0  0  0  0  0  0  0  0  0  0
  -23.4926    2.6464   26.0289 N   0  0  0  0  0  0  0  0  0  0  0  0
  -22.5248    2.2176   27.9736 O   0  0  0  0  0  0  0  0  0  0  0  0
  -29.7048   -1.6267   32.2454 C   0  0  0  0  0  0  0  0  0  0  0  0
  -29.0050   -3.0061   30.3823 C   0  0  0  0  0  0  0  0  0  0  0  0
  -29.6966   -3.9193   30.7685 C   0  0  0  0  0  0  0  0  0  0  0  0
  -30.0145   -4.1120   32.0953 C   0  0  0  0  0  0  0  0  0  0  0  0
  -30.4269   -2.7872   32.7340 C   0  0  0  0  0  0  0  0  0  0  0  0
  -28.2454    0.7767   26.6438 C   0  0  0  0  0  0  0  0  0  0  0  0
  -29.2439    1.1943   27.0141 O   0  0  0  0  0  0  0  0  0  0  0  0
  -28.0605    0.6673   25.3162 N   0  0  0  0  0  0  0  0  0  0  0  0
  -26.9410    0.3129   24.6445 C   0  0  0  0  0  0  0  0  0  0  0  0
  -29.2315    0.6531   24.4524 C   0  0  0  0  0  0  0  0  0  0  0  0
  -29.9072   -0.4821   24.2230 C   0  0  0  0  0  0  0  0  0  0  0  0
  -30.8606   -0.8332   25.0849 C   0  0  0  0  0  0  0  0  0  0  0  0
  -31.5578   -2.1315   24.9130 C   0  0  0  0  0  0  0  0  0  0  0  0
  -32.4396   -2.4608   25.8346 N   0  0  0  0  0  0  0  0  0  0  0  0
  -32.6033   -1.7216   26.9212 C   0  0  0  0  0  0  0  0  0  0  0  0
  -32.0168   -0.5979   27.1380 N   0  0  0  0  0  0  0  0  0  0  0  0
  -31.1711   -0.1727   26.2767 C   0  0  0  0  0  0  0  0  0  0  0  0
  -32.3108    0.1461   28.4158 C   0  0  0  0  0  0  0  0  0  0  0  0
  -32.5717    1.4805   28.3758 C   0  0  0  0  0  0  0  0  0  0  0  0
  -33.4826    1.9876   27.6729 C   0  0  0  0  0  0  0  0  0  0  0  0
  -33.6596    3.0971   27.5244 C   0  0  0  0  0  0  0  0  0  0  0  0
  -32.8682    4.1495   28.1982 C   0  0  0  0  0  0  0  0  0  0  0  0
  1  2  1  0
  1  8  1  0
  8  9  2  0
  8 10  1  0
  5 11  1  0
 11 12  2  0
 11 13  1  0
 10 14  1  0
 10 15  1  0
 16 17  1  0
  3 19  1  0
 19 20  2  0
 19 21  1  0
 21 22  1  0
 21 23  1  0
 23 24  1  0
 25 26  1  0
 26 27  1  0
 28 29  1  0
 25 30  1  0
 29 30  1  0
 29 31  1  0
 31 32  1  0
 32 33  2  3
 33 34  1  0
 34 35  2  0
 24 25  1  0
 14 18  1  0
 18 17  1  0
 16 15  1  0
 28 27  1  0
  2  3  1  0
  3  4  2  0
  4  5  1  0
  5  6  2  0
  6  7  1  0
  7  2  2  0
M  END

$$$$
