No_3330-gen_results/8p0m/2024-11-26-14-13-15/
     RDKit          3D

 17 17  0  0  0  0  0  0  0  0999 V2000
  -28.0162   -0.8135   28.8779 C   0  0  0  0  0  0  0  0  0  0  0  0
  -28.4690   -0.7850   29.8287 C   0  0  0  0  0  0  0  0  0  0  0  0
  -26.5455   -0.8762   28.8500 C   0  0  0  0  0  0  0  0  0  0  0  0
  -25.8041   -1.0324   30.0571 C   0  0  0  0  0  0  0  0  0  0  0  0
  -26.5373   -1.0386   31.2171 C   0  0  0  0  0  0  0  0  0  0  0  0
  -27.8843   -0.9532   31.1862 C   0  0  0  0  0  0  0  0  0  0  0  0
  -24.3655   -1.1134   30.0483 C   0  0  0  0  0  0  0  0  0  0  0  0
  -23.8409    0.0468   30.2589 F   0  0  0  0  0  0  0  0  0  0  0  0
  -23.8967   -1.8871   31.0536 F   0  0  0  0  0  0  0  0  0  0  0  0
  -23.8227   -1.5898   28.9219 F   0  0  0  0  0  0  0  0  0  0  0  0
  -25.5023   -2.0679   29.7766 F   0  0  0  0  0  0  0  0  0  0  0  0
  -26.0030    0.2452   28.3362 O   0  0  0  0  0  0  0  0  0  0  0  0
  -25.7908    0.4362   26.9291 C   0  0  0  0  0  0  0  0  0  0  0  0
  -26.1036    1.7338   26.4952 C   0  0  0  0  0  0  0  0  0  0  0  0
  -25.1941    2.5602   26.9900 C   0  0  0  0  0  0  0  0  0  0  0  0
  -25.2006    2.9502   28.3194 C   0  0  0  0  0  0  0  0  0  0  0  0
  -25.1637    3.9514   28.7352 O   0  0  0  0  0  0  0  0  0  0  0  0
  1  2  2  0
  1  3  1  0
  3  4  1  0
  4  5  1  0
  2  6  1  0
  5  6  2  0
  4  7  1  0
  7  8  1  0
  7  9  1  0
  7 10  1  0
  4 11  1  0
  3 12  1  0
 12 13  1  0
 13 14  1  0
 14 15  1  0
 15 16  1  0
 16 17  2  0
M  END

$$$$
