No_3748-gen_results/8p0m/2024-11-26-14-13-15/
     RDKit          3D

 16 17  0  0  0  0  0  0  0  0999 V2000
  -28.0162   -0.8135   28.8779 C   0  0  0  0  0  0  0  0  0  0  0  0
  -27.0636   -0.1189   28.6079 C   0  0  0  0  0  0  0  0  0  0  0  0
  -25.7647   -0.3897   29.0360 C   0  0  0  0  0  0  0  0  0  0  0  0
  -25.5296   -1.5302   29.9014 C   0  0  0  0  0  0  0  0  0  0  0  0
  -26.6577   -2.2915   30.2035 C   0  0  0  0  0  0  0  0  0  0  0  0
  -27.8548   -1.9555   29.7630 C   0  0  0  0  0  0  0  0  0  0  0  0
  -24.5349    0.4128   28.7431 C   0  0  0  0  0  0  0  0  0  0  0  0
  -24.4835    1.2431   27.7398 C   0  0  0  0  0  0  0  0  0  0  0  0
  -23.3130    1.8552   27.3514 C   0  0  0  0  0  0  0  0  0  0  0  0
  -22.0780    1.6190   27.9587 C   0  0  0  0  0  0  0  0  0  0  0  0
  -23.4513    0.5022   29.6931 C   0  0  0  0  0  0  0  0  0  0  0  0
  -22.1363    0.9272   29.2331 C   0  0  0  0  0  0  0  0  0  0  0  0
  -28.9210   -2.7334   30.1224 O   0  0  0  0  0  0  0  0  0  0  0  0
  -30.0296   -2.2379   30.5980 C   0  0  0  0  0  0  0  0  0  0  0  0
  -30.2155   -1.2777   31.0174 C   0  0  0  0  0  0  0  0  0  0  0  0
  -30.6189   -0.2890   31.1627 N   0  0  0  0  0  0  0  0  0  0  0  0
  3  7  1  0
  6 13  1  0
 13 14  1  0
 14 15  1  0
 15 16  3  0
  7  8  2  0
  8  9  1  0
  9 10  2  0
 10 12  1  0
 12 11  2  0
 11  7  1  0
  1  2  2  0
  2  3  1  0
  3  4  2  0
  4  5  1  0
  5  6  2  0
  6  1  1  0
M  END

$$$$
