No_3591-gen_results/8p0m/2024-11-26-14-13-15/
     RDKit          3D

 22 24  0  0  0  0  0  0  0  0999 V2000
  -28.0162   -0.8135   28.8779 C   0  0  0  0  0  0  0  0  0  0  0  0
  -27.0636   -0.1189   28.6079 C   0  0  0  0  0  0  0  0  0  0  0  0
  -27.0010    0.6913   27.4910 C   0  0  0  0  0  0  0  0  0  0  0  0
  -28.1373    0.7363   26.6350 C   0  0  0  0  0  0  0  0  0  0  0  0
  -29.2360    0.0765   27.0690 C   0  0  0  0  0  0  0  0  0  0  0  0
  -29.2177   -0.6429   28.1747 C   0  0  0  0  0  0  0  0  0  0  0  0
  -30.4152    0.1590   26.1819 C   0  0  0  0  0  0  0  0  0  0  0  0
  -31.2774   -0.5117   26.4083 O   0  0  0  0  0  0  0  0  0  0  0  0
  -30.5980    1.1627   25.3770 O   0  0  0  0  0  0  0  0  0  0  0  0
  -25.7057   -0.2081   29.4188 C   0  0  0  0  0  0  0  0  0  0  0  0
  -25.1052    1.0395   29.8303 C   0  0  0  0  0  0  0  0  0  0  0  0
  -23.7367    0.9742   29.9658 C   0  0  0  0  0  0  0  0  0  0  0  0
  -23.0885    0.0905   29.4591 C   0  0  0  0  0  0  0  0  0  0  0  0
  -23.5876   -1.1419   28.9367 C   0  0  0  0  0  0  0  0  0  0  0  0
  -24.7466   -0.9666   28.4782 C   0  0  0  0  0  0  0  0  0  0  0  0
  -25.9675   -1.0774   30.6664 C   0  0  0  0  0  0  0  0  0  0  0  0
  -25.8512    2.0970   30.4748 C   0  0  0  0  0  0  0  0  0  0  0  0
  -26.7714    2.6200   29.9448 C   0  0  0  0  0  0  0  0  0  0  0  0
  -27.4641    3.5606   30.2503 C   0  0  0  0  0  0  0  0  0  0  0  0
  -27.2294    4.1517   31.5113 C   0  0  0  0  0  0  0  0  0  0  0  0
  -26.1801    3.6548   32.2995 C   0  0  0  0  0  0  0  0  0  0  0  0
  -25.4346    2.6771   31.7457 C   0  0  0  0  0  0  0  0  0  0  0  0
  5  7  1  0
  7  8  1  0
  7  9  2  0
  2 10  1  0
 10 11  1  0
 12 13  1  0
 10 15  1  0
 14 15  1  0
 10 16  1  0
 11 17  1  0
 11 12  1  0
 13 14  1  0
 17 18  2  0
 18 19  1  0
 19 20  2  0
 20 21  1  0
 21 22  2  0
 22 17  1  0
  1  2  2  0
  2  3  1  0
  3  4  2  0
  4  5  1  0
  5  6  2  0
  6  1  1  0
M  END

$$$$
