No_3666-gen_results/8p0m/2024-11-26-14-13-15/
     RDKit          3D

 15 16  0  0  0  0  0  0  0  0999 V2000
  -28.0162   -0.8135   28.8779 C   0  0  0  0  0  0  0  0  0  0  0  0
  -27.0636   -0.1190   28.6079 C   0  0  0  0  0  0  0  0  0  0  0  0
  -25.7647   -0.3897   29.0360 C   0  0  0  0  0  0  0  0  0  0  0  0
  -25.5296   -1.5302   29.9014 C   0  0  0  0  0  0  0  0  0  0  0  0
  -26.6888   -2.2893   30.1810 C   0  0  0  0  0  0  0  0  0  0  0  0
  -27.8727   -1.9508   29.7373 C   0  0  0  0  0  0  0  0  0  0  0  0
  -24.5491    0.4100   28.7341 C   0  0  0  0  0  0  0  0  0  0  0  0
  -24.4645    1.1820   27.7527 N   0  0  0  0  0  0  0  0  0  0  0  0
  -23.3426    1.7966   27.4071 C   0  0  0  0  0  0  0  0  0  0  0  0
  -22.2034    1.5776   28.0955 N   0  0  0  0  0  0  0  0  0  0  0  0
  -23.2828    0.2005   29.4313 C   0  0  0  0  0  0  0  0  0  0  0  0
  -22.1443    0.8344   29.0920 C   0  0  0  0  0  0  0  0  0  0  0  0
  -23.3378    2.7000   26.3579 N   0  0  0  0  0  0  0  0  0  0  0  0
  -29.2405   -2.9022   30.1836 Cl  0  0  0  0  0  0  0  0  0  0  0  0
  -27.1562    0.9555   27.7584 F   0  0  0  0  0  0  0  0  0  0  0  0
  3  7  1  0
  9 13  1  0
  6 14  1  0
  2 15  1  0
  7  8  2  0
  8  9  1  0
  9 10  2  0
 10 12  1  0
 12 11  2  0
 11  7  1  0
  1  2  2  0
  2  3  1  0
  3  4  2  0
  4  5  1  0
  5  6  2  0
  6  1  1  0
M  END

$$$$
