No_3342-gen_results/8p0m/2024-11-26-14-13-15/
     RDKit          3D

 10  9  0  0  0  0  0  0  0  0999 V2000
  -28.0162   -0.8135   28.8779 C   0  0  0  0  0  0  0  0  0  0  0  0
  -28.4690   -0.7850   29.8287 C   0  0  0  0  0  0  0  0  0  0  0  0
  -26.9162   -1.5644   28.7368 F   0  0  0  0  0  0  0  0  0  0  0  0
  -28.1645    0.0261   27.7584 C   0  0  0  0  0  0  0  0  0  0  0  0
  -27.1847    0.3116   26.8074 C   0  0  0  0  0  0  0  0  0  0  0  0
  -29.5020   -0.1933   30.0679 O   0  0  0  0  0  0  0  0  0  0  0  0
  -28.0843   -1.6570   30.8707 O   0  0  0  0  0  0  0  0  0  0  0  0
  -27.3870    1.0474   25.6530 C   0  0  0  0  0  0  0  0  0  0  0  0
  -28.5393    1.6174   25.5980 C   0  0  0  0  0  0  0  0  0  0  0  0
  -29.5679    1.4968   26.4657 C   0  0  0  0  0  0  0  0  0  0  0  0
  1  2  1  0
  1  3  1  0
  1  4  1  0
  4  5  2  3
  2  6  1  0
  2  7  2  0
  5  8  1  0
  8  9  2  3
  9 10  1  0
M  END

$$$$
