No_3711-gen_results/8p0m/2024-11-26-14-13-15/
     RDKit          3D

 35 39  0  0  0  0  0  0  0  0999 V2000
  -28.0162   -0.8135   28.8779 C   0  0  0  0  0  0  0  0  0  0  0  0
  -27.0636   -0.1190   28.6079 C   0  0  0  0  0  0  0  0  0  0  0  0
  -25.7923   -0.4302   29.0761 C   0  0  0  0  0  0  0  0  0  0  0  0
  -24.5456    0.3494   28.8225 C   0  0  0  0  0  0  0  0  0  0  0  0
  -23.2409    0.0217   29.3323 C   0  0  0  0  0  0  0  0  0  0  0  0
  -22.1362    0.7695   29.0059 C   0  0  0  0  0  0  0  0  0  0  0  0
  -27.9050   -1.8984   29.8729 C   0  0  0  0  0  0  0  0  0  0  0  0
  -26.6795   -2.3145   30.3184 C   0  0  0  0  0  0  0  0  0  0  0  0
  -25.5203   -1.5564   29.9775 C   0  0  0  0  0  0  0  0  0  0  0  0
  -22.1253    1.7361   28.0244 C   0  0  0  0  0  0  0  0  0  0  0  0
  -24.5436    1.3861   27.7916 C   0  0  0  0  0  0  0  0  0  0  0  0
  -23.3374    2.0469   27.4517 C   0  0  0  0  0  0  0  0  0  0  0  0
  -29.0591   -2.7218   30.2950 C   0  0  0  0  0  0  0  0  0  0  0  0
  -30.1366   -2.3241   30.1734 O   0  0  0  0  0  0  0  0  0  0  0  0
  -28.8231   -4.0086   30.5631 O   0  0  0  0  0  0  0  0  0  0  0  0
  -23.4688    3.2343   26.2047 Cl  0  0  0  0  0  0  0  0  0  0  0  0
  -31.3113   -3.1211   30.3902 C   0  0  0  0  0  0  0  0  0  0  0  0
  -31.5566   -3.4790   31.5273 C   0  0  0  0  0  0  0  0  0  0  0  0
  -32.7547   -4.2705   31.8649 C   0  0  0  0  0  0  0  0  0  0  0  0
  -33.6256   -4.4865   30.8406 C   0  0  0  0  0  0  0  0  0  0  0  0
  -32.1734   -3.2749   29.2911 C   0  0  0  0  0  0  0  0  0  0  0  0
  -33.3083   -4.0075   29.5344 C   0  0  0  0  0  0  0  0  0  0  0  0
  -34.2665   -4.2336   28.4236 C   0  0  0  0  0  0  0  0  0  0  0  0
  -35.0957   -3.2771   28.1157 C   0  0  0  0  0  0  0  0  0  0  0  0
  -34.1388   -5.4026   27.6674 C   0  0  0  0  0  0  0  0  0  0  0  0
  -35.2219   -2.0200   28.7475 C   0  0  0  0  0  0  0  0  0  0  0  0
  -36.1460   -1.0484   28.3200 C   0  0  0  0  0  0  0  0  0  0  0  0
  -36.9229   -1.3791   27.2329 C   0  0  0  0  0  0  0  0  0  0  0  0
  -35.9526   -3.4271   26.9714 C   0  0  0  0  0  0  0  0  0  0  0  0
  -36.8551   -2.5085   26.5552 C   0  0  0  0  0  0  0  0  0  0  0  0
  -33.0137   -6.2369   27.9060 C   0  0  0  0  0  0  0  0  0  0  0  0
  -32.8548   -7.3573   27.0606 C   0  0  0  0  0  0  0  0  0  0  0  0
  -33.6441   -7.5022   26.0220 C   0  0  0  0  0  0  0  0  0  0  0  0
  -34.7240   -6.6187   25.7597 C   0  0  0  0  0  0  0  0  0  0  0  0
  -34.9370   -5.5689   26.5773 C   0  0  0  0  0  0  0  0  0  0  0  0
  3  4  1  0
  7 13  1  0
 13 14  1  0
 13 15  2  0
 12 16  1  0
 14 17  1  0
 22 23  1  0
 23 24  1  0
 23 25  1  0
 17 18  2  0
 18 19  1  0
 19 20  2  0
 20 22  1  0
 22 21  2  0
 21 17  1  0
  1  2  2  0
  2  3  1  0
  3  9  2  0
  9  8  1  0
  8  7  2  0
  7  1  1  0
 24 26  2  0
 26 27  1  0
 27 28  2  0
 28 30  1  0
 30 29  2  0
 29 24  1  0
  4  5  2  0
  5  6  1  0
  6 10  2  0
 10 12  1  0
 12 11  2  0
 11  4  1  0
 25 31  2  0
 31 32  1  0
 32 33  2  0
 33 34  1  0
 34 35  2  0
 35 25  1  0
M  END

$$$$
