No_3487-gen_results/8p0m/2024-11-26-14-13-15/
     RDKit          3D

 15 16  0  0  0  0  0  0  0  0999 V2000
  -28.0162   -0.8135   28.8779 C   0  0  0  0  0  0  0  0  0  0  0  0
  -28.4690   -0.7850   29.8287 C   0  0  0  0  0  0  0  0  0  0  0  0
  -26.5042   -0.7777   28.8766 C   0  0  0  0  0  0  0  0  0  0  0  0
  -25.6377   -1.9791   29.5560 Cl  0  0  0  0  0  0  0  0  0  0  0  0
  -29.8415   -0.3731   29.9503 C   0  0  0  0  0  0  0  0  0  0  0  0
  -30.4912   -0.1410   28.7156 C   0  0  0  0  0  0  0  0  0  0  0  0
  -29.7330   -0.0541   27.5903 C   0  0  0  0  0  0  0  0  0  0  0  0
  -28.4142   -0.3066   27.6408 C   0  0  0  0  0  0  0  0  0  0  0  0
  -25.5898    0.1267   28.1659 C   0  0  0  0  0  0  0  0  0  0  0  0
  -24.2771    0.1844   28.4270 C   0  0  0  0  0  0  0  0  0  0  0  0
  -23.4655    1.2466   27.8426 C   0  0  0  0  0  0  0  0  0  0  0  0
  -22.1228    1.5165   28.2313 C   0  0  0  0  0  0  0  0  0  0  0  0
  -21.4899    0.5410   28.9661 C   0  0  0  0  0  0  0  0  0  0  0  0
  -22.2039   -0.6038   29.4608 C   0  0  0  0  0  0  0  0  0  0  0  0
  -23.5658   -0.6970   29.2106 C   0  0  0  0  0  0  0  0  0  0  0  0
  1  3  1  0
  3  4  1  0
  3  9  1  0
  9 10  1  0
  1  2  2  0
  2  5  1  0
  5  6  2  0
  6  7  1  0
  7  8  2  0
  8  1  1  0
 10 11  2  0
 11 12  1  0
 12 13  2  0
 13 14  1  0
 14 15  2  0
 15 10  1  0
M  END

$$$$
