No_3737-gen_results/8p0m/2024-11-26-14-13-15/
     RDKit          3D

 35 37  0  0  0  0  0  0  0  0999 V2000
  -28.0162   -0.8135   28.8779 C   0  0  0  0  0  0  0  0  0  0  0  0
  -28.4690   -0.7850   29.8287 C   0  0  0  0  0  0  0  0  0  0  0  0
  -27.1356    0.2359   28.5352 C   0  0  0  0  0  0  0  0  0  0  0  0
  -26.8745    1.2825   29.3982 C   0  0  0  0  0  0  0  0  0  0  0  0
  -28.3613    0.1987   30.9244 C   0  0  0  0  0  0  0  0  0  0  0  0
  -27.5277    1.2234   30.6356 C   0  0  0  0  0  0  0  0  0  0  0  0
  -26.3879    0.2914   27.2334 C   0  0  0  0  0  0  0  0  0  0  0  0
  -26.5292    0.7116   26.2887 N   0  0  0  0  0  0  0  0  0  0  0  0
  -24.8319   -0.6929   27.3740 Cl  0  0  0  0  0  0  0  0  0  0  0  0
  -27.6782    1.4735   26.1110 C   0  0  0  0  0  0  0  0  0  0  0  0
  -28.3515    1.3641   24.8291 C   0  0  0  0  0  0  0  0  0  0  0  0
  -29.3703    2.2385   24.5964 C   0  0  0  0  0  0  0  0  0  0  0  0
  -29.7163    3.3305   25.4731 C   0  0  0  0  0  0  0  0  0  0  0  0
  -28.9347    3.4358   26.6519 C   0  0  0  0  0  0  0  0  0  0  0  0
  -27.9453    2.6164   26.9138 C   0  0  0  0  0  0  0  0  0  0  0  0
  -29.4475   -1.9713   30.2826 C   0  0  0  0  0  0  0  0  0  0  0  0
  -30.1262   -1.8641   31.1651 O   0  0  0  0  0  0  0  0  0  0  0  0
  -28.9273   -3.1470   30.0230 O   0  0  0  0  0  0  0  0  0  0  0  0
  -27.3484    2.3554   31.6118 C   0  0  0  0  0  0  0  0  0  0  0  0
  -27.8347    2.7126   32.4099 O   0  0  0  0  0  0  0  0  0  0  0  0
  -26.2946    3.2992   30.9895 O   0  0  0  0  0  0  0  0  0  0  0  0
  -26.1012    4.4038   31.6818 C   0  0  0  0  0  0  0  0  0  0  0  0
  -25.0054    5.1691   31.1236 C   0  0  0  0  0  0  0  0  0  0  0  0
  -24.6237    6.2655   32.0607 C   0  0  0  0  0  0  0  0  0  0  0  0
  -24.6416    5.9058   33.3400 C   0  0  0  0  0  0  0  0  0  0  0  0
  -25.6908    5.1062   33.8724 C   0  0  0  0  0  0  0  0  0  0  0  0
  -25.8651    3.9237   33.0477 C   0  0  0  0  0  0  0  0  0  0  0  0
  -24.6153    3.1864   33.2300 O   0  0  0  0  0  0  0  0  0  0  0  0
  -23.7133    6.5588   34.2987 C   0  0  0  0  0  0  0  0  0  0  0  0
  -23.5720    7.7053   34.1877 O   0  0  0  0  0  0  0  0  0  0  0  0
  -26.9075    5.8769   34.1484 N   0  0  0  0  0  0  0  0  0  0  0  0
  -27.4043    6.7953   33.6541 C   0  0  0  0  0  0  0  0  0  0  0  0
  -28.6672    7.2163   34.1099 C   0  0  0  0  0  0  0  0  0  0  0  0
  -27.7859    5.1267   35.0367 C   0  0  0  0  0  0  0  0  0  0  0  0
  -27.2654    3.9631   35.8504 C   0  0  0  0  0  0  0  0  0  0  0  0
  3  7  1  0
  7  8  2  3
  7  9  1  0
  8 10  1  0
  2 16  1  0
 16 17  2  0
 16 18  1  0
  6 19  1  0
 19 20  2  0
 19 21  1  0
 21 22  1  0
 22 23  1  0
 23 24  1  0
 24 25  1  0
 25 26  1  0
 22 27  1  0
 26 27  1  0
 27 28  1  0
 25 29  1  0
 29 30  2  0
 26 31  1  0
 31 32  1  0
 32 33  2  0
 31 34  1  0
 34 35  1  0
  1  2  2  0
  2  5  1  0
  5  6  2  0
  6  4  1  0
  4  3  2  0
  3  1  1  0
 10 11  2  0
 11 12  1  0
 12 13  2  0
 13 14  1  0
 14 15  2  0
 15 10  1  0
M  END

$$$$
