No_3013-gen_results/8p0m/2024-11-26-14-13-15/
     RDKit          3D

 12 13  0  0  0  0  0  0  0  0999 V2000
  -28.0162   -0.8135   28.8779 C   0  0  0  0  0  0  0  0  0  0  0  0
  -27.0636   -0.1189   28.6079 C   0  0  0  0  0  0  0  0  0  0  0  0
  -27.0010    0.6913   27.4910 C   0  0  0  0  0  0  0  0  0  0  0  0
  -28.1373    0.7363   26.6350 C   0  0  0  0  0  0  0  0  0  0  0  0
  -29.2360    0.0765   27.0690 C   0  0  0  0  0  0  0  0  0  0  0  0
  -29.2177   -0.6429   28.1747 C   0  0  0  0  0  0  0  0  0  0  0  0
  -30.5230    0.0808   26.3696 C   0  0  0  0  0  0  0  0  0  0  0  0
  -31.3675    1.0756   26.5750 C   0  0  0  0  0  0  0  0  0  0  0  0
  -30.7542   -0.8301   25.3356 C   0  0  0  0  0  0  0  0  0  0  0  0
  -32.5990    1.1621   25.9279 C   0  0  0  0  0  0  0  0  0  0  0  0
  -31.9560   -0.8255   24.6164 C   0  0  0  0  0  0  0  0  0  0  0  0
  -32.8701    0.1972   24.9035 C   0  0  0  0  0  0  0  0  0  0  0  0
  5  7  1  0
  1  2  2  0
  2  3  1  0
  3  4  2  0
  4  5  1  0
  5  6  2  0
  6  1  1  0
  7  8  2  0
  8 10  1  0
 10 12  2  0
 12 11  1  0
 11  9  2  0
  9  7  1  0
M  END

$$$$
