No_319-gen_results/8p0m/2024-11-26-14-13-15/
     RDKit          3D

 29 31  0  0  0  0  0  0  0  0999 V2000
  -28.0162   -0.8135   28.8779 C   0  0  0  0  0  0  0  0  0  0  0  0
  -27.0636   -0.1190   28.6079 C   0  0  0  0  0  0  0  0  0  0  0  0
  -26.9716    0.7139   27.5060 C   0  0  0  0  0  0  0  0  0  0  0  0
  -28.1053    0.7744   26.6421 C   0  0  0  0  0  0  0  0  0  0  0  0
  -29.2008    0.1044   27.0527 C   0  0  0  0  0  0  0  0  0  0  0  0
  -29.2096   -0.6029   28.1853 C   0  0  0  0  0  0  0  0  0  0  0  0
  -30.3702    0.2264   26.1604 C   0  0  0  0  0  0  0  0  0  0  0  0
  -31.3165   -0.4572   26.3805 N   0  0  0  0  0  0  0  0  0  0  0  0
  -30.4776    1.2142   25.4005 O   0  0  0  0  0  0  0  0  0  0  0  0
  -31.3978   -1.5848   27.2425 C   0  0  0  0  0  0  0  0  0  0  0  0
  -30.3286   -1.4804   28.3475 N   0  0  0  0  0  0  0  0  0  0  0  0
  -32.2134   -2.4544   27.4331 O   0  0  0  0  0  0  0  0  0  0  0  0
  -25.7010    1.4637   27.1714 C   0  0  0  0  0  0  0  0  0  0  0  0
  -24.7245    0.7213   27.2325 F   0  0  0  0  0  0  0  0  0  0  0  0
  -25.5400    2.4551   28.0848 F   0  0  0  0  0  0  0  0  0  0  0  0
  -25.7730    2.0817   25.9669 F   0  0  0  0  0  0  0  0  0  0  0  0
  -28.0468   -1.6271   30.1508 C   0  0  0  0  0  0  0  0  0  0  0  0
  -27.1901   -2.5525   30.2596 N   0  0  0  0  0  0  0  0  0  0  0  0
  -25.8575   -2.2420   30.2602 C   0  0  0  0  0  0  0  0  0  0  0  0
  -27.6094   -3.9001   30.2795 C   0  0  0  0  0  0  0  0  0  0  0  0
  -28.8251   -4.1938   30.5899 N   0  0  0  0  0  0  0  0  0  0  0  0
  -26.6903   -4.8107   30.2810 O   0  0  0  0  0  0  0  0  0  0  0  0
  -29.4274   -5.5373   30.6122 C   0  0  0  0  0  0  0  0  0  0  0  0
  -30.7733   -5.5256   30.0203 C   0  0  0  0  0  0  0  0  0  0  0  0
  -31.8518   -5.4682   30.8671 C   0  0  0  0  0  0  0  0  0  0  0  0
  -33.1134   -5.3212   30.2766 C   0  0  0  0  0  0  0  0  0  0  0  0
  -33.2396   -5.5042   28.8790 C   0  0  0  0  0  0  0  0  0  0  0  0
  -32.1427   -5.6771   28.0503 C   0  0  0  0  0  0  0  0  0  0  0  0
  -30.8493   -5.6465   28.6482 C   0  0  0  0  0  0  0  0  0  0  0  0
  5  7  1  0
  7  8  1  0
  7  9  2  0
  8 10  1  0
  6 11  1  0
 10 11  1  0
 10 12  2  0
  3 13  1  0
 13 14  1  0
 13 15  1  0
 13 16  1  0
  1 17  1  0
 17 18  1  0
 18 19  1  0
 18 20  1  0
 20 21  1  0
 20 22  2  0
 21 23  1  0
 23 24  1  0
  1  2  2  0
  2  3  1  0
  3  4  2  0
  4  5  1  0
  5  6  2  0
  6  1  1  0
 24 25  2  0
 25 26  1  0
 26 27  2  0
 27 28  1  0
 28 29  2  0
 29 24  1  0
M  END

$$$$
