No_3337-gen_results/8p0m/2024-11-26-14-13-15/
     RDKit          3D

 34 37  0  0  0  0  0  0  0  0999 V2000
  -28.0162   -0.8135   28.8779 C   0  0  0  0  0  0  0  0  0  0  0  0
  -27.0636   -0.1190   28.6079 C   0  0  0  0  0  0  0  0  0  0  0  0
  -26.9515    1.1286   28.9566 N   0  0  0  0  0  0  0  0  0  0  0  0
  -29.1088   -0.2102   29.6318 C   0  0  0  0  0  0  0  0  0  0  0  0
  -30.1959   -1.0433   29.9956 C   0  0  0  0  0  0  0  0  0  0  0  0
  -29.0643    1.1092   29.9938 C   0  0  0  0  0  0  0  0  0  0  0  0
  -27.9090    1.7990   29.6019 C   0  0  0  0  0  0  0  0  0  0  0  0
  -30.8310   -0.7285   31.0146 O   0  0  0  0  0  0  0  0  0  0  0  0
  -30.4404   -2.1006   29.3385 O   0  0  0  0  0  0  0  0  0  0  0  0
  -25.8822   -0.6039   27.9510 N   0  0  0  0  0  0  0  0  0  0  0  0
  -24.5739   -0.2866   28.3704 C   0  0  0  0  0  0  0  0  0  0  0  0
  -24.3162    0.1079   29.5159 C   0  0  0  0  0  0  0  0  0  0  0  0
  -22.8939    0.3734   29.9014 C   0  0  0  0  0  0  0  0  0  0  0  0
  -21.9257    0.1352   28.9553 C   0  0  0  0  0  0  0  0  0  0  0  0
  -22.2518   -0.1596   27.6597 C   0  0  0  0  0  0  0  0  0  0  0  0
  -23.4775   -0.3298   27.4832 C   0  0  0  0  0  0  0  0  0  0  0  0
  -27.7655    3.0597   29.8861 O   0  0  0  0  0  0  0  0  0  0  0  0
  -20.6544    0.3282   29.2587 F   0  0  0  0  0  0  0  0  0  0  0  0
  -31.6554   -1.5426   31.7033 C   0  0  0  0  0  0  0  0  0  0  0  0
  -32.9437   -1.5552   31.3961 C   0  0  0  0  0  0  0  0  0  0  0  0
  -33.6723   -2.5433   31.6608 C   0  0  0  0  0  0  0  0  0  0  0  0
  -33.2409   -3.5693   32.6159 C   0  0  0  0  0  0  0  0  0  0  0  0
  -31.8914   -3.5550   32.9720 C   0  0  0  0  0  0  0  0  0  0  0  0
  -30.9801   -2.5420   32.4649 C   0  0  0  0  0  0  0  0  0  0  0  0
  -29.6019   -2.5682   32.8111 C   0  0  0  0  0  0  0  0  0  0  0  0
  -28.8808   -3.4948   32.3654 O   0  0  0  0  0  0  0  0  0  0  0  0
  -29.0589   -1.5299   33.5199 N   0  0  0  0  0  0  0  0  0  0  0  0
  -28.1382   -1.0784   33.9102 C   0  0  0  0  0  0  0  0  0  0  0  0
  -27.7248   -0.0909   34.3986 C   0  0  0  0  0  0  0  0  0  0  0  0
  -28.0887    1.0489   34.2941 C   0  0  0  0  0  0  0  0  0  0  0  0
  -27.9263    2.1703   35.1386 C   0  0  0  0  0  0  0  0  0  0  0  0
  -27.1241    2.0551   36.1171 C   0  0  0  0  0  0  0  0  0  0  0  0
  -26.5182    0.8570   36.4166 C   0  0  0  0  0  0  0  0  0  0  0  0
  -26.8332   -0.2488   35.6198 C   0  0  0  0  0  0  0  0  0  0  0  0
  1  2  1  0
  1  4  1  0
  4  5  1  0
  4  6  1  0
  3  7  1  0
  6  7  1  0
  5  8  1  0
  5  9  2  0
  2 10  1  0
 10 11  1  0
  7 17  2  0
 14 18  1  0
  8 19  1  0
 24 25  1  0
 25 26  2  0
 25 27  1  0
 27 28  1  0
 28 29  1  0
  3  2  1  0
 29 30  2  0
 30 31  1  0
 31 32  2  0
 32 33  1  0
 33 34  2  0
 34 29  1  0
 11 12  2  0
 12 13  1  0
 13 14  2  0
 14 15  1  0
 15 16  2  0
 16 11  1  0
 19 20  2  0
 20 21  1  0
 21 22  2  0
 22 23  1  0
 23 24  2  0
 24 19  1  0
M  END

$$$$
