No_3119-gen_results/8p0m/2024-11-26-14-13-15/
     RDKit          3D

 18 19  0  0  0  0  0  0  0  0999 V2000
  -28.0162   -0.8135   28.8779 C   0  0  0  0  0  0  0  0  0  0  0  0
  -27.0636   -0.1190   28.6079 C   0  0  0  0  0  0  0  0  0  0  0  0
  -26.9287    1.1713   29.0083 C   0  0  0  0  0  0  0  0  0  0  0  0
  -25.7702    2.0341   28.6884 C   0  0  0  0  0  0  0  0  0  0  0  0
  -24.7141    1.4431   27.9188 C   0  0  0  0  0  0  0  0  0  0  0  0
  -24.8590    0.0783   27.5836 C   0  0  0  0  0  0  0  0  0  0  0  0
  -25.9647   -0.6606   27.9164 C   0  0  0  0  0  0  0  0  0  0  0  0
  -27.9820   -1.6112   30.1028 N   0  0  0  0  0  0  0  0  0  0  0  0
  -23.5351    2.1704   27.5550 C   0  0  0  0  0  0  0  0  0  0  0  0
  -22.4638    1.6493   27.0986 N   0  0  0  0  0  0  0  0  0  0  0  0
  -23.6467    3.4605   27.5429 O   0  0  0  0  0  0  0  0  0  0  0  0
  -29.2186   -0.3918   28.6931 O   0  0  0  0  0  0  0  0  0  0  0  0
  -28.5765   -2.4802   30.4618 C   0  0  0  0  0  0  0  0  0  0  0  0
  -28.4200   -3.9066   30.0417 C   0  0  0  0  0  0  0  0  0  0  0  0
  -29.3115   -4.9771   30.4607 C   0  0  0  0  0  0  0  0  0  0  0  0
  -30.3611   -4.5344   30.9337 C   0  0  0  0  0  0  0  0  0  0  0  0
  -30.7644   -3.2654   31.3496 C   0  0  0  0  0  0  0  0  0  0  0  0
  -29.8539   -2.2242   31.0758 C   0  0  0  0  0  0  0  0  0  0  0  0
  1  2  1  0
  1  8  1  0
  5  9  1  0
  9 10  2  0
  9 11  1  0
  1 12  2  0
  8 13  1  0
  2  3  2  0
  3  4  1  0
  4  5  2  0
  5  6  1  0
  6  7  2  0
  7  2  1  0
 13 14  2  0
 14 15  1  0
 15 16  2  0
 16 17  1  0
 17 18  2  0
 18 13  1  0
M  END

$$$$
