No_3511-gen_results/8p0m/2024-11-26-14-13-15/
     RDKit          3D

 12 13  0  0  0  0  0  0  0  0999 V2000
  -28.0162   -0.8135   28.8779 C   0  0  0  0  0  0  0  0  0  0  0  0
  -27.0636   -0.1189   28.6079 C   0  0  0  0  0  0  0  0  0  0  0  0
  -26.9716    0.7139   27.5060 C   0  0  0  0  0  0  0  0  0  0  0  0
  -25.8206    1.4910   27.1160 C   0  0  0  0  0  0  0  0  0  0  0  0
  -25.7505    2.3193   26.0233 C   0  0  0  0  0  0  0  0  0  0  0  0
  -26.8263    2.2181   25.1373 C   0  0  0  0  0  0  0  0  0  0  0  0
  -27.9220    1.4707   25.3693 C   0  0  0  0  0  0  0  0  0  0  0  0
  -27.9201    0.7049   26.5395 C   0  0  0  0  0  0  0  0  0  0  0  0
  -28.0890   -1.5958   30.1484 C   0  0  0  0  0  0  0  0  0  0  0  0
  -26.9017   -1.8159   30.8513 C   0  0  0  0  0  0  0  0  0  0  0  0
  -25.7007   -1.2385   30.4683 C   0  0  0  0  0  0  0  0  0  0  0  0
  -25.7557   -0.3692   29.3650 C   0  0  0  0  0  0  0  0  0  0  0  0
  2  3  1  0
  1  2  2  0
  2 12  1  0
 12 11  2  0
 11 10  1  0
 10  9  2  0
  9  1  1  0
  3  4  2  0
  4  5  1  0
  5  6  2  0
  6  7  1  0
  7  8  2  0
  8  3  1  0
M  END

$$$$
