No_3234-gen_results/8p0m/2024-11-26-14-13-15/
     RDKit          3D

 13 13  0  0  0  0  0  0  0  0999 V2000
  -28.0162   -0.8135   28.8779 C   0  0  0  0  0  0  0  0  0  0  0  0
  -28.4690   -0.7850   29.8287 C   0  0  0  0  0  0  0  0  0  0  0  0
  -26.5042   -0.7777   28.8766 C   0  0  0  0  0  0  0  0  0  0  0  0
  -25.8103   -0.8531   30.1028 C   0  0  0  0  0  0  0  0  0  0  0  0
  -27.9906   -0.8916   31.2257 C   0  0  0  0  0  0  0  0  0  0  0  0
  -26.6042   -0.8676   31.2652 C   0  0  0  0  0  0  0  0  0  0  0  0
  -29.9385   -0.8194   29.8358 O   0  0  0  0  0  0  0  0  0  0  0  0
  -30.6393    0.2340   30.2522 C   0  0  0  0  0  0  0  0  0  0  0  0
  -31.5896    0.5939   29.5426 C   0  0  0  0  0  0  0  0  0  0  0  0
  -31.9831   -0.1037   28.3459 C   0  0  0  0  0  0  0  0  0  0  0  0
  -31.6100   -1.3021   28.2074 C   0  0  0  0  0  0  0  0  0  0  0  0
  -31.9487   -2.0339   27.0633 O   0  0  0  0  0  0  0  0  0  0  0  0
  -32.7245    0.4122   27.3421 O   0  0  0  0  0  0  0  0  0  0  0  0
  2  7  1  0
  7  8  1  0
  8  9  2  3
  9 10  1  0
 10 11  1  0
 11 12  1  0
 10 13  2  0
  1  2  2  0
  2  5  1  0
  5  6  2  0
  6  4  1  0
  4  3  2  0
  3  1  1  0
M  END

$$$$
