No_3896-gen_results/8p0m/2024-11-26-14-13-15/
     RDKit          3D

 17 18  0  0  0  0  0  0  0  0999 V2000
  -28.0162   -0.8135   28.8779 C   0  0  0  0  0  0  0  0  0  0  0  0
  -28.4690   -0.7850   29.8287 C   0  0  0  0  0  0  0  0  0  0  0  0
  -26.5042   -0.7777   28.8766 C   0  0  0  0  0  0  0  0  0  0  0  0
  -25.6540   -0.6597   27.7191 C   0  0  0  0  0  0  0  0  0  0  0  0
  -27.9180   -0.9374   31.1824 C   0  0  0  0  0  0  0  0  0  0  0  0
  -26.5423   -0.9399   31.2606 C   0  0  0  0  0  0  0  0  0  0  0  0
  -25.7832   -0.8935   30.1201 C   0  0  0  0  0  0  0  0  0  0  0  0
  -24.3632   -0.5034   27.8686 N   0  0  0  0  0  0  0  0  0  0  0  0
  -23.6484   -0.7378   29.0114 C   0  0  0  0  0  0  0  0  0  0  0  0
  -22.2390   -0.5661   29.1321 C   0  0  0  0  0  0  0  0  0  0  0  0
  -24.4046   -0.8973   30.2833 C   0  0  0  0  0  0  0  0  0  0  0  0
  -21.5956    0.5130   28.7119 N   0  0  0  0  0  0  0  0  0  0  0  0
  -26.1020   -0.4419   26.5915 O   0  0  0  0  0  0  0  0  0  0  0  0
  -21.6386    1.0817   27.5387 C   0  0  0  0  0  0  0  0  0  0  0  0
  -22.4888    1.1306   26.8295 F   0  0  0  0  0  0  0  0  0  0  0  0
  -30.2893   -0.8475   29.8488 Cl  0  0  0  0  0  0  0  0  0  0  0  0
  -20.4938    1.0935   26.9560 F   0  0  0  0  0  0  0  0  0  0  0  0
  3  4  1  0
  4  8  1  0
  9 10  1  0
  7 11  1  0
  9 11  1  0
 10 12  1  0
  4 13  2  0
 12 14  2  3
 14 15  1  0
  2 16  1  0
 14 17  1  0
  9  8  1  0
  1  2  2  0
  2  5  1  0
  5  6  2  0
  6  7  1  0
  7  3  2  0
  3  1  1  0
M  END

$$$$
