No_3542-gen_results/8p0m/2024-11-26-14-13-15/
     RDKit          3D

 28 31  0  0  0  0  0  0  0  0999 V2000
  -28.0162   -0.8135   28.8779 C   0  0  0  0  0  0  0  0  0  0  0  0
  -27.0636   -0.1190   28.6079 C   0  0  0  0  0  0  0  0  0  0  0  0
  -27.0010    0.6913   27.4910 C   0  0  0  0  0  0  0  0  0  0  0  0
  -25.7770    1.0214   26.9135 C   0  0  0  0  0  0  0  0  0  0  0  0
  -24.5088    0.7364   27.5686 C   0  0  0  0  0  0  0  0  0  0  0  0
  -24.5104    0.5132   28.5850 C   0  0  0  0  0  0  0  0  0  0  0  0
  -25.7477   -0.3195   29.2844 C   0  0  0  0  0  0  0  0  0  0  0  0
  -27.8004   -1.9661   29.4417 F   0  0  0  0  0  0  0  0  0  0  0  0
  -28.8130   -0.1223   29.8608 F   0  0  0  0  0  0  0  0  0  0  0  0
  -23.3135    1.5103   27.0047 C   0  0  0  0  0  0  0  0  0  0  0  0
  -23.2931    2.0781   25.7842 C   0  0  0  0  0  0  0  0  0  0  0  0
  -22.0757    1.4869   27.7619 C   0  0  0  0  0  0  0  0  0  0  0  0
  -22.0093    1.0770   28.9875 N   0  0  0  0  0  0  0  0  0  0  0  0
  -23.2143    0.3728   29.4884 C   0  0  0  0  0  0  0  0  0  0  0  0
  -23.1076   -0.1433   30.7111 N   0  0  0  0  0  0  0  0  0  0  0  0
  -22.6793   -1.3931   30.8619 C   0  0  0  0  0  0  0  0  0  0  0  0
  -23.3434    0.4849   31.7279 C   0  0  0  0  0  0  0  0  0  0  0  0
  -23.7324   -0.3347   32.8841 C   0  0  0  0  0  0  0  0  0  0  0  0
  -24.2608   -1.4074   32.9732 C   0  0  0  0  0  0  0  0  0  0  0  0
  -23.4518   -2.1378   31.8434 C   0  0  0  0  0  0  0  0  0  0  0  0
  -28.9068   -0.8807   27.8901 F   0  0  0  0  0  0  0  0  0  0  0  0
  -25.8814    1.6937   25.5583 C   0  0  0  0  0  0  0  0  0  0  0  0
  -24.5768    2.1507   25.0599 C   0  0  0  0  0  0  0  0  0  0  0  0
  -21.0269    2.0078   27.3150 O   0  0  0  0  0  0  0  0  0  0  0  0
  -26.9676    1.7580   24.8098 C   0  0  0  0  0  0  0  0  0  0  0  0
  -27.4554    2.8893   24.5366 F   0  0  0  0  0  0  0  0  0  0  0  0
  -26.8547    1.0145   23.6789 F   0  0  0  0  0  0  0  0  0  0  0  0
  -28.1141    1.1685   25.3722 F   0  0  0  0  0  0  0  0  0  0  0  0
  1  2  1  0
  1  8  1  0
  1  9  1  0
 10 12  1  0
 12 13  1  0
  6 14  1  0
 14 15  1  0
 15 16  1  0
 15 17  1  0
 18 19  1  0
 16 20  1  0
  1 21  1  0
 12 24  2  0
 22 25  1  0
 25 26  1  0
 25 27  1  0
 25 28  1  0
 20 19  1  0
 18 17  1  0
 14 13  1  0
  2  3  2  0
  3  4  1  0
  5  6  1  0
  6  7  2  0
  7  2  1  0
  4  5  2  0
  5 10  1  0
 10 11  2  0
 11 23  1  0
 23 22  2  0
 22  4  1  0
M  END

$$$$
