No_3917-gen_results/8p0m/2024-11-26-14-13-15/
     RDKit          3D

 14 14  0  0  0  0  0  0  0  0999 V2000
  -28.0162   -0.8135   28.8779 C   0  0  0  0  0  0  0  0  0  0  0  0
  -27.0636   -0.1189   28.6079 C   0  0  0  0  0  0  0  0  0  0  0  0
  -25.7923   -0.4302   29.0761 C   0  0  0  0  0  0  0  0  0  0  0  0
  -25.5756   -1.5654   29.9363 C   0  0  0  0  0  0  0  0  0  0  0  0
  -26.7354   -2.3004   30.2173 C   0  0  0  0  0  0  0  0  0  0  0  0
  -27.9184   -1.9537   29.7629 C   0  0  0  0  0  0  0  0  0  0  0  0
  -27.1057    1.1023   27.7593 C   0  0  0  0  0  0  0  0  0  0  0  0
  -26.8548    2.1259   28.0082 N   0  0  0  0  0  0  0  0  0  0  0  0
  -27.3162    0.8994   26.3989 O   0  0  0  0  0  0  0  0  0  0  0  0
  -26.5716    3.1374   27.5998 C   0  0  0  0  0  0  0  0  0  0  0  0
  -25.1790    3.6581   27.8471 C   0  0  0  0  0  0  0  0  0  0  0  0
  -27.4629    4.3623   28.0108 C   0  0  0  0  0  0  0  0  0  0  0  0
  -29.2432   -2.8925   30.2949 Cl  0  0  0  0  0  0  0  0  0  0  0  0
  -26.5679    3.2238   25.9596 C   0  0  0  0  0  0  0  0  0  0  0  0
  2  7  1  0
  7  8  1  0
  7  9  2  0
  8 10  1  0
 10 11  1  0
 10 12  1  0
  6 13  1  0
 10 14  1  0
  1  2  2  0
  2  3  1  0
  3  4  2  0
  4  5  1  0
  5  6  2  0
  6  1  1  0
M  END

$$$$
