No_389-gen_results/8p0m/2024-11-26-14-13-15/
     RDKit          3D

 32 35  0  0  0  0  0  0  0  0999 V2000
  -28.0544   -1.0498   28.7246 N   0  0  0  0  0  0  0  0  0  0  0  0
  -27.7460   -0.0733   29.0098 C   0  0  0  0  0  0  0  0  0  0  0  0
  -27.5562    0.3369   30.3393 C   0  0  0  0  0  0  0  0  0  0  0  0
  -27.0710    1.6709   30.7899 C   0  0  0  0  0  0  0  0  0  0  0  0
  -26.6539    2.5222   29.7363 C   0  0  0  0  0  0  0  0  0  0  0  0
  -26.7304    2.0603   28.4078 C   0  0  0  0  0  0  0  0  0  0  0  0
  -27.1892    0.8153   28.0522 C   0  0  0  0  0  0  0  0  0  0  0  0
  -28.6782   -1.8663   29.7679 C   0  0  0  0  0  0  0  0  0  0  0  0
  -29.1332   -3.1962   29.4626 C   0  0  0  0  0  0  0  0  0  0  0  0
  -28.7114   -1.5123   31.1504 C   0  0  0  0  0  0  0  0  0  0  0  0
  -28.1244   -0.3880   31.4515 C   0  0  0  0  0  0  0  0  0  0  0  0
  -29.1118   -4.1961   30.5355 C   0  0  0  0  0  0  0  0  0  0  0  0
  -29.6447   -5.4631   30.1314 C   0  0  0  0  0  0  0  0  0  0  0  0
  -30.3642   -5.5889   28.9759 C   0  0  0  0  0  0  0  0  0  0  0  0
  -30.6358   -4.5950   28.1234 C   0  0  0  0  0  0  0  0  0  0  0  0
  -30.0660   -3.3905   28.4728 C   0  0  0  0  0  0  0  0  0  0  0  0
  -27.2148    0.5043   26.6150 C   0  0  0  0  0  0  0  0  0  0  0  0
  -28.2714    1.0207   25.8335 C   0  0  0  0  0  0  0  0  0  0  0  0
  -28.1595    0.5850   24.7262 F   0  0  0  0  0  0  0  0  0  0  0  0
  -29.4551    0.7562   26.3343 F   0  0  0  0  0  0  0  0  0  0  0  0
  -28.1250    2.3506   25.6059 F   0  0  0  0  0  0  0  0  0  0  0  0
  -31.3319   -4.7957   27.0156 O   0  0  0  0  0  0  0  0  0  0  0  0
  -26.0441    3.8259   30.0345 C   0  0  0  0  0  0  0  0  0  0  0  0
  -25.4985    4.0240   31.0184 O   0  0  0  0  0  0  0  0  0  0  0  0
  -26.0701    4.7228   29.0883 O   0  0  0  0  0  0  0  0  0  0  0  0
  -32.6689   -4.7700   27.0911 C   0  0  0  0  0  0  0  0  0  0  0  0
  -33.1844   -3.6954   27.6714 C   0  0  0  0  0  0  0  0  0  0  0  0
  -33.9916   -3.0755   27.5437 C   0  0  0  0  0  0  0  0  0  0  0  0
  -34.4479   -1.9605   28.0590 C   0  0  0  0  0  0  0  0  0  0  0  0
  -33.7805   -1.4432   29.2507 C   0  0  0  0  0  0  0  0  0  0  0  0
  -32.6903   -2.1950   29.6379 C   0  0  0  0  0  0  0  0  0  0  0  0
  -32.3166   -3.2663   28.8841 C   0  0  0  0  0  0  0  0  0  0  0  0
  8  9  1  0
  7 17  1  0
 17 18  1  0
 18 19  1  0
 18 20  1  0
 18 21  1  0
 15 22  1  0
  5 23  1  0
 23 24  1  0
 23 25  2  0
 22 26  1  0
 26 27  1  0
  3  4  1  0
  4  5  2  0
  5  6  1  0
  6  7  2  0
  7  2  1  0
 27 28  2  0
 28 29  1  0
 29 30  2  0
 30 31  1  0
 31 32  2  0
 32 27  1  0
  9 12  2  0
 12 13  1  0
 13 14  2  0
 14 15  1  0
 15 16  2  0
 16  9  1  0
  1  2  2  0
  2  3  1  0
  3 11  2  0
 11 10  1  0
 10  8  2  0
  8  1  1  0
M  END

$$$$
