No_3603-gen_results/8p0m/2024-11-26-14-13-15/
     RDKit          3D

 26 27  0  0  0  0  0  0  0  0999 V2000
  -28.0162   -0.8135   28.8779 C   0  0  0  0  0  0  0  0  0  0  0  0
  -28.4690   -0.7850   29.8287 C   0  0  0  0  0  0  0  0  0  0  0  0
  -26.5455   -0.8762   28.8500 C   0  0  0  0  0  0  0  0  0  0  0  0
  -25.8041   -1.0324   30.0571 C   0  0  0  0  0  0  0  0  0  0  0  0
  -27.9437   -0.9869   31.2075 C   0  0  0  0  0  0  0  0  0  0  0  0
  -26.5825   -1.0386   31.2231 C   0  0  0  0  0  0  0  0  0  0  0  0
  -30.0279   -0.6588   29.6965 C   0  0  0  0  0  0  0  0  0  0  0  0
  -30.7031   -1.6266   30.0953 F   0  0  0  0  0  0  0  0  0  0  0  0
  -30.2994   -0.3735   28.4594 F   0  0  0  0  0  0  0  0  0  0  0  0
  -30.4121    0.4430   30.3973 F   0  0  0  0  0  0  0  0  0  0  0  0
  -25.6411   -0.8081   27.6436 C   0  0  0  0  0  0  0  0  0  0  0  0
  -25.9661    0.0312   26.6755 N   0  0  0  0  0  0  0  0  0  0  0  0
  -25.2495    0.8509   26.1280 C   0  0  0  0  0  0  0  0  0  0  0  0
  -23.9920    1.2182   26.6514 C   0  0  0  0  0  0  0  0  0  0  0  0
  -23.5012    0.6236   27.7957 C   0  0  0  0  0  0  0  0  0  0  0  0
  -22.3317    0.9250   28.5800 C   0  0  0  0  0  0  0  0  0  0  0  0
  -24.2095   -1.0783   27.9194 C   0  0  0  0  0  0  0  0  0  0  0  0
  -21.5956    1.7548   28.1048 O   0  0  0  0  0  0  0  0  0  0  0  0
  -22.1515    0.2653   29.7027 O   0  0  0  0  0  0  0  0  0  0  0  0
  -27.3542    0.0277   26.3296 C   0  0  0  0  0  0  0  0  0  0  0  0
  -27.6370    0.1212   24.9055 C   0  0  0  0  0  0  0  0  0  0  0  0
  -28.9446    0.1365   24.5483 C   0  0  0  0  0  0  0  0  0  0  0  0
  -29.9317   -0.1057   25.4385 C   0  0  0  0  0  0  0  0  0  0  0  0
  -31.2653   -0.1935   25.0159 C   0  0  0  0  0  0  0  0  0  0  0  0
  -32.3187   -0.4930   25.9242 C   0  0  0  0  0  0  0  0  0  0  0  0
  -32.1030   -0.6009   26.9820 C   0  0  0  0  0  0  0  0  0  0  0  0
  2  7  1  0
  7  8  1  0
  7  9  1  0
  7 10  1  0
  3 11  1  0
 11 12  1  0
 12 13  1  0
 13 14  1  0
 15 16  1  0
 11 17  1  0
 15 17  1  0
 16 18  2  0
 16 19  1  0
 12 20  1  0
 20 21  2  3
 21 22  1  0
 22 23  2  3
 23 24  1  0
 24 25  2  3
 25 26  1  0
 15 14  1  0
  1  2  2  0
  2  5  1  0
  5  6  2  0
  6  4  1  0
  4  3  2  0
  3  1  1  0
M  END

$$$$
