No_341-gen_results/8p0m/2024-11-26-14-13-15/
     RDKit          3D

 12 12  0  0  0  0  0  0  0  0999 V2000
  -28.0162   -0.8135   28.8779 C   0  0  0  0  0  0  0  0  0  0  0  0
  -27.0636   -0.1189   28.6079 C   0  0  0  0  0  0  0  0  0  0  0  0
  -26.8756    1.1325   28.9134 C   0  0  0  0  0  0  0  0  0  0  0  0
  -25.6883    1.9515   28.5672 C   0  0  0  0  0  0  0  0  0  0  0  0
  -24.6394    1.2834   27.8753 C   0  0  0  0  0  0  0  0  0  0  0  0
  -24.8068   -0.0513   27.6040 C   0  0  0  0  0  0  0  0  0  0  0  0
  -25.9019   -0.7670   27.9511 C   0  0  0  0  0  0  0  0  0  0  0  0
  -27.8714   -2.0158   29.4385 F   0  0  0  0  0  0  0  0  0  0  0  0
  -28.8239   -0.1520   29.8554 F   0  0  0  0  0  0  0  0  0  0  0  0
  -23.4226    1.9607   27.5002 C   0  0  0  0  0  0  0  0  0  0  0  0
  -22.7651    2.4905   28.0408 O   0  0  0  0  0  0  0  0  0  0  0  0
  -23.2662    1.9152   26.1053 O   0  0  0  0  0  0  0  0  0  0  0  0
  1  8  1  0
  1  9  1  0
  5 10  1  0
 10 11  2  0
 10 12  1  0
  1  2  1  0
  2  3  2  0
  3  4  1  0
  4  5  2  0
  5  6  1  0
  6  7  2  0
  7  2  1  0
M  END

$$$$
