No_3643-gen_results/8p0m/2024-11-26-14-13-15/
     RDKit          3D

 17 18  0  0  0  0  0  0  0  0999 V2000
  -28.0162   -0.8135   28.8779 C   0  0  0  0  0  0  0  0  0  0  0  0
  -28.4690   -0.7850   29.8287 C   0  0  0  0  0  0  0  0  0  0  0  0
  -26.5042   -0.7777   28.8766 C   0  0  0  0  0  0  0  0  0  0  0  0
  -25.8103   -0.8531   30.1028 C   0  0  0  0  0  0  0  0  0  0  0  0
  -27.9906   -0.8916   31.2257 C   0  0  0  0  0  0  0  0  0  0  0  0
  -26.6042   -0.8676   31.2652 C   0  0  0  0  0  0  0  0  0  0  0  0
  -24.3894   -0.8049   30.1638 C   0  0  0  0  0  0  0  0  0  0  0  0
  -23.7687   -1.1336   31.0449 N   0  0  0  0  0  0  0  0  0  0  0  0
  -23.7677   -0.4348   29.0961 F   0  0  0  0  0  0  0  0  0  0  0  0
  -30.0875   -0.8219   29.8526 C   0  0  0  0  0  0  0  0  0  0  0  0
  -30.6857   -0.0832   29.1368 O   0  0  0  0  0  0  0  0  0  0  0  0
  -30.7439   -1.6842   30.6982 N   0  0  0  0  0  0  0  0  0  0  0  0
  -31.7025   -2.1349   30.6264 C   0  0  0  0  0  0  0  0  0  0  0  0
  -32.1758   -2.9788   31.4361 C   0  0  0  0  0  0  0  0  0  0  0  0
  -31.2847   -3.2989   32.5123 C   0  0  0  0  0  0  0  0  0  0  0  0
  -30.0581   -2.8952   32.6934 C   0  0  0  0  0  0  0  0  0  0  0  0
  -29.6928   -2.0686   31.7333 C   0  0  0  0  0  0  0  0  0  0  0  0
  4  7  1  0
  7  8  2  0
  7  9  1  0
  2 10  1  0
 10 11  2  0
 10 12  1  0
 12 13  1  0
 14 15  1  0
 12 17  1  0
 16 17  1  0
 13 14  1  0
 15 16  1  0
  1  2  2  0
  2  5  1  0
  5  6  2  0
  6  4  1  0
  4  3  2  0
  3  1  1  0
M  END

$$$$
