No_3269-gen_results/8p0m/2024-11-26-14-13-15/
     RDKit          3D

 15 16  0  0  0  0  0  0  0  0999 V2000
  -28.1229   -1.3353   28.4874 O   0  0  0  0  0  0  0  0  0  0  0  0
  -27.0637   -0.8242   28.8687 C   0  0  0  0  0  0  0  0  0  0  0  0
  -25.9464   -1.0396   28.8492 C   0  0  0  0  0  0  0  0  0  0  0  0
  -24.7602   -0.1562   29.1644 C   0  0  0  0  0  0  0  0  0  0  0  0
  -23.3890   -0.4551   29.0162 C   0  0  0  0  0  0  0  0  0  0  0  0
  -27.3395    0.3834   29.7632 N   0  0  0  0  0  0  0  0  0  0  0  0
  -26.4205    1.2770   30.1889 C   0  0  0  0  0  0  0  0  0  0  0  0
  -25.0644    1.0553   29.9319 C   0  0  0  0  0  0  0  0  0  0  0  0
  -22.5196    0.5596   28.4465 C   0  0  0  0  0  0  0  0  0  0  0  0
  -21.1273    0.2213   28.3366 C   0  0  0  0  0  0  0  0  0  0  0  0
  -20.8557   -1.0196   28.8246 N   0  0  0  0  0  0  0  0  0  0  0  0
  -22.6092   -1.5737   29.3680 C   0  0  0  0  0  0  0  0  0  0  0  0
  -22.9209    1.9374   28.0563 C   0  0  0  0  0  0  0  0  0  0  0  0
  -23.8584    2.4910   28.4478 O   0  0  0  0  0  0  0  0  0  0  0  0
  -21.9220    2.6171   27.5241 O   0  0  0  0  0  0  0  0  0  0  0  0
  1  2  2  0
  2  3  1  0
  3  4  1  0
  4  5  1  0
  2  6  1  0
  4  8  1  0
  7  8  1  0
  5  9  1  0
  9 10  2  0
 10 11  1  0
  5 12  1  0
 11 12  2  0
  9 13  1  0
 13 14  2  0
 13 15  1  0
  7  6  1  0
M  END

$$$$
