No_358-gen_results/8p0m/2024-11-26-14-13-15/
     RDKit          3D

 15 15  0  0  0  0  0  0  0  0999 V2000
  -28.0162   -0.8135   28.8779 C   0  0  0  0  0  0  0  0  0  0  0  0
  -27.0636   -0.1189   28.6079 C   0  0  0  0  0  0  0  0  0  0  0  0
  -25.7923   -0.4302   29.0761 C   0  0  0  0  0  0  0  0  0  0  0  0
  -25.5681   -1.2411   29.7572 C   0  0  0  0  0  0  0  0  0  0  0  0
  -26.6114   -2.1840   30.2439 C   0  0  0  0  0  0  0  0  0  0  0  0
  -27.8191   -1.9189   29.8034 C   0  0  0  0  0  0  0  0  0  0  0  0
  -28.8528   -2.7193   30.2109 O   0  0  0  0  0  0  0  0  0  0  0  0
  -28.6374   -3.9987   30.5829 C   0  0  0  0  0  0  0  0  0  0  0  0
  -27.2324    1.0005   27.7976 F   0  0  0  0  0  0  0  0  0  0  0  0
  -29.8263   -4.5827   31.3079 C   0  0  0  0  0  0  0  0  0  0  0  0
  -29.6982   -5.6799   31.4762 O   0  0  0  0  0  0  0  0  0  0  0  0
  -31.0192   -4.0371   31.1024 N   0  0  0  0  0  0  0  0  0  0  0  0
  -32.1998   -4.6718   31.5801 C   0  0  0  0  0  0  0  0  0  0  0  0
  -33.2026   -4.3924   30.9747 C   0  0  0  0  0  0  0  0  0  0  0  0
  -34.3760   -4.8198   31.0951 C   0  0  0  0  0  0  0  0  0  0  0  0
  6  7  1  0
  7  8  1  0
  2  9  1  0
  8 10  1  0
 10 11  2  0
 10 12  1  0
 12 13  1  0
 13 14  2  3
 14 15  1  0
  1  2  2  0
  2  3  1  0
  3  4  2  0
  4  5  1  0
  5  6  2  0
  6  1  1  0
M  END

$$$$
