No_3070-gen_results/8p0m/2024-11-26-14-13-15/
     RDKit          3D

 35 38  0  0  0  0  0  0  0  0999 V2000
  -28.0162   -0.8135   28.8779 C   0  0  0  0  0  0  0  0  0  0  0  0
  -27.0636   -0.1189   28.6079 C   0  0  0  0  0  0  0  0  0  0  0  0
  -26.8756    1.1325   28.9134 C   0  0  0  0  0  0  0  0  0  0  0  0
  -27.9014    1.8066   29.6436 C   0  0  0  0  0  0  0  0  0  0  0  0
  -28.9449    1.0388   30.0360 C   0  0  0  0  0  0  0  0  0  0  0  0
  -29.0273   -0.2890   29.7051 C   0  0  0  0  0  0  0  0  0  0  0  0
  -25.6959    1.9505   28.4764 C   0  0  0  0  0  0  0  0  0  0  0  0
  -25.0886    1.8635   27.5900 C   0  0  0  0  0  0  0  0  0  0  0  0
  -23.8419    2.6359   27.2476 C   0  0  0  0  0  0  0  0  0  0  0  0
  -24.6969    2.4583   29.5080 C   0  0  0  0  0  0  0  0  0  0  0  0
  -23.5690    3.0087   29.3508 N   0  0  0  0  0  0  0  0  0  0  0  0
  -23.0507    3.0611   28.1530 C   0  0  0  0  0  0  0  0  0  0  0  0
  -30.1476   -1.1765   30.0789 C   0  0  0  0  0  0  0  0  0  0  0  0
  -31.1196   -1.1573   29.5895 O   0  0  0  0  0  0  0  0  0  0  0  0
  -29.8377   -2.0875   31.1379 N   0  0  0  0  0  0  0  0  0  0  0  0
  -28.5713   -2.2516   31.8728 C   0  0  0  0  0  0  0  0  0  0  0  0
  -30.9031   -2.9781   31.6040 C   0  0  0  0  0  0  0  0  0  0  0  0
  -25.2358    2.5054   30.9054 N   0  0  0  0  0  0  0  0  0  0  0  0
  -25.0863    1.2878   31.6427 C   0  0  0  0  0  0  0  0  0  0  0  0
  -24.2627    0.2967   31.5715 C   0  0  0  0  0  0  0  0  0  0  0  0
  -25.8246    1.3600   32.9401 C   0  0  0  0  0  0  0  0  0  0  0  0
  -24.1696   -0.8011   32.3325 C   0  0  0  0  0  0  0  0  0  0  0  0
  -25.7827    0.2562   33.7821 C   0  0  0  0  0  0  0  0  0  0  0  0
  -24.9614   -0.7980   33.5083 C   0  0  0  0  0  0  0  0  0  0  0  0
  -25.7196    3.7026   31.3484 C   0  0  0  0  0  0  0  0  0  0  0  0
  -24.8966    4.4494   32.0543 C   0  0  0  0  0  0  0  0  0  0  0  0
  -25.2260    5.8359   32.4873 C   0  0  0  0  0  0  0  0  0  0  0  0
  -26.4131    6.3246   32.0550 C   0  0  0  0  0  0  0  0  0  0  0  0
  -27.2472    5.4902   31.2673 C   0  0  0  0  0  0  0  0  0  0  0  0
  -26.8573    4.2815   30.9012 C   0  0  0  0  0  0  0  0  0  0  0  0
  -23.3475    2.5482   25.7764 C   0  0  0  0  0  0  0  0  0  0  0  0
  -28.5310    6.1244   30.7836 C   0  0  0  0  0  0  0  0  0  0  0  0
  -29.4398    6.2372   31.4928 C   0  0  0  0  0  0  0  0  0  0  0  0
  -30.7130    6.8060   31.0795 C   0  0  0  0  0  0  0  0  0  0  0  0
  -28.4985    6.8725   29.6371 C   0  0  0  0  0  0  0  0  0  0  0  0
  3  7  1  0
  6 13  1  0
 13 14  2  0
 13 15  1  0
 15 16  1  0
 15 17  1  0
 10 18  1  0
 18 19  1  0
 18 25  1  0
  9 31  1  0
 29 32  1  0
 32 33  1  0
 33 34  2  0
 32 35  1  0
 19 20  2  0
 20 22  1  0
 22 24  2  0
 24 23  1  0
 23 21  2  0
 21 19  1  0
  1  2  2  0
  2  3  1  0
  3  4  2  0
  4  5  1  0
  5  6  2  0
  6  1  1  0
 25 26  2  0
 26 27  1  0
 27 28  2  0
 28 29  1  0
 29 30  2  0
 30 25  1  0
  7  8  2  0
  8  9  1  0
  9 12  2  0
 12 11  1  0
 11 10  2  0
 10  7  1  0
M  END

$$$$
