No_3004-gen_results/8p0m/2024-11-26-14-13-15/
     RDKit          3D

 19 21  0  0  0  0  0  0  0  0999 V2000
  -28.1229   -1.3353   28.4874 O   0  0  0  0  0  0  0  0  0  0  0  0
  -27.4806   -0.4044   28.7094 C   0  0  0  0  0  0  0  0  0  0  0  0
  -26.4599   -0.1104   28.0051 N   0  0  0  0  0  0  0  0  0  0  0  0
  -26.1476   -0.4948   26.8760 C   0  0  0  0  0  0  0  0  0  0  0  0
  -27.3458    0.1317   30.1556 C   0  0  0  0  0  0  0  0  0  0  0  0
  -28.2117    0.2243   30.7629 C   0  0  0  0  0  0  0  0  0  0  0  0
  -26.0762    0.6276   25.8246 C   0  0  0  0  0  0  0  0  0  0  0  0
  -25.9256    0.4933   30.5667 C   0  0  0  0  0  0  0  0  0  0  0  0
  -24.8645    0.7657   29.7492 C   0  0  0  0  0  0  0  0  0  0  0  0
  -25.0140    0.5177   28.3850 C   0  0  0  0  0  0  0  0  0  0  0  0
  -24.1207    1.0265   27.4725 C   0  0  0  0  0  0  0  0  0  0  0  0
  -24.6362    1.1550   26.1094 C   0  0  0  0  0  0  0  0  0  0  0  0
  -29.5045    0.1726   30.3848 C   0  0  0  0  0  0  0  0  0  0  0  0
  -29.7023    0.2172   29.3164 F   0  0  0  0  0  0  0  0  0  0  0  0
  -30.5533    0.0818   31.2183 F   0  0  0  0  0  0  0  0  0  0  0  0
  -23.0239    1.7919   27.8127 C   0  0  0  0  0  0  0  0  0  0  0  0
  -22.3306    2.4390   27.0973 O   0  0  0  0  0  0  0  0  0  0  0  0
  -22.5860    1.7177   29.2096 N   0  0  0  0  0  0  0  0  0  0  0  0
  -23.6451    1.3971   30.1517 C   0  0  0  0  0  0  0  0  0  0  0  0
  1  2  2  0
  2  3  1  0
  3  4  1  0
  2  5  1  0
  4  7  1  0
  5  8  1  0
  3 10  1  0
  9 10  1  0
 10 11  1  0
  7 12  1  0
 11 12  1  0
  6 13  1  0
 13 14  1  0
 13 15  1  0
 11 16  1  0
 16 17  2  0
 16 18  1  0
  9 19  1  0
 18 19  1  0
  6  5  1  0
  8  9  1  0
M  END

$$$$
