No_334-gen_results/8p0m/2024-11-26-14-13-15/
     RDKit          3D

 26 28  0  0  0  0  0  0  0  0999 V2000
  -28.0162   -0.8135   28.8779 C   0  0  0  0  0  0  0  0  0  0  0  0
  -28.4690   -0.7850   29.8287 C   0  0  0  0  0  0  0  0  0  0  0  0
  -26.5042   -0.7777   28.8766 C   0  0  0  0  0  0  0  0  0  0  0  0
  -25.8103   -0.8531   30.1028 C   0  0  0  0  0  0  0  0  0  0  0  0
  -27.9906   -0.8916   31.2257 C   0  0  0  0  0  0  0  0  0  0  0  0
  -26.6042   -0.8676   31.2652 C   0  0  0  0  0  0  0  0  0  0  0  0
  -24.3894   -0.8049   30.1638 C   0  0  0  0  0  0  0  0  0  0  0  0
  -23.6730   -1.0587   29.2511 N   0  0  0  0  0  0  0  0  0  0  0  0
  -22.2987   -0.7318   29.2069 C   0  0  0  0  0  0  0  0  0  0  0  0
  -23.7193   -0.5756   31.4538 C   0  0  0  0  0  0  0  0  0  0  0  0
  -22.3073   -0.4272   31.5326 C   0  0  0  0  0  0  0  0  0  0  0  0
  -21.6369   -0.5322   30.2854 N   0  0  0  0  0  0  0  0  0  0  0  0
  -30.0844   -0.7829   29.8366 C   0  0  0  0  0  0  0  0  0  0  0  0
  -30.7649   -1.5970   30.2974 O   0  0  0  0  0  0  0  0  0  0  0  0
  -30.6022    0.2497   29.1412 N   0  0  0  0  0  0  0  0  0  0  0  0
  -29.9093    1.3334   28.5764 C   0  0  0  0  0  0  0  0  0  0  0  0
  -29.9929    1.8484   27.5503 C   0  0  0  0  0  0  0  0  0  0  0  0
  -29.1742    2.9416   27.0306 C   0  0  0  0  0  0  0  0  0  0  0  0
  -28.0774    3.3500   27.7844 C   0  0  0  0  0  0  0  0  0  0  0  0
  -27.8668    2.7173   29.0311 C   0  0  0  0  0  0  0  0  0  0  0  0
  -28.6932    1.7478   29.4311 C   0  0  0  0  0  0  0  0  0  0  0  0
  -26.7489    3.1910   29.8684 C   0  0  0  0  0  0  0  0  0  0  0  0
  -26.4825    2.5758   30.9782 N   0  0  0  0  0  0  0  0  0  0  0  0
  -25.3522    2.9268   31.7119 C   0  0  0  0  0  0  0  0  0  0  0  0
  -25.9614    4.1793   29.4902 N   0  0  0  0  0  0  0  0  0  0  0  0
  -25.1067    2.3759   32.9077 C   0  0  0  0  0  0  0  0  0  0  0  0
  4  7  1  0
  2 13  1  0
 13 14  2  0
 13 15  1  0
 15 16  1  0
 20 22  1  0
 22 23  1  0
 23 24  2  3
 22 25  1  0
 24 26  1  0
  1  2  2  0
  2  5  1  0
  5  6  2  0
  6  4  1  0
  4  3  2  0
  3  1  1  0
  7  8  2  0
  8  9  1  0
  9 12  2  0
 12 11  1  0
 11 10  2  0
 10  7  1  0
 16 17  2  0
 17 18  1  0
 18 19  2  0
 19 20  1  0
 20 21  2  0
 21 16  1  0
M  END

$$$$
