No_3533-gen_results/8p0m/2024-11-26-14-13-15/
     RDKit          3D

 15 16  0  0  0  0  0  0  0  0999 V2000
  -28.0162   -0.8135   28.8779 C   0  0  0  0  0  0  0  0  0  0  0  0
  -28.4690   -0.7850   29.8287 C   0  0  0  0  0  0  0  0  0  0  0  0
  -27.0871    0.2903   28.6377 C   0  0  0  0  0  0  0  0  0  0  0  0
  -26.8317    1.2487   29.5869 C   0  0  0  0  0  0  0  0  0  0  0  0
  -28.3914    0.0801   31.0065 C   0  0  0  0  0  0  0  0  0  0  0  0
  -27.4940    1.1521   30.7841 C   0  0  0  0  0  0  0  0  0  0  0  0
  -26.3172    0.3994   27.3653 C   0  0  0  0  0  0  0  0  0  0  0  0
  -25.0720    0.1570   27.4305 N   0  0  0  0  0  0  0  0  0  0  0  0
  -26.8935    0.6376   26.2796 O   0  0  0  0  0  0  0  0  0  0  0  0
  -24.2685   -0.0655   28.6293 C   0  0  0  0  0  0  0  0  0  0  0  0
  -23.9463   -1.2533   29.0440 C   0  0  0  0  0  0  0  0  0  0  0  0
  -23.0627   -1.3770   30.1392 C   0  0  0  0  0  0  0  0  0  0  0  0
  -22.6190   -0.2282   30.8019 C   0  0  0  0  0  0  0  0  0  0  0  0
  -23.7143    1.1253   29.2733 C   0  0  0  0  0  0  0  0  0  0  0  0
  -22.9347    0.9872   30.3855 C   0  0  0  0  0  0  0  0  0  0  0  0
  3  7  1  0
  7  8  1  0
  7  9  2  0
  8 10  1  0
 10 11  2  0
 11 12  1  0
 12 13  2  0
 13 15  1  0
 15 14  2  0
 14 10  1  0
  1  2  2  0
  2  5  1  0
  5  6  2  0
  6  4  1  0
  4  3  2  0
  3  1  1  0
M  END

$$$$
