No_3296-gen_results/8p0m/2024-11-26-14-13-15/
     RDKit          3D

 34 37  0  0  0  0  0  0  0  0999 V2000
  -28.0162   -0.8135   28.8779 C   0  0  0  0  0  0  0  0  0  0  0  0
  -27.0636   -0.1190   28.6079 C   0  0  0  0  0  0  0  0  0  0  0  0
  -26.9716    0.7139   27.5060 C   0  0  0  0  0  0  0  0  0  0  0  0
  -28.1053    0.7744   26.6421 C   0  0  0  0  0  0  0  0  0  0  0  0
  -29.2008    0.1044   27.0527 C   0  0  0  0  0  0  0  0  0  0  0  0
  -29.2096   -0.6029   28.1853 C   0  0  0  0  0  0  0  0  0  0  0  0
  -30.3077    0.2215   26.2218 N   0  0  0  0  0  0  0  0  0  0  0  0
  -31.0284    1.0864   26.0542 C   0  0  0  0  0  0  0  0  0  0  0  0
  -31.1128    2.1247   26.9127 C   0  0  0  0  0  0  0  0  0  0  0  0
  -31.9119    1.1072   24.8303 C   0  0  0  0  0  0  0  0  0  0  0  0
  -32.0143    3.2782   26.6847 C   0  0  0  0  0  0  0  0  0  0  0  0
  -32.7741    2.2366   24.6181 C   0  0  0  0  0  0  0  0  0  0  0  0
  -32.7902    3.2852   25.5029 C   0  0  0  0  0  0  0  0  0  0  0  0
  -30.5643   -1.1184   25.5015 C   0  0  0  0  0  0  0  0  0  0  0  0
  -30.3566   -1.2629   24.3710 O   0  0  0  0  0  0  0  0  0  0  0  0
  -31.3499   -1.9597   26.1848 O   0  0  0  0  0  0  0  0  0  0  0  0
  -25.6778   -0.2964   29.3762 C   0  0  0  0  0  0  0  0  0  0  0  0
  -24.9846    0.4111   29.8138 C   0  0  0  0  0  0  0  0  0  0  0  0
  -23.6455    0.1452   30.4105 C   0  0  0  0  0  0  0  0  0  0  0  0
  -23.2937   -1.1872   30.4428 C   0  0  0  0  0  0  0  0  0  0  0  0
  -25.2459   -1.7746   29.3879 C   0  0  0  0  0  0  0  0  0  0  0  0
  -24.0870   -2.1166   29.9111 C   0  0  0  0  0  0  0  0  0  0  0  0
  -25.2380    1.9588   29.8367 C   0  0  0  0  0  0  0  0  0  0  0  0
  -26.2419    2.5158   29.8038 N   0  0  0  0  0  0  0  0  0  0  0  0
  -26.4364    3.8466   29.7489 C   0  0  0  0  0  0  0  0  0  0  0  0
  -27.0800    4.3806   28.7187 C   0  0  0  0  0  0  0  0  0  0  0  0
  -27.6452    3.9817   27.8455 C   0  0  0  0  0  0  0  0  0  0  0  0
  -28.3720    4.6242   26.7527 C   0  0  0  0  0  0  0  0  0  0  0  0
  -28.2618    6.0420   26.7575 C   0  0  0  0  0  0  0  0  0  0  0  0
  -27.5509    6.6821   27.7248 C   0  0  0  0  0  0  0  0  0  0  0  0
  -26.9257    5.9705   28.7433 C   0  0  0  0  0  0  0  0  0  0  0  0
  -24.1631    2.6859   29.5103 O   0  0  0  0  0  0  0  0  0  0  0  0
  -26.1596    4.5276   31.0630 C   0  0  0  0  0  0  0  0  0  0  0  0
  -27.0844    4.6937   31.7849 O   0  0  0  0  0  0  0  0  0  0  0  0
  5  7  1  0
  7  8  1  0
  7 14  1  0
 14 15  2  0
 14 16  1  0
  2 17  1  0
 18 23  1  0
 23 24  1  0
 24 25  1  0
 25 26  1  0
 23 32  2  0
 25 33  1  0
 33 34  1  0
  8  9  2  0
  9 11  1  0
 11 13  2  0
 13 12  1  0
 12 10  2  0
 10  8  1  0
  1  2  2  0
  2  3  1  0
  3  4  2  0
  4  5  1  0
  5  6  2  0
  6  1  1  0
 17 18  1  0
 18 19  2  0
 19 20  1  0
 20 22  2  0
 22 21  1  0
 21 17  2  0
 26 27  2  0
 27 28  1  0
 28 29  2  0
 29 30  1  0
 30 31  2  0
 31 26  1  0
M  END

$$$$
