No_3736-gen_results/8p0m/2024-11-26-14-13-15/
     RDKit          3D

 13 14  0  0  0  0  0  0  0  0999 V2000
  -28.0162   -0.8135   28.8779 C   0  0  0  0  0  0  0  0  0  0  0  0
  -27.0636   -0.1190   28.6079 C   0  0  0  0  0  0  0  0  0  0  0  0
  -26.9716    0.7139   27.5060 C   0  0  0  0  0  0  0  0  0  0  0  0
  -25.8205    1.4909   27.1160 C   0  0  0  0  0  0  0  0  0  0  0  0
  -24.6562    1.4242   27.9180 C   0  0  0  0  0  0  0  0  0  0  0  0
  -24.6847    0.5901   29.0659 C   0  0  0  0  0  0  0  0  0  0  0  0
  -25.8099   -0.1266   29.3338 C   0  0  0  0  0  0  0  0  0  0  0  0
  -27.9662   -1.6794   30.0086 N   0  0  0  0  0  0  0  0  0  0  0  0
  -23.4753    2.1961   27.6050 C   0  0  0  0  0  0  0  0  0  0  0  0
  -22.5266    2.1721   28.4170 O   0  0  0  0  0  0  0  0  0  0  0  0
  -23.1724    2.4402   26.3196 O   0  0  0  0  0  0  0  0  0  0  0  0
  -25.7603   -1.0028   30.4704 C   0  0  0  0  0  0  0  0  0  0  0  0
  -26.8592   -1.7886   30.7760 C   0  0  0  0  0  0  0  0  0  0  0  0
  2  3  1  0
  3  4  1  0
  4  5  1  0
  5  6  1  0
  6  7  1  0
  5  9  1  0
  9 10  2  0
  9 11  1  0
  1  2  2  0
  2  7  1  0
  7 12  2  0
 12 13  1  0
 13  8  2  0
  8  1  1  0
M  END

$$$$
