No_3852-gen_results/8p0m/2024-11-26-14-13-15/
     RDKit          3D

 18 19  0  0  0  0  0  0  0  0999 V2000
  -28.0162   -0.8135   28.8779 C   0  0  0  0  0  0  0  0  0  0  0  0
  -28.4690   -0.7850   29.8287 C   0  0  0  0  0  0  0  0  0  0  0  0
  -26.5455   -0.8762   28.8500 C   0  0  0  0  0  0  0  0  0  0  0  0
  -25.8041   -1.0324   30.0571 C   0  0  0  0  0  0  0  0  0  0  0  0
  -27.9437   -0.9869   31.2075 C   0  0  0  0  0  0  0  0  0  0  0  0
  -26.5825   -1.0386   31.2231 C   0  0  0  0  0  0  0  0  0  0  0  0
  -29.9648   -0.7353   29.8902 N   0  0  0  0  0  0  0  0  0  0  0  0
  -30.6477    0.3169   30.2682 C   0  0  0  0  0  0  0  0  0  0  0  0
  -30.0738    1.3599   30.4675 C   0  0  0  0  0  0  0  0  0  0  0  0
  -30.8901    2.6109   30.8165 C   0  0  0  0  0  0  0  0  0  0  0  0
  -32.2668    2.4049   30.8221 C   0  0  0  0  0  0  0  0  0  0  0  0
  -32.0564    0.2010   30.2983 C   0  0  0  0  0  0  0  0  0  0  0  0
  -32.8165    1.2527   30.5908 C   0  0  0  0  0  0  0  0  0  0  0  0
  -30.5999   -1.9991   29.5551 C   0  0  0  0  0  0  0  0  0  0  0  0
  -30.2897   -3.0527   29.9717 O   0  0  0  0  0  0  0  0  0  0  0  0
  -31.5310   -2.0052   28.6731 O   0  0  0  0  0  0  0  0  0  0  0  0
  -25.8217   -0.8497   27.7234 F   0  0  0  0  0  0  0  0  0  0  0  0
  -34.5179    1.0741   30.6510 Cl  0  0  0  0  0  0  0  0  0  0  0  0
  2  7  1  0
  7  8  1  0
  7 14  1  0
 14 15  2  0
 14 16  1  0
  3 17  1  0
 13 18  1  0
  1  2  2  0
  2  5  1  0
  5  6  2  0
  6  4  1  0
  4  3  2  0
  3  1  1  0
  8  9  2  0
  9 10  1  0
 10 11  2  0
 11 13  1  0
 13 12  2  0
 12  8  1  0
M  END

$$$$
