No_3328-gen_results/8p0m/2024-11-26-14-13-15/
     RDKit          3D

 20 23  0  0  0  0  0  0  0  0999 V2000
  -28.0162   -0.8135   28.8779 C   0  0  0  0  0  0  0  0  0  0  0  0
  -28.4690   -0.7850   29.8287 C   0  0  0  0  0  0  0  0  0  0  0  0
  -27.0871    0.2903   28.6377 C   0  0  0  0  0  0  0  0  0  0  0  0
  -26.8317    1.2487   29.5869 C   0  0  0  0  0  0  0  0  0  0  0  0
  -28.3914    0.0801   31.0065 C   0  0  0  0  0  0  0  0  0  0  0  0
  -27.4940    1.1521   30.7841 C   0  0  0  0  0  0  0  0  0  0  0  0
  -26.2596    0.6039   27.4149 C   0  0  0  0  0  0  0  0  0  0  0  0
  -25.1967    1.0461   27.3445 C   0  0  0  0  0  0  0  0  0  0  0  0
  -24.8438    2.0437   28.4640 C   0  0  0  0  0  0  0  0  0  0  0  0
  -25.5969    2.0134   29.6123 C   0  0  0  0  0  0  0  0  0  0  0  0
  -23.7489    2.7896   28.2583 F   0  0  0  0  0  0  0  0  0  0  0  0
  -29.5012   -1.8345   30.1003 O   0  0  0  0  0  0  0  0  0  0  0  0
  -29.9400   -2.1004   31.3687 C   0  0  0  0  0  0  0  0  0  0  0  0
  -30.2429   -3.2273   31.6495 C   0  0  0  0  0  0  0  0  0  0  0  0
  -30.7328   -3.6642   32.9689 C   0  0  0  0  0  0  0  0  0  0  0  0
  -30.8061   -2.6761   33.9678 C   0  0  0  0  0  0  0  0  0  0  0  0
  -30.4161   -1.4159   33.6348 C   0  0  0  0  0  0  0  0  0  0  0  0
  -29.9482   -1.1028   32.3919 C   0  0  0  0  0  0  0  0  0  0  0  0
  -29.0962   -0.1140   32.2285 C   0  0  0  0  0  0  0  0  0  0  0  0
  -28.7904    0.6715   33.2416 O   0  0  0  0  0  0  0  0  0  0  0  0
  9 11  1  0
  2 12  1  0
 12 13  1  0
  5 19  1  0
 18 19  1  0
 19 20  2  0
  4 10  2  0
 10  9  1  0
  9  8  2  0
  8  7  1  0
  7  3  2  0
 13 14  2  0
 14 15  1  0
 15 16  2  0
 16 17  1  0
 17 18  2  0
 18 13  1  0
  1  2  2  0
  2  5  1  0
  5  6  2  0
  6  4  1  0
  4  3  1  0
  3  1  1  0
M  END

$$$$
