No_3446-gen_results/8p0m/2024-11-26-14-13-15/
     RDKit          3D

 29 31  0  0  0  0  0  0  0  0999 V2000
  -28.0162   -0.8135   28.8779 C   0  0  0  0  0  0  0  0  0  0  0  0
  -28.4690   -0.7850   29.8287 C   0  0  0  0  0  0  0  0  0  0  0  0
  -26.5042   -0.7777   28.8766 C   0  0  0  0  0  0  0  0  0  0  0  0
  -25.8103   -0.8531   30.1028 C   0  0  0  0  0  0  0  0  0  0  0  0
  -27.9906   -0.8916   31.2257 C   0  0  0  0  0  0  0  0  0  0  0  0
  -26.6042   -0.8676   31.2652 C   0  0  0  0  0  0  0  0  0  0  0  0
  -29.9385   -0.8194   29.8358 O   0  0  0  0  0  0  0  0  0  0  0  0
  -30.6978   -1.6543   30.3501 C   0  0  0  0  0  0  0  0  0  0  0  0
  -24.3665   -0.8009   30.1517 C   0  0  0  0  0  0  0  0  0  0  0  0
  -23.6883   -1.1790   30.8400 C   0  0  0  0  0  0  0  0  0  0  0  0
  -22.1768   -1.0300   30.9218 C   0  0  0  0  0  0  0  0  0  0  0  0
  -21.6963   -0.4179   29.8040 C   0  0  0  0  0  0  0  0  0  0  0  0
  -23.6765   -0.0967   29.0190 C   0  0  0  0  0  0  0  0  0  0  0  0
  -22.4273    0.1003   28.8897 C   0  0  0  0  0  0  0  0  0  0  0  0
  -21.8731    0.8277   27.7239 C   0  0  0  0  0  0  0  0  0  0  0  0
  -20.8338    1.6821   28.0180 N   0  0  0  0  0  0  0  0  0  0  0  0
  -22.7131    1.3342   26.8919 O   0  0  0  0  0  0  0  0  0  0  0  0
  -31.7143   -1.9982   29.5501 C   0  0  0  0  0  0  0  0  0  0  0  0
  -31.9309   -3.1811   29.3140 O   0  0  0  0  0  0  0  0  0  0  0  0
  -32.2548   -1.1266   28.5574 N   0  0  0  0  0  0  0  0  0  0  0  0
  -33.1294   -1.5054   27.5540 C   0  0  0  0  0  0  0  0  0  0  0  0
  -31.2545   -1.0839   31.6943 C   0  0  0  0  0  0  0  0  0  0  0  0
  -31.0644   -1.8640   32.8177 C   0  0  0  0  0  0  0  0  0  0  0  0
  -30.7208   -3.0966   32.7827 C   0  0  0  0  0  0  0  0  0  0  0  0
  -30.5996   -3.7780   31.5535 C   0  0  0  0  0  0  0  0  0  0  0  0
  -30.2174   -5.1611   31.4734 C   0  0  0  0  0  0  0  0  0  0  0  0
  -29.8974   -5.6233   30.1936 C   0  0  0  0  0  0  0  0  0  0  0  0
  -30.5227   -2.9112   30.4128 C   0  0  0  0  0  0  0  0  0  0  0  0
  -29.5234   -3.2736   29.5263 O   0  0  0  0  0  0  0  0  0  0  0  0
  2  7  1  0
  7  8  1  0
  4  9  1  0
 14 15  1  0
 15 16  1  0
 15 17  2  0
  8 18  1  0
 18 19  2  0
 18 20  1  0
 20 21  1  0
  8 22  1  0
 22 23  1  0
 24 25  1  0
 25 26  1  0
 26 27  3  0
  8 28  1  0
 25 28  1  0
 28 29  1  0
 23 24  1  0
  1  2  2  0
  2  5  1  0
  5  6  2  0
  6  4  1  0
  4  3  2  0
  3  1  1  0
  9 10  2  0
 10 11  1  0
 11 12  2  0
 12 14  1  0
 14 13  2  0
 13  9  1  0
M  END

$$$$
