No_3118-gen_results/8p0m/2024-11-26-14-13-15/
     RDKit          3D

 18 19  0  0  0  0  0  0  0  0999 V2000
  -28.0162   -0.8135   28.8779 C   0  0  0  0  0  0  0  0  0  0  0  0
  -28.4690   -0.7850   29.8287 C   0  0  0  0  0  0  0  0  0  0  0  0
  -26.5042   -0.7777   28.8766 C   0  0  0  0  0  0  0  0  0  0  0  0
  -25.8103   -0.8531   30.1028 C   0  0  0  0  0  0  0  0  0  0  0  0
  -27.9906   -0.8916   31.2257 C   0  0  0  0  0  0  0  0  0  0  0  0
  -26.6042   -0.8676   31.2652 C   0  0  0  0  0  0  0  0  0  0  0  0
  -30.0773   -0.8857   30.0240 C   0  0  0  0  0  0  0  0  0  0  0  0
  -30.6821   -0.3163   29.2532 O   0  0  0  0  0  0  0  0  0  0  0  0
  -30.6270   -1.7345   30.9655 N   0  0  0  0  0  0  0  0  0  0  0  0
  -30.0753   -2.5500   31.8680 C   0  0  0  0  0  0  0  0  0  0  0  0
  -32.1236   -1.7400   30.9230 C   0  0  0  0  0  0  0  0  0  0  0  0
  -25.7667   -0.6901   27.7825 F   0  0  0  0  0  0  0  0  0  0  0  0
  -32.6171   -2.8439   31.0786 C   0  0  0  0  0  0  0  0  0  0  0  0
  -30.7687   -3.8216   32.1959 C   0  0  0  0  0  0  0  0  0  0  0  0
  -32.1342   -3.7863   32.1062 C   0  0  0  0  0  0  0  0  0  0  0  0
  -30.0379   -4.8840   32.8790 C   0  0  0  0  0  0  0  0  0  0  0  0
  -29.6049   -4.7940   33.8883 O   0  0  0  0  0  0  0  0  0  0  0  0
  -29.9300   -5.9857   32.0749 O   0  0  0  0  0  0  0  0  0  0  0  0
  2  7  1  0
  7  8  2  0
  7  9  1  0
  9 10  1  0
  9 11  1  0
  3 12  1  0
 10 14  1  0
 13 15  1  0
 14 15  1  0
 14 16  1  0
 16 17  2  0
 16 18  1  0
 13 11  1  0
  1  2  2  0
  2  5  1  0
  5  6  2  0
  6  4  1  0
  4  3  2  0
  3  1  1  0
M  END

$$$$
