No_3091-gen_results/8p0m/2024-11-26-14-13-15/
     RDKit          3D

 16 17  0  0  0  0  0  0  0  0999 V2000
  -28.0162   -0.8135   28.8779 C   0  0  0  0  0  0  0  0  0  0  0  0
  -27.0636   -0.1189   28.6079 C   0  0  0  0  0  0  0  0  0  0  0  0
  -26.8756    1.1325   28.9134 C   0  0  0  0  0  0  0  0  0  0  0  0
  -27.9014    1.8066   29.6436 C   0  0  0  0  0  0  0  0  0  0  0  0
  -29.0458   -0.2316   29.7181 C   0  0  0  0  0  0  0  0  0  0  0  0
  -27.7521    3.2005   30.0171 C   0  0  0  0  0  0  0  0  0  0  0  0
  -28.9510    1.0411   30.0482 C   0  0  0  0  0  0  0  0  0  0  0  0
  -27.2119    3.9647   29.4058 C   0  0  0  0  0  0  0  0  0  0  0  0
  -26.8719    5.4065   29.8021 C   0  0  0  0  0  0  0  0  0  0  0  0
  -27.3548    5.7823   31.0472 C   0  0  0  0  0  0  0  0  0  0  0  0
  -28.3482    3.5414   31.3120 C   0  0  0  0  0  0  0  0  0  0  0  0
  -28.0803    4.8644   31.8152 C   0  0  0  0  0  0  0  0  0  0  0  0
  -25.7261   -0.8606   27.6603 Cl  0  0  0  0  0  0  0  0  0  0  0  0
  -26.0995    6.3385   28.9853 C   0  0  0  0  0  0  0  0  0  0  0  0
  -25.3725    7.2635   29.5592 C   0  0  0  0  0  0  0  0  0  0  0  0
  -25.7109    7.6131   30.9650 C   0  0  0  0  0  0  0  0  0  0  0  0
  4  6  1  0
  2 13  1  0
  9 14  1  0
 14 15  2  3
 15 16  1  0
  1  2  2  0
  2  3  1  0
  3  4  2  0
  4  7  1  0
  7  5  2  0
  5  1  1  0
  6  8  2  0
  8  9  1  0
  9 10  2  0
 10 12  1  0
 12 11  2  0
 11  6  1  0
M  END

$$$$
