No_3873-gen_results/8p0m/2024-11-26-14-13-15/
     RDKit          3D

 25 27  0  0  0  0  0  0  0  0999 V2000
  -28.0162   -0.8135   28.8779 C   0  0  0  0  0  0  0  0  0  0  0  0
  -28.4690   -0.7850   29.8287 C   0  0  0  0  0  0  0  0  0  0  0  0
  -27.1356    0.2359   28.5352 C   0  0  0  0  0  0  0  0  0  0  0  0
  -26.3351    0.2900   27.2835 C   0  0  0  0  0  0  0  0  0  0  0  0
  -29.3807   -1.9134   30.3549 C   0  0  0  0  0  0  0  0  0  0  0  0
  -28.2295    0.3010   30.9036 C   0  0  0  0  0  0  0  0  0  0  0  0
  -25.3800    1.2740   27.0672 C   0  0  0  0  0  0  0  0  0  0  0  0
  -27.4150    1.3108   30.6139 C   0  0  0  0  0  0  0  0  0  0  0  0
  -26.7451    1.3177   29.4039 C   0  0  0  0  0  0  0  0  0  0  0  0
  -25.1639    2.3202   27.9821 C   0  0  0  0  0  0  0  0  0  0  0  0
  -25.8103    2.3449   29.1044 C   0  0  0  0  0  0  0  0  0  0  0  0
  -29.8646   -1.8116   31.4748 O   0  0  0  0  0  0  0  0  0  0  0  0
  -29.4674   -2.9346   29.6950 O   0  0  0  0  0  0  0  0  0  0  0  0
  -24.1238    3.3345   27.5349 C   0  0  0  0  0  0  0  0  0  0  0  0
  -23.4008    3.1283   26.4655 O   0  0  0  0  0  0  0  0  0  0  0  0
  -24.4324    4.6612   27.7601 O   0  0  0  0  0  0  0  0  0  0  0  0
  -25.6734    5.1649   27.3925 C   0  0  0  0  0  0  0  0  0  0  0  0
  -25.7074    6.5239   27.8038 C   0  0  0  0  0  0  0  0  0  0  0  0
  -24.7523    7.2315   28.1392 C   0  0  0  0  0  0  0  0  0  0  0  0
  -24.7990    8.6485   28.6029 C   0  0  0  0  0  0  0  0  0  0  0  0
  -23.6868    9.3624   29.0854 C   0  0  0  0  0  0  0  0  0  0  0  0
  -23.7075   10.2194   30.1421 C   0  0  0  0  0  0  0  0  0  0  0  0
  -25.0173   10.6862   30.5135 C   0  0  0  0  0  0  0  0  0  0  0  0
  -26.1217   10.0936   30.0276 C   0  0  0  0  0  0  0  0  0  0  0  0
  -26.0694    9.0294   29.1614 C   0  0  0  0  0  0  0  0  0  0  0  0
  2  5  1  0
  5 12  2  0
  5 13  1  0
 10 14  1  0
 14 15  2  0
 14 16  1  0
 16 17  1  0
 17 18  1  0
 18 19  2  3
 19 20  1  0
  3  4  2  0
  4  7  1  0
  7 10  2  0
 10 11  1  0
 11  9  2  0
  1  2  2  0
  2  6  1  0
  6  8  2  0
  8  9  1  0
  9  3  1  0
  3  1  1  0
 20 21  2  0
 21 22  1  0
 22 23  2  0
 23 24  1  0
 24 25  2  0
 25 20  1  0
M  END

$$$$
