No_3932-gen_results/8p0m/2024-11-26-14-13-15/
     RDKit          3D

 31 33  0  0  0  0  0  0  0  0999 V2000
  -28.0162   -0.8135   28.8779 C   0  0  0  0  0  0  0  0  0  0  0  0
  -28.4690   -0.7850   29.8287 C   0  0  0  0  0  0  0  0  0  0  0  0
  -28.1816    0.4277   28.1134 C   0  0  0  0  0  0  0  0  0  0  0  0
  -27.4498    0.6435   26.8500 C   0  0  0  0  0  0  0  0  0  0  0  0
  -26.1815    0.0357   26.7145 C   0  0  0  0  0  0  0  0  0  0  0  0
  -25.7800   -0.9326   27.6938 C   0  0  0  0  0  0  0  0  0  0  0  0
  -24.4665   -1.4639   27.6888 C   0  0  0  0  0  0  0  0  0  0  0  0
  -26.6840   -1.2389   28.8057 C   0  0  0  0  0  0  0  0  0  0  0  0
  -29.6967   -0.4261   29.9652 F   0  0  0  0  0  0  0  0  0  0  0  0
  -27.8527   -0.4739   31.0352 F   0  0  0  0  0  0  0  0  0  0  0  0
  -24.1177   -2.2520   28.9207 C   0  0  0  0  0  0  0  0  0  0  0  0
  -26.0922   -2.1903   29.7145 C   0  0  0  0  0  0  0  0  0  0  0  0
  -24.9040   -2.6330   29.8748 C   0  0  0  0  0  0  0  0  0  0  0  0
  -28.7245   -2.2626   30.2591 F   0  0  0  0  0  0  0  0  0  0  0  0
  -27.8287    1.6494   25.9198 C   0  0  0  0  0  0  0  0  0  0  0  0
  -25.1467    0.4308   25.4911 Cl  0  0  0  0  0  0  0  0  0  0  0  0
  -28.5789    1.0735   24.8651 C   0  0  0  0  0  0  0  0  0  0  0  0
  -29.8661    0.7275   25.1481 C   0  0  0  0  0  0  0  0  0  0  0  0
  -30.5688    0.0328   24.1612 C   0  0  0  0  0  0  0  0  0  0  0  0
  -31.8653   -0.4352   24.4151 C   0  0  0  0  0  0  0  0  0  0  0  0
  -32.1773   -0.7176   25.3680 C   0  0  0  0  0  0  0  0  0  0  0  0
  -31.5572   -0.1738   26.6649 C   0  0  0  0  0  0  0  0  0  0  0  0
  -30.3872    0.5022   26.4717 C   0  0  0  0  0  0  0  0  0  0  0  0
  -28.0800    1.1077   23.5374 C   0  0  0  0  0  0  0  0  0  0  0  0
  -32.1214   -0.3507   27.8624 O   0  0  0  0  0  0  0  0  0  0  0  0
  -32.4440    0.7222   28.5587 C   0  0  0  0  0  0  0  0  0  0  0  0
  -33.7682    0.8993   28.8747 C   0  0  0  0  0  0  0  0  0  0  0  0
  -34.5111   -0.0480   29.1849 C   0  0  0  0  0  0  0  0  0  0  0  0
  -33.9863   -1.0482   29.9726 C   0  0  0  0  0  0  0  0  0  0  0  0
  -34.0966   -2.0179   30.2222 N   0  0  0  0  0  0  0  0  0  0  0  0
  -35.2271   -2.6655   30.1039 C   0  0  0  0  0  0  0  0  0  0  0  0
  1  2  1  0
  2  9  1  0
  2 10  1  0
  2 14  1  0
  4 15  1  0
  5 16  1  0
 15 17  1  0
 17 18  1  0
 17 24  1  0
 22 25  1  0
 25 26  1  0
 26 27  1  0
 27 28  3  0
 28 29  1  0
 29 30  2  3
 30 31  1  0
 18 19  2  0
 19 20  1  0
 20 21  2  0
 21 22  1  0
 22 23  2  0
 23 18  1  0
  1  3  2  0
  3  4  1  0
  4  5  2  0
  5  6  1  0
  8  1  1  0
  6  7  2  0
  7 11  1  0
 11 13  2  0
 13 12  1  0
 12  8  2  0
  8  6  1  0
M  END

$$$$
