No_3110-gen_results/8p0m/2024-11-26-14-13-15/
     RDKit          3D

 20 22  0  0  0  0  0  0  0  0999 V2000
  -28.0162   -0.8135   28.8779 C   0  0  0  0  0  0  0  0  0  0  0  0
  -27.0636   -0.1189   28.6079 C   0  0  0  0  0  0  0  0  0  0  0  0
  -26.9287    1.1713   29.0083 C   0  0  0  0  0  0  0  0  0  0  0  0
  -27.9560    1.7411   29.7840 C   0  0  0  0  0  0  0  0  0  0  0  0
  -29.0569   -0.3271   29.7466 C   0  0  0  0  0  0  0  0  0  0  0  0
  -28.9828    0.9722   30.1516 C   0  0  0  0  0  0  0  0  0  0  0  0
  -25.8815   -0.6260   27.7945 C   0  0  0  0  0  0  0  0  0  0  0  0
  -25.4215    0.1302   26.7096 C   0  0  0  0  0  0  0  0  0  0  0  0
  -25.4008    1.4536   26.6605 C   0  0  0  0  0  0  0  0  0  0  0  0
  -24.3949    2.0228   26.9367 C   0  0  0  0  0  0  0  0  0  0  0  0
  -24.2328    3.5142   26.8204 C   0  0  0  0  0  0  0  0  0  0  0  0
  -25.4429    4.1951   26.6004 C   0  0  0  0  0  0  0  0  0  0  0  0
  -26.4421    2.4762   26.4708 C   0  0  0  0  0  0  0  0  0  0  0  0
  -26.4455    3.6769   26.3781 C   0  0  0  0  0  0  0  0  0  0  0  0
  -27.7936    3.1709   30.2338 C   0  0  0  0  0  0  0  0  0  0  0  0
  -26.5584    3.7400   30.1776 C   0  0  0  0  0  0  0  0  0  0  0  0
  -26.3847    5.0800   30.6312 C   0  0  0  0  0  0  0  0  0  0  0  0
  -27.4216    5.8588   30.9294 C   0  0  0  0  0  0  0  0  0  0  0  0
  -28.6942    5.2742   30.9484 C   0  0  0  0  0  0  0  0  0  0  0  0
  -28.8886    3.9481   30.5990 C   0  0  0  0  0  0  0  0  0  0  0  0
  2  7  1  0
  7  8  2  3
  8  9  1  0
  4 15  1  0
 15 16  2  0
 16 17  1  0
 17 18  2  0
 18 19  1  0
 19 20  2  0
 20 15  1  0
  1  2  2  0
  2  3  1  0
  3  4  2  0
  4  6  1  0
  6  5  2  0
  5  1  1  0
  9 10  2  0
 10 11  1  0
 11 12  2  0
 12 14  1  0
 14 13  2  0
 13  9  1  0
M  END

$$$$
