No_3088-gen_results/8p0m/2024-11-26-14-13-15/
     RDKit          3D

 23 24  0  0  0  0  0  0  0  0999 V2000
  -28.0162   -0.8135   28.8779 C   0  0  0  0  0  0  0  0  0  0  0  0
  -27.0636   -0.1189   28.6079 C   0  0  0  0  0  0  0  0  0  0  0  0
  -26.9716    0.7139   27.5060 C   0  0  0  0  0  0  0  0  0  0  0  0
  -25.8205    1.4909   27.1160 C   0  0  0  0  0  0  0  0  0  0  0  0
  -24.6562    1.4242   27.9180 C   0  0  0  0  0  0  0  0  0  0  0  0
  -24.6847    0.5901   29.0659 C   0  0  0  0  0  0  0  0  0  0  0  0
  -25.8099   -0.1265   29.3338 C   0  0  0  0  0  0  0  0  0  0  0  0
  -28.7093   -0.4588   30.1754 C   0  0  0  0  0  0  0  0  0  0  0  0
  -28.6701    0.3803   30.7522 O   0  0  0  0  0  0  0  0  0  0  0  0
  -29.1715   -1.6919   30.7342 O   0  0  0  0  0  0  0  0  0  0  0  0
  -23.4688    2.2085   27.6043 C   0  0  0  0  0  0  0  0  0  0  0  0
  -22.5672    2.2307   28.4770 O   0  0  0  0  0  0  0  0  0  0  0  0
  -23.3292    2.7665   26.4703 O   0  0  0  0  0  0  0  0  0  0  0  0
  -28.0765    0.8022   26.5510 C   0  0  0  0  0  0  0  0  0  0  0  0
  -27.9350    0.6857   25.2422 C   0  0  0  0  0  0  0  0  0  0  0  0
  -28.9658    0.6655   24.3160 C   0  0  0  0  0  0  0  0  0  0  0  0
  -29.9987    0.5487   24.6310 C   0  0  0  0  0  0  0  0  0  0  0  0
  -30.4366    0.5864   26.0527 C   0  0  0  0  0  0  0  0  0  0  0  0
  -29.4332    0.6912   27.0311 C   0  0  0  0  0  0  0  0  0  0  0  0
  -32.0696    0.5095   26.5307 Cl  0  0  0  0  0  0  0  0  0  0  0  0
  -30.4289   -1.6411   31.2990 C   0  0  0  0  0  0  0  0  0  0  0  0
  -31.1045   -0.8743   31.6412 C   0  0  0  0  0  0  0  0  0  0  0  0
  -32.4272   -0.9498   32.1817 C   0  0  0  0  0  0  0  0  0  0  0  0
  1  2  2  3
  2  3  1  0
  3  4  1  0
  4  5  1  0
  5  6  1  0
  2  7  1  0
  6  7  1  0
  1  8  1  0
  8  9  2  0
  8 10  1  0
  5 11  1  0
 11 12  2  0
 11 13  1  0
  3 14  1  0
 18 20  1  0
 10 21  1  0
 21 22  2  3
 22 23  1  0
 14 15  2  0
 15 16  1  0
 16 17  2  0
 17 18  1  0
 18 19  2  0
 19 14  1  0
M  END

$$$$
