No_3024-gen_results/8p0m/2024-11-26-14-13-15/
     RDKit          3D

 30 32  0  0  0  0  0  0  0  0999 V2000
  -28.0544   -1.0498   28.7246 N   0  0  0  0  0  0  0  0  0  0  0  0
  -27.7460   -0.0733   29.0098 C   0  0  0  0  0  0  0  0  0  0  0  0
  -27.1741    0.7325   28.8254 C   0  0  0  0  0  0  0  0  0  0  0  0
  -26.2627    0.6359   27.6462 C   0  0  0  0  0  0  0  0  0  0  0  0
  -25.3895    1.6452   27.1833 C   0  0  0  0  0  0  0  0  0  0  0  0
  -24.3997    1.3753   26.2518 C   0  0  0  0  0  0  0  0  0  0  0  0
  -23.4295    2.3609   25.9489 C   0  0  0  0  0  0  0  0  0  0  0  0
  -23.6587    3.6591   26.4893 C   0  0  0  0  0  0  0  0  0  0  0  0
  -25.3226    3.0224   27.6532 C   0  0  0  0  0  0  0  0  0  0  0  0
  -24.5552    3.9768   27.2726 C   0  0  0  0  0  0  0  0  0  0  0  0
  -28.7529   -1.9312   29.5164 C   0  0  0  0  0  0  0  0  0  0  0  0
  -29.1074   -1.5139   30.5353 C   0  0  0  0  0  0  0  0  0  0  0  0
  -28.4476   -0.1647   30.5059 C   0  0  0  0  0  0  0  0  0  0  0  0
  -29.8723   -1.9950   31.6885 C   0  0  0  0  0  0  0  0  0  0  0  0
  -29.8262   -1.6272   32.7616 O   0  0  0  0  0  0  0  0  0  0  0  0
  -30.6650   -3.0905   31.3435 N   0  0  0  0  0  0  0  0  0  0  0  0
  -30.8731   -3.6073   30.1216 C   0  0  0  0  0  0  0  0  0  0  0  0
  -31.9621   -4.4017   30.1103 C   0  0  0  0  0  0  0  0  0  0  0  0
  -32.2120   -5.1934   30.9538 C   0  0  0  0  0  0  0  0  0  0  0  0
  -31.8148   -4.9157   32.3582 C   0  0  0  0  0  0  0  0  0  0  0  0
  -31.0851   -3.8189   32.5374 C   0  0  0  0  0  0  0  0  0  0  0  0
  -27.0657    0.3193   26.3844 C   0  0  0  0  0  0  0  0  0  0  0  0
  -25.2427   -0.5900   27.8904 C   0  0  0  0  0  0  0  0  0  0  0  0
  -28.2274    0.8337   26.3036 N   0  0  0  0  0  0  0  0  0  0  0  0
  -28.6167    1.6518   25.5883 C   0  0  0  0  0  0  0  0  0  0  0  0
  -29.9645    2.1308   25.5571 C   0  0  0  0  0  0  0  0  0  0  0  0
  -30.3591    3.2184   25.4544 C   0  0  0  0  0  0  0  0  0  0  0  0
  -31.7326    3.6526   25.4971 C   0  0  0  0  0  0  0  0  0  0  0  0
  -32.6523    2.7045   25.5821 C   0  0  0  0  0  0  0  0  0  0  0  0
  -32.2997    1.4239   25.6725 C   0  0  0  0  0  0  0  0  0  0  0  0
  1  2  1  0
  2  3  2  3
  3  4  1  0
  4  5  1  0
  1 11  2  0
 11 12  1  0
  2 13  1  0
 12 13  1  0
 12 14  1  0
 14 15  2  0
 14 16  1  0
 16 17  1  0
 18 19  1  0
 16 21  1  0
 20 21  1  0
  4 22  1  0
  4 23  1  0
 22 24  1  0
 24 25  1  0
 25 26  2  3
 26 27  1  0
 27 28  2  3
 28 29  1  0
 29 30  2  0
 17 18  1  0
 19 20  1  0
  5  6  2  0
  6  7  1  0
  7  8  2  0
  8 10  1  0
 10  9  2  0
  9  5  1  0
M  END

$$$$
