No_328-gen_results/8p0m/2024-11-26-14-13-15/
     RDKit          3D

 11 10  0  0  0  0  0  0  0  0999 V2000
  -28.0727   -1.2542   28.5316 F   0  0  0  0  0  0  0  0  0  0  0  0
  -27.3591   -0.3792   28.7224 C   0  0  0  0  0  0  0  0  0  0  0  0
  -26.3180   -0.6608   29.1159 F   0  0  0  0  0  0  0  0  0  0  0  0
  -27.9301    0.6892   29.6024 C   0  0  0  0  0  0  0  0  0  0  0  0
  -27.1711    0.2908   27.2968 C   0  0  0  0  0  0  0  0  0  0  0  0
  -27.8424    0.4568   30.7825 N   0  0  0  0  0  0  0  0  0  0  0  0
  -28.1671    0.6116   26.4881 C   0  0  0  0  0  0  0  0  0  0  0  0
  -25.7867    0.5066   26.8205 C   0  0  0  0  0  0  0  0  0  0  0  0
  -24.6728    0.3021   27.6311 C   0  0  0  0  0  0  0  0  0  0  0  0
  -24.4954    0.2025   28.7010 C   0  0  0  0  0  0  0  0  0  0  0  0
  -22.9850    0.3966   29.2336 C   0  0  0  0  0  0  0  0  0  0  0  0
  1  2  1  0
  2  3  1  0
  2  4  1  0
  2  5  1  0
  4  6  1  0
  5  7  1  0
  5  8  1  0
  8  9  1  0
  9 10  2  3
 10 11  1  0
M  END

$$$$
