No_3746-gen_results/8p0m/2024-11-26-14-13-15/
     RDKit          3D

 20 21  0  0  0  0  0  0  0  0999 V2000
  -28.0162   -0.8135   28.8779 C   0  0  0  0  0  0  0  0  0  0  0  0
  -28.4690   -0.7850   29.8287 C   0  0  0  0  0  0  0  0  0  0  0  0
  -26.5042   -0.7777   28.8766 C   0  0  0  0  0  0  0  0  0  0  0  0
  -25.8103   -0.8531   30.1028 C   0  0  0  0  0  0  0  0  0  0  0  0
  -27.9906   -0.8916   31.2257 C   0  0  0  0  0  0  0  0  0  0  0  0
  -26.6042   -0.8676   31.2652 C   0  0  0  0  0  0  0  0  0  0  0  0
  -29.9203   -0.8331   29.8239 F   0  0  0  0  0  0  0  0  0  0  0  0
  -24.4637   -0.7983   30.1309 N   0  0  0  0  0  0  0  0  0  0  0  0
  -23.7048   -1.4231   30.4490 C   0  0  0  0  0  0  0  0  0  0  0  0
  -23.9085    0.4616   29.5169 C   0  0  0  0  0  0  0  0  0  0  0  0
  -22.5627    0.4432   29.3001 C   0  0  0  0  0  0  0  0  0  0  0  0
  -22.3454   -1.4968   30.4754 N   0  0  0  0  0  0  0  0  0  0  0  0
  -21.7601   -0.5220   29.8591 C   0  0  0  0  0  0  0  0  0  0  0  0
  -25.6950   -0.7215   27.6485 C   0  0  0  0  0  0  0  0  0  0  0  0
  -26.3848   -0.1615   26.6777 F   0  0  0  0  0  0  0  0  0  0  0  0
  -24.6045    0.0482   27.8661 F   0  0  0  0  0  0  0  0  0  0  0  0
  -24.5221    1.7190   29.9744 C   0  0  0  0  0  0  0  0  0  0  0  0
  -24.5818    2.0883   31.0999 O   0  0  0  0  0  0  0  0  0  0  0  0
  -24.8022    2.6058   29.0231 F   0  0  0  0  0  0  0  0  0  0  0  0
  -25.1159   -1.8366   27.3819 F   0  0  0  0  0  0  0  0  0  0  0  0
  2  7  1  0
  4  8  1  0
  8  9  1  0
  8 10  1  0
 11 13  1  0
 12 13  1  0
  3 14  1  0
 14 15  1  0
 14 16  1  0
 10 17  1  0
 17 18  2  0
 17 19  1  0
 14 20  1  0
  9 12  1  0
 11 10  1  0
  1  2  2  0
  2  5  1  0
  5  6  2  0
  6  4  1  0
  4  3  2  0
  3  1  1  0
M  END

$$$$
