No_3132-gen_results/8p0m/2024-11-26-14-13-15/
     RDKit          3D

 11 11  0  0  0  0  0  0  0  0999 V2000
  -28.0162   -0.8135   28.8779 C   0  0  0  0  0  0  0  0  0  0  0  0
  -28.4690   -0.7850   29.8287 C   0  0  0  0  0  0  0  0  0  0  0  0
  -26.5042   -0.7777   28.8766 C   0  0  0  0  0  0  0  0  0  0  0  0
  -25.8305   -1.6807   29.6849 C   0  0  0  0  0  0  0  0  0  0  0  0
  -28.1490   -1.8854   30.9031 C   0  0  0  0  0  0  0  0  0  0  0  0
  -27.3123   -2.7414   30.4277 C   0  0  0  0  0  0  0  0  0  0  0  0
  -25.6051   -0.0615   28.0354 C   0  0  0  0  0  0  0  0  0  0  0  0
  -25.9364    0.6274   26.9572 C   0  0  0  0  0  0  0  0  0  0  0  0
  -25.0203    1.3085   26.1559 C   0  0  0  0  0  0  0  0  0  0  0  0
  -23.6853    1.4646   26.5922 C   0  0  0  0  0  0  0  0  0  0  0  0
  -23.2850    0.8645   27.7799 C   0  0  0  0  0  0  0  0  0  0  0  0
  1  2  1  0
  1  3  1  0
  3  4  1  0
  2  5  1  0
  4  6  1  0
  5  6  1  0
  3  7  1  0
  7  8  2  3
  8  9  1  0
  9 10  2  3
 10 11  1  0
M  END

$$$$
