No_3340-gen_results/8p0m/2024-11-26-14-13-15/
     RDKit          3D

 32 34  0  0  0  0  0  0  0  0999 V2000
  -28.0162   -0.8135   28.8779 C   0  0  0  0  0  0  0  0  0  0  0  0
  -28.4690   -0.7850   29.8287 C   0  0  0  0  0  0  0  0  0  0  0  0
  -28.1816    0.4277   28.1134 C   0  0  0  0  0  0  0  0  0  0  0  0
  -28.9841    1.4155   28.5154 C   0  0  0  0  0  0  0  0  0  0  0  0
  -29.3802    0.1384   30.4612 C   0  0  0  0  0  0  0  0  0  0  0  0
  -29.5415    1.2736   29.7242 C   0  0  0  0  0  0  0  0  0  0  0  0
  -27.4586    0.4934   26.7701 C   0  0  0  0  0  0  0  0  0  0  0  0
  -27.9200    0.7178   25.7507 C   0  0  0  0  0  0  0  0  0  0  0  0
  -27.1380    0.6887   24.4860 C   0  0  0  0  0  0  0  0  0  0  0  0
  -26.0297    0.2238   26.8233 C   0  0  0  0  0  0  0  0  0  0  0  0
  -25.1759    0.2962   25.7593 C   0  0  0  0  0  0  0  0  0  0  0  0
  -25.7788    0.4907   24.5616 C   0  0  0  0  0  0  0  0  0  0  0  0
  -29.2194    0.8994   25.4857 F   0  0  0  0  0  0  0  0  0  0  0  0
  -28.2904   -2.1182   30.7619 C   0  0  0  0  0  0  0  0  0  0  0  0
  -28.8478   -3.0120   30.0358 F   0  0  0  0  0  0  0  0  0  0  0  0
  -27.1474   -2.2956   31.2386 F   0  0  0  0  0  0  0  0  0  0  0  0
  -29.0884   -2.0143   31.9066 F   0  0  0  0  0  0  0  0  0  0  0  0
  -30.3852    2.2220   30.1924 F   0  0  0  0  0  0  0  0  0  0  0  0
  -25.3465    0.0216   28.0686 O   0  0  0  0  0  0  0  0  0  0  0  0
  -24.5698    1.0027   28.6607 C   0  0  0  0  0  0  0  0  0  0  0  0
  -23.3800    0.4889   29.0079 C   0  0  0  0  0  0  0  0  0  0  0  0
  -23.1038   -0.0864   30.2454 C   0  0  0  0  0  0  0  0  0  0  0  0
  -22.1753    1.5358   28.7317 C   0  0  0  0  0  0  0  0  0  0  0  0
  -24.6614    2.2721   28.0501 N   0  0  0  0  0  0  0  0  0  0  0  0
  -21.5454    1.2960   27.4552 O   0  0  0  0  0  0  0  0  0  0  0  0
  -25.5063    3.3194   28.5527 C   0  0  0  0  0  0  0  0  0  0  0  0
  -25.4580    4.5492   27.8311 C   0  0  0  0  0  0  0  0  0  0  0  0
  -24.0580    2.6762   26.9125 C   0  0  0  0  0  0  0  0  0  0  0  0
  -24.2076    3.8581   26.2016 C   0  0  0  0  0  0  0  0  0  0  0  0
  -24.9059    4.8276   26.7247 C   0  0  0  0  0  0  0  0  0  0  0  0
  -23.2410    0.4071   31.1994 O   0  0  0  0  0  0  0  0  0  0  0  0
  -22.8101   -1.4061   30.1974 O   0  0  0  0  0  0  0  0  0  0  0  0
  3  7  1  0
  8 13  1  0
  2 14  1  0
 14 15  1  0
 14 16  1  0
 14 17  1  0
  6 18  1  0
 10 19  1  0
 19 20  1  0
 20 21  1  0
 21 22  1  0
 21 23  1  0
 20 24  1  0
 23 25  1  0
 24 26  1  0
 24 28  1  0
 27 30  1  0
 29 30  1  0
 22 31  2  0
 22 32  1  0
 26 27  1  0
 29 28  1  0
  1  2  2  0
  2  5  1  0
  5  6  2  0
  6  4  1  0
  4  3  2  0
  3  1  1  0
  7  8  2  0
  8  9  1  0
  9 12  2  0
 12 11  1  0
 11 10  2  0
 10  7  1  0
M  END

$$$$
