No_3050-gen_results/8p0m/2024-11-26-14-13-15/
     RDKit          3D

 13 14  0  0  0  0  0  0  0  0999 V2000
  -28.0162   -0.8135   28.8779 C   0  0  0  0  0  0  0  0  0  0  0  0
  -27.0636   -0.1190   28.6079 C   0  0  0  0  0  0  0  0  0  0  0  0
  -26.9287    1.1713   29.0083 C   0  0  0  0  0  0  0  0  0  0  0  0
  -27.9560    1.7411   29.7840 C   0  0  0  0  0  0  0  0  0  0  0  0
  -29.0569   -0.3271   29.7466 C   0  0  0  0  0  0  0  0  0  0  0  0
  -28.9828    0.9722   30.1516 C   0  0  0  0  0  0  0  0  0  0  0  0
  -25.8907   -0.6263   27.7857 C   0  0  0  0  0  0  0  0  0  0  0  0
  -24.5686   -0.1994   28.1996 C   0  0  0  0  0  0  0  0  0  0  0  0
  -24.3830    1.1808   28.3462 C   0  0  0  0  0  0  0  0  0  0  0  0
  -23.0980    1.7976   28.4856 C   0  0  0  0  0  0  0  0  0  0  0  0
  -25.6220    1.9669   28.8660 C   0  0  0  0  0  0  0  0  0  0  0  0
  -22.5912    2.5683   28.8872 O   0  0  0  0  0  0  0  0  0  0  0  0
  -22.2303    1.1331   27.4070 O   0  0  0  0  0  0  0  0  0  0  0  0
  9 10  1  0
 10 12  2  0
 10 13  1  0
  3 11  1  0
 11  9  2  0
  9  8  1  0
  8  7  2  0
  7  2  1  0
  1  2  2  0
  2  3  1  0
  3  4  2  0
  4  6  1  0
  6  5  2  0
  5  1  1  0
M  END

$$$$
