No_3113-gen_results/8p0m/2024-11-26-14-13-15/
     RDKit          3D

 20 22  0  0  0  0  0  0  0  0999 V2000
  -28.0162   -0.8135   28.8779 C   0  0  0  0  0  0  0  0  0  0  0  0
  -27.0636   -0.1189   28.6079 C   0  0  0  0  0  0  0  0  0  0  0  0
  -25.7647   -0.3897   29.0360 C   0  0  0  0  0  0  0  0  0  0  0  0
  -25.5296   -1.5302   29.9014 C   0  0  0  0  0  0  0  0  0  0  0  0
  -26.6577   -2.2915   30.2035 C   0  0  0  0  0  0  0  0  0  0  0  0
  -27.8548   -1.9555   29.7630 C   0  0  0  0  0  0  0  0  0  0  0  0
  -24.5441    0.4126   28.7379 C   0  0  0  0  0  0  0  0  0  0  0  0
  -23.3231    0.0476   29.0499 C   0  0  0  0  0  0  0  0  0  0  0  0
  -22.1997    0.8411   28.7194 C   0  0  0  0  0  0  0  0  0  0  0  0
  -22.3632    1.8394   27.7172 C   0  0  0  0  0  0  0  0  0  0  0  0
  -24.6043    1.5165   27.8119 C   0  0  0  0  0  0  0  0  0  0  0  0
  -25.9335    1.8655   27.2908 C   0  0  0  0  0  0  0  0  0  0  0  0
  -23.5213    2.2253   27.3306 C   0  0  0  0  0  0  0  0  0  0  0  0
  -27.1566    1.0708   27.6664 C   0  0  0  0  0  0  0  0  0  0  0  0
  -28.4047    1.4113   27.0982 C   0  0  0  0  0  0  0  0  0  0  0  0
  -26.1032    3.0452   26.5044 C   0  0  0  0  0  0  0  0  0  0  0  0
  -29.0427    2.4017   27.8156 C   0  0  0  0  0  0  0  0  0  0  0  0
  -28.9714    2.8819   28.7755 C   0  0  0  0  0  0  0  0  0  0  0  0
  -29.2745    3.6449   29.6221 C   0  0  0  0  0  0  0  0  0  0  0  0
  -30.3059    4.3470   29.3379 F   0  0  0  0  0  0  0  0  0  0  0  0
 14 15  1  0
 12 16  1  0
 15 17  1  0
 17 18  1  0
 18 19  3  0
 19 20  1  0
  1  2  2  0
  3  4  2  0
  4  5  1  0
  5  6  2  0
  6  1  1  0
  2  3  1  0
  3  7  1  0
 11 12  1  0
 12 14  2  0
 14  2  1  0
  7  8  2  0
  8  9  1  0
  9 10  2  0
 10 13  1  0
 13 11  2  0
 11  7  1  0
M  END

$$$$
