No_3743-gen_results/8p0m/2024-11-26-14-13-15/
     RDKit          3D

 13 14  0  0  0  0  0  0  0  0999 V2000
  -28.0162   -0.8135   28.8779 C   0  0  0  0  0  0  0  0  0  0  0  0
  -28.4690   -0.7850   29.8287 C   0  0  0  0  0  0  0  0  0  0  0  0
  -27.1356    0.2359   28.5352 C   0  0  0  0  0  0  0  0  0  0  0  0
  -26.3351    0.2900   27.2835 C   0  0  0  0  0  0  0  0  0  0  0  0
  -28.3692    0.1957   30.9236 C   0  0  0  0  0  0  0  0  0  0  0  0
  -27.5158    1.2655   30.6540 C   0  0  0  0  0  0  0  0  0  0  0  0
  -26.8411    1.2942   29.4761 C   0  0  0  0  0  0  0  0  0  0  0  0
  -25.3612    0.7750   26.9673 C   0  0  0  0  0  0  0  0  0  0  0  0
  -24.8301    1.7668   28.0169 C   0  0  0  0  0  0  0  0  0  0  0  0
  -25.5666    2.0014   29.2021 C   0  0  0  0  0  0  0  0  0  0  0  0
  -23.6075    2.5923   27.6644 C   0  0  0  0  0  0  0  0  0  0  0  0
  -22.9615    2.4000   26.5979 O   0  0  0  0  0  0  0  0  0  0  0  0
  -23.0855    3.3027   28.5431 O   0  0  0  0  0  0  0  0  0  0  0  0
  9 11  1  0
 11 12  2  0
 11 13  1  0
  1  2  2  0
  2  5  1  0
  5  6  2  0
  6  7  1  0
  3  1  1  0
  3  4  2  0
  4  8  1  0
  8  9  2  0
  9 10  1  0
 10  7  2  0
  7  3  1  0
M  END

$$$$
