No_3761-gen_results/8p0m/2024-11-26-14-13-15/
     RDKit          3D

 18 20  0  0  0  0  0  0  0  0999 V2000
  -28.1229   -1.3353   28.4874 O   0  0  0  0  0  0  0  0  0  0  0  0
  -27.0637   -0.8242   28.8687 C   0  0  0  0  0  0  0  0  0  0  0  0
  -26.4017   -0.0623   28.6224 C   0  0  0  0  0  0  0  0  0  0  0  0
  -26.3805   -1.7991   29.9619 N   0  0  0  0  0  0  0  0  0  0  0  0
  -25.0334    0.3743   29.0484 C   0  0  0  0  0  0  0  0  0  0  0  0
  -24.1925    1.4363   28.6630 C   0  0  0  0  0  0  0  0  0  0  0  0
  -22.8826    1.5895   29.1452 C   0  0  0  0  0  0  0  0  0  0  0  0
  -22.3864    0.4912   29.8565 C   0  0  0  0  0  0  0  0  0  0  0  0
  -23.0976   -0.6325   30.1858 C   0  0  0  0  0  0  0  0  0  0  0  0
  -24.3666   -0.7298   29.7569 C   0  0  0  0  0  0  0  0  0  0  0  0
  -25.1740   -1.8020   30.2702 C   0  0  0  0  0  0  0  0  0  0  0  0
  -26.6984    0.9310   27.4371 C   0  0  0  0  0  0  0  0  0  0  0  0
  -26.4084    0.5957   26.1418 C   0  0  0  0  0  0  0  0  0  0  0  0
  -27.5510    1.9676   27.7151 C   0  0  0  0  0  0  0  0  0  0  0  0
  -26.9856    1.1558   25.0311 C   0  0  0  0  0  0  0  0  0  0  0  0
  -28.1277    2.6794   26.6362 C   0  0  0  0  0  0  0  0  0  0  0  0
  -27.8305    2.3126   25.2834 C   0  0  0  0  0  0  0  0  0  0  0  0
  -24.6774    2.5049   27.9789 O   0  0  0  0  0  0  0  0  0  0  0  0
  1  2  2  0
  2  3  1  0
  2  4  1  0
  5  6  1  0
  6  7  1  0
  8  9  1  0
  5 10  1  0
  4 11  1  0
 10 11  1  0
  3 12  1  0
  6 18  2  0
  3  5  1  0
 10  9  1  0
  8  7  1  0
 12 13  2  0
 13 15  1  0
 15 17  2  0
 17 16  1  0
 16 14  2  0
 14 12  1  0
M  END

$$$$
