No_3812-gen_results/8p0m/2024-11-26-14-13-15/
     RDKit          3D

 33 35  0  0  0  0  0  0  0  0999 V2000
  -28.0162   -0.8135   28.8779 C   0  0  0  0  0  0  0  0  0  0  0  0
  -28.4690   -0.7850   29.8287 C   0  0  0  0  0  0  0  0  0  0  0  0
  -26.5455   -0.8762   28.8500 C   0  0  0  0  0  0  0  0  0  0  0  0
  -25.6825   -0.7773   27.6829 C   0  0  0  0  0  0  0  0  0  0  0  0
  -27.9181   -1.0034   31.1877 C   0  0  0  0  0  0  0  0  0  0  0  0
  -26.5308   -1.0794   31.2463 C   0  0  0  0  0  0  0  0  0  0  0  0
  -25.7798   -1.0462   30.0905 C   0  0  0  0  0  0  0  0  0  0  0  0
  -24.3676   -0.2501   27.7918 C   0  0  0  0  0  0  0  0  0  0  0  0
  -23.6808   -0.4762   29.0175 C   0  0  0  0  0  0  0  0  0  0  0  0
  -24.3913   -1.0668   30.2352 C   0  0  0  0  0  0  0  0  0  0  0  0
  -22.1994   -0.2524   29.0837 C   0  0  0  0  0  0  0  0  0  0  0  0
  -21.7137    0.7870   28.4007 N   0  0  0  0  0  0  0  0  0  0  0  0
  -21.4788   -0.9682   29.7488 O   0  0  0  0  0  0  0  0  0  0  0  0
  -20.2791    1.1694   28.2476 C   0  0  0  0  0  0  0  0  0  0  0  0
  -30.0663   -0.7781   29.9240 C   0  0  0  0  0  0  0  0  0  0  0  0
  -30.6543    0.0461   30.7052 O   0  0  0  0  0  0  0  0  0  0  0  0
  -30.6914   -1.4684   29.1279 O   0  0  0  0  0  0  0  0  0  0  0  0
  -22.6060    1.7695   27.6599 C   0  0  0  0  0  0  0  0  0  0  0  0
  -23.2887    2.7008   28.4554 C   0  0  0  0  0  0  0  0  0  0  0  0
  -24.3528    3.4564   27.8992 C   0  0  0  0  0  0  0  0  0  0  0  0
  -24.5448    3.4048   26.4960 C   0  0  0  0  0  0  0  0  0  0  0  0
  -23.6701    2.5841   25.7288 C   0  0  0  0  0  0  0  0  0  0  0  0
  -22.7816    1.7443   26.3405 C   0  0  0  0  0  0  0  0  0  0  0  0
  -25.1719    4.4236   28.6299 C   0  0  0  0  0  0  0  0  0  0  0  0
  -25.5879    5.4086   28.2130 O   0  0  0  0  0  0  0  0  0  0  0  0
  -25.5278    3.9827   29.8442 O   0  0  0  0  0  0  0  0  0  0  0  0
  -26.7742    4.0412   30.3076 C   0  0  0  0  0  0  0  0  0  0  0  0
  -27.0925    2.9383   31.1445 C   0  0  0  0  0  0  0  0  0  0  0  0
  -28.3255    2.5344   31.0673 O   0  0  0  0  0  0  0  0  0  0  0  0
  -26.2978    2.3423   31.8839 O   0  0  0  0  0  0  0  0  0  0  0  0
  -26.5957    2.1025   33.2492 C   0  0  0  0  0  0  0  0  0  0  0  0
  -27.8135    1.7010   33.5391 C   0  0  0  0  0  0  0  0  0  0  0  0
  -29.2921    2.3571   32.9159 Br  0  0  0  0  0  0  0  0  0  0  0  0
  9 11  1  0
 11 12  1  0
 11 13  2  0
 12 14  1  0
  2 15  1  0
 15 16  2  0
 15 17  1  0
 12 18  1  0
 20 24  1  0
 24 25  2  0
 24 26  1  0
 26 27  1  0
 27 28  1  0
 28 29  2  0
 28 30  1  0
 30 31  1  0
 31 32  1  0
 32 33  1  0
 18 19  2  0
 19 20  1  0
 20 21  2  0
 21 22  1  0
 22 23  2  0
 23 18  1  0
  1  2  2  0
  2  5  1  0
  5  6  2  0
  6  7  1  0
  3  1  1  0
  3  4  2  0
  4  8  1  0
  8  9  2  0
  9 10  1  0
 10  7  2  0
  7  3  1  0
M  END

$$$$
