No_3441-gen_results/8p0m/2024-11-26-14-13-15/
     RDKit          3D

 13 13  0  0  0  0  0  0  0  0999 V2000
  -28.1229   -1.3353   28.4874 O   0  0  0  0  0  0  0  0  0  0  0  0
  -27.4806   -0.4044   28.7094 C   0  0  0  0  0  0  0  0  0  0  0  0
  -27.1904    0.2460   29.5268 C   0  0  0  0  0  0  0  0  0  0  0  0
  -26.7282   -0.1238   27.4073 F   0  0  0  0  0  0  0  0  0  0  0  0
  -26.2623    1.3699   29.6678 C   0  0  0  0  0  0  0  0  0  0  0  0
  -25.9232    2.1331   30.6673 C   0  0  0  0  0  0  0  0  0  0  0  0
  -26.4835    1.7867   31.9470 C   0  0  0  0  0  0  0  0  0  0  0  0
  -27.3434    0.7022   31.9954 C   0  0  0  0  0  0  0  0  0  0  0  0
  -27.6341   -0.0418   30.9649 C   0  0  0  0  0  0  0  0  0  0  0  0
  -24.8488    3.4345   30.5964 Cl  0  0  0  0  0  0  0  0  0  0  0  0
  -27.8855    0.3730   33.3791 C   0  0  0  0  0  0  0  0  0  0  0  0
  -28.6320   -0.3806   33.5275 O   0  0  0  0  0  0  0  0  0  0  0  0
  -27.6025    1.3011   34.3145 O   0  0  0  0  0  0  0  0  0  0  0  0
  1  2  2  0
  2  3  1  0
  2  4  1  0
  6 10  1  0
  8 11  1  0
 11 12  2  0
 11 13  1  0
  3  5  2  0
  5  6  1  0
  6  7  2  0
  7  8  1  0
  8  9  2  0
  9  3  1  0
M  END

$$$$
