No_3696-gen_results/8p0m/2024-11-26-14-13-15/
     RDKit          3D

 13 13  0  0  0  0  0  0  0  0999 V2000
  -28.0162   -0.8135   28.8779 C   0  0  0  0  0  0  0  0  0  0  0  0
  -28.4690   -0.7850   29.8287 C   0  0  0  0  0  0  0  0  0  0  0  0
  -27.0871    0.2903   28.6377 C   0  0  0  0  0  0  0  0  0  0  0  0
  -26.8317    1.2487   29.5869 C   0  0  0  0  0  0  0  0  0  0  0  0
  -28.3914    0.0801   31.0065 C   0  0  0  0  0  0  0  0  0  0  0  0
  -27.4940    1.1521   30.7841 C   0  0  0  0  0  0  0  0  0  0  0  0
  -26.3109    0.3918   27.3640 C   0  0  0  0  0  0  0  0  0  0  0  0
  -26.9409    0.7578   26.1764 Cl  0  0  0  0  0  0  0  0  0  0  0  0
  -24.8951    0.0885   27.4901 C   0  0  0  0  0  0  0  0  0  0  0  0
  -24.3580   -0.8091   28.3342 C   0  0  0  0  0  0  0  0  0  0  0  0
  -22.9415   -0.7997   28.5922 C   0  0  0  0  0  0  0  0  0  0  0  0
  -22.2048    0.3511   28.1674 C   0  0  0  0  0  0  0  0  0  0  0  0
  -22.8376    1.3689   27.4115 C   0  0  0  0  0  0  0  0  0  0  0  0
  3  7  1  0
  7  8  1  0
  7  9  1  0
  9 10  2  3
 10 11  1  0
 11 12  2  3
 12 13  1  0
  1  2  2  0
  2  5  1  0
  5  6  2  0
  6  4  1  0
  4  3  2  0
  3  1  1  0
M  END

$$$$
