No_3984-gen_results/8p0m/2024-11-26-14-13-15/
     RDKit          3D

 22 23  0  0  0  0  0  0  0  0999 V2000
  -28.0162   -0.8135   28.8779 C   0  0  0  0  0  0  0  0  0  0  0  0
  -27.0636   -0.1189   28.6079 C   0  0  0  0  0  0  0  0  0  0  0  0
  -25.7647   -0.3897   29.0360 C   0  0  0  0  0  0  0  0  0  0  0  0
  -25.5296   -1.5302   29.9014 C   0  0  0  0  0  0  0  0  0  0  0  0
  -26.6888   -2.2893   30.1810 C   0  0  0  0  0  0  0  0  0  0  0  0
  -27.8727   -1.9508   29.7373 C   0  0  0  0  0  0  0  0  0  0  0  0
  -28.9304   -2.7298   30.1154 O   0  0  0  0  0  0  0  0  0  0  0  0
  -24.5394    0.4211   28.7421 C   0  0  0  0  0  0  0  0  0  0  0  0
  -24.5259    1.2743   27.7265 C   0  0  0  0  0  0  0  0  0  0  0  0
  -23.3174    1.9856   27.4033 C   0  0  0  0  0  0  0  0  0  0  0  0
  -22.1311    1.7374   28.0503 C   0  0  0  0  0  0  0  0  0  0  0  0
  -23.2983    0.1369   29.3770 C   0  0  0  0  0  0  0  0  0  0  0  0
  -23.2391   -0.8155   30.4400 C   0  0  0  0  0  0  0  0  0  0  0  0
  -22.0474    0.8840   29.0049 C   0  0  0  0  0  0  0  0  0  0  0  0
  -21.0420    2.4071   27.7087 F   0  0  0  0  0  0  0  0  0  0  0  0
  -22.2227    2.5894   28.6170 F   0  0  0  0  0  0  0  0  0  0  0  0
  -21.0512    0.0275   28.8829 O   0  0  0  0  0  0  0  0  0  0  0  0
  -21.5149    0.9870   30.3678 O   0  0  0  0  0  0  0  0  0  0  0  0
  -24.3340   -1.7688   30.6116 C   0  0  0  0  0  0  0  0  0  0  0  0
  -22.2437    0.6078   31.2597 C   0  0  0  0  0  0  0  0  0  0  0  0
  -22.9018    1.2175   32.0033 O   0  0  0  0  0  0  0  0  0  0  0  0
  -21.4992   -0.4845   32.0342 O   0  0  0  0  0  0  0  0  0  0  0  0
  6  7  1  0
  9 10  1  0
 10 11  2  3
 12 14  1  0
 11 15  1  0
 11 16  1  0
 14 17  1  0
 14 18  1  0
 18 20  1  0
 20 21  1  0
 20 22  2  0
  9  8  1  0
  4 19  2  0
 19 13  1  0
 13 12  2  0
 12  8  1  0
  8  3  2  0
  1  2  2  0
  2  3  1  0
  3  4  1  0
  4  5  1  0
  5  6  2  0
  6  1  1  0
M  END

$$$$
