No_3472-gen_results/8p0m/2024-11-26-14-13-15/
     RDKit          3D

 32 36  0  0  0  0  0  0  0  0999 V2000
  -28.0162   -0.8135   28.8779 C   0  0  0  0  0  0  0  0  0  0  0  0
  -28.4690   -0.7850   29.8287 C   0  0  0  0  0  0  0  0  0  0  0  0
  -26.5042   -0.7777   28.8766 C   0  0  0  0  0  0  0  0  0  0  0  0
  -25.8305   -1.6807   29.6849 C   0  0  0  0  0  0  0  0  0  0  0  0
  -28.1490   -1.8854   30.9031 C   0  0  0  0  0  0  0  0  0  0  0  0
  -26.6460   -1.9561   31.0330 C   0  0  0  0  0  0  0  0  0  0  0  0
  -28.8423   -2.6205   31.5877 O   0  0  0  0  0  0  0  0  0  0  0  0
  -25.6851   -0.3320   27.7175 C   0  0  0  0  0  0  0  0  0  0  0  0
  -26.0673    0.4324   26.7661 C   0  0  0  0  0  0  0  0  0  0  0  0
  -27.3979    0.8645   26.6676 C   0  0  0  0  0  0  0  0  0  0  0  0
  -27.8247    1.3840   25.9196 C   0  0  0  0  0  0  0  0  0  0  0  0
  -29.2731    1.7272   25.8089 C   0  0  0  0  0  0  0  0  0  0  0  0
  -28.2400    0.5110   27.9524 N   0  0  0  0  0  0  0  0  0  0  0  0
  -29.4600    1.0089   27.9907 C   0  0  0  0  0  0  0  0  0  0  0  0
  -30.0422    1.5840   26.8642 C   0  0  0  0  0  0  0  0  0  0  0  0
  -31.3962    2.0604   26.9108 C   0  0  0  0  0  0  0  0  0  0  0  0
  -32.0728    2.2557   26.0262 O   0  0  0  0  0  0  0  0  0  0  0  0
  -32.1089    1.8106   28.1529 N   0  0  0  0  0  0  0  0  0  0  0  0
  -33.4782    2.1474   28.3127 C   0  0  0  0  0  0  0  0  0  0  0  0
  -25.1321    0.6725   25.7610 C   0  0  0  0  0  0  0  0  0  0  0  0
  -23.9583    1.4009   26.1292 C   0  0  0  0  0  0  0  0  0  0  0  0
  -23.4312    1.4354   27.4108 C   0  0  0  0  0  0  0  0  0  0  0  0
  -23.0643    2.5467   27.9852 C   0  0  0  0  0  0  0  0  0  0  0  0
  -23.0860    0.1425   27.9942 C   0  0  0  0  0  0  0  0  0  0  0  0
  -24.0349   -0.7331   28.5464 C   0  0  0  0  0  0  0  0  0  0  0  0
  -24.4380   -1.5604   29.6722 C   0  0  0  0  0  0  0  0  0  0  0  0
  -34.0492    1.4423   29.2367 C   0  0  0  0  0  0  0  0  0  0  0  0
  -33.3640    0.6624   29.9725 C   0  0  0  0  0  0  0  0  0  0  0  0
  -33.9875   -0.1647   31.0543 C   0  0  0  0  0  0  0  0  0  0  0  0
  -33.1329   -0.9122   31.9185 C   0  0  0  0  0  0  0  0  0  0  0  0
  -31.7457   -0.9406   31.6712 C   0  0  0  0  0  0  0  0  0  0  0  0
  -31.2176   -0.1405   30.7211 C   0  0  0  0  0  0  0  0  0  0  0  0
  1  2  1  0
  1  3  1  0
  3  4  1  0
  2  5  1  0
  4  6  1  0
  5  6  1  0
  5  7  2  0
  3  8  1  0
  9 10  1  0
 11 12  1  0
  1 13  1  0
 10 13  1  0
 13 14  1  0
 12 15  1  0
 14 15  1  0
 15 16  1  0
 16 17  2  0
 16 18  1  0
 18 19  1  0
  9 20  1  0
 20 21  1  0
 21 22  1  0
 22 23  2  0
 22 24  1  0
  8 25  1  0
 24 25  1  0
  4 26  1  0
 25 26  1  0
 19 27  1  0
 27 28  2  3
 28 29  1  0
 29 30  2  3
 30 31  1  0
 31 32  2  0
  8  9  1  0
 10 11  1  0
M  END

$$$$
