No_3460-gen_results/8p0m/2024-11-26-14-13-15/
     RDKit          3D

 35 38  0  0  0  0  0  0  0  0999 V2000
  -28.0162   -0.8135   28.8779 C   0  0  0  0  0  0  0  0  0  0  0  0
  -27.0636   -0.1189   28.6079 C   0  0  0  0  0  0  0  0  0  0  0  0
  -25.7923   -0.4302   29.0761 C   0  0  0  0  0  0  0  0  0  0  0  0
  -25.5756   -1.5654   29.9363 C   0  0  0  0  0  0  0  0  0  0  0  0
  -26.7354   -2.3004   30.2173 C   0  0  0  0  0  0  0  0  0  0  0  0
  -27.9184   -1.9537   29.7629 C   0  0  0  0  0  0  0  0  0  0  0  0
  -27.1057    1.1023   27.7593 C   0  0  0  0  0  0  0  0  0  0  0  0
  -26.7157    2.2350   27.9945 C   0  0  0  0  0  0  0  0  0  0  0  0
  -26.0688    2.4770   29.3567 C   0  0  0  0  0  0  0  0  0  0  0  0
  -26.2621    3.4491   30.0956 C   0  0  0  0  0  0  0  0  0  0  0  0
  -26.6040    4.7187   29.3953 C   0  0  0  0  0  0  0  0  0  0  0  0
  -27.0474    4.6411   28.1009 C   0  0  0  0  0  0  0  0  0  0  0  0
  -27.2101    3.4198   27.4435 C   0  0  0  0  0  0  0  0  0  0  0  0
  -27.5530    0.8062   26.3680 C   0  0  0  0  0  0  0  0  0  0  0  0
  -28.8376    0.9676   26.0488 C   0  0  0  0  0  0  0  0  0  0  0  0
  -29.2487    0.6216   24.8028 C   0  0  0  0  0  0  0  0  0  0  0  0
  -26.6666    0.3451   25.4813 C   0  0  0  0  0  0  0  0  0  0  0  0
  -25.1879    0.1067   25.8441 C   0  0  0  0  0  0  0  0  0  0  0  0
  -28.3121    0.1292   23.8559 C   0  0  0  0  0  0  0  0  0  0  0  0
  -27.0578    0.0460   24.2049 C   0  0  0  0  0  0  0  0  0  0  0  0
  -29.0106   -2.6626   30.1093 O   0  0  0  0  0  0  0  0  0  0  0  0
  -28.8892   -3.9723   30.5527 C   0  0  0  0  0  0  0  0  0  0  0  0
  -29.8897   -4.7873   30.1516 C   0  0  0  0  0  0  0  0  0  0  0  0
  -31.0423   -4.4547   30.5183 N   0  0  0  0  0  0  0  0  0  0  0  0
  -32.1865   -4.8657   30.0260 C   0  0  0  0  0  0  0  0  0  0  0  0
  -32.6777   -4.5240   29.0685 C   0  0  0  0  0  0  0  0  0  0  0  0
  -33.8652   -5.0503   28.3597 C   0  0  0  0  0  0  0  0  0  0  0  0
  -34.5320   -6.0437   28.9979 C   0  0  0  0  0  0  0  0  0  0  0  0
  -34.0589   -6.5110   30.1889 C   0  0  0  0  0  0  0  0  0  0  0  0
  -32.8654   -5.9731   30.7546 C   0  0  0  0  0  0  0  0  0  0  0  0
  -31.2459   -3.5257   31.6410 C   0  0  0  0  0  0  0  0  0  0  0  0
  -29.8595    1.4347   26.9180 N   0  0  0  0  0  0  0  0  0  0  0  0
  -31.0327    1.0142   27.2567 C   0  0  0  0  0  0  0  0  0  0  0  0
  -31.5573    0.0120   26.6884 C   0  0  0  0  0  0  0  0  0  0  0  0
  -32.4769   -0.5171   27.1422 C   0  0  0  0  0  0  0  0  0  0  0  0
  2  7  1  0
  7 14  1  0
 17 18  1  0
  6 21  1  0
 21 22  1  0
 22 23  1  0
 23 24  1  0
 24 25  1  0
 24 31  1  0
 15 32  1  0
 32 33  1  0
 33 34  2  3
 34 35  1  0
  7  8  1  0
  1  2  2  0
  2  3  1  0
  3  4  2  0
  4  5  1  0
  5  6  2  0
  6  1  1  0
 25 26  2  0
 26 27  1  0
 27 28  2  0
 28 29  1  0
 29 30  2  0
 30 25  1  0
  8  9  2  0
  9 10  1  0
 10 11  2  0
 11 12  1  0
 12 13  2  0
 13  8  1  0
 14 15  2  0
 15 16  1  0
 16 19  2  0
 19 20  1  0
 20 17  2  0
 17 14  1  0
M  END

$$$$
