No_3256-gen_results/8p0m/2024-11-26-14-13-15/
     RDKit          3D

 14 15  0  0  0  0  0  0  0  0999 V2000
  -28.1229   -1.3353   28.4874 O   0  0  0  0  0  0  0  0  0  0  0  0
  -27.0637   -0.8242   28.8687 C   0  0  0  0  0  0  0  0  0  0  0  0
  -26.4017   -0.0623   28.6224 C   0  0  0  0  0  0  0  0  0  0  0  0
  -26.2652   -1.8674   29.7609 N   0  0  0  0  0  0  0  0  0  0  0  0
  -25.0436    0.3924   29.0662 C   0  0  0  0  0  0  0  0  0  0  0  0
  -24.4695   -0.5141   30.0040 C   0  0  0  0  0  0  0  0  0  0  0  0
  -25.1312   -1.6601   30.2898 C   0  0  0  0  0  0  0  0  0  0  0  0
  -26.9035    1.1104   27.6616 C   0  0  0  0  0  0  0  0  0  0  0  0
  -26.1394    1.6808   26.7897 C   0  0  0  0  0  0  0  0  0  0  0  0
  -24.7356    2.0279   27.2474 C   0  0  0  0  0  0  0  0  0  0  0  0
  -24.1388    1.1962   28.2386 C   0  0  0  0  0  0  0  0  0  0  0  0
  -22.7457    1.4313   28.5753 C   0  0  0  0  0  0  0  0  0  0  0  0
  -22.2576    1.2002   29.6221 O   0  0  0  0  0  0  0  0  0  0  0  0
  -21.8779    1.4779   27.5164 O   0  0  0  0  0  0  0  0  0  0  0  0
  1  2  2  0
  2  3  1  0
  2  4  1  0
  6  7  1  0
 11 12  1  0
 12 13  1  0
 12 14  2  0
  5  6  1  0
  7  4  1  0
  3  5  2  0
  5 11  1  0
 11 10  2  0
 10  9  1  0
  9  8  2  0
  8  3  1  0
M  END

$$$$
