No_3969-gen_results/8p0m/2024-11-26-14-13-15/
     RDKit          3D

 23 24  0  0  0  0  0  0  0  0999 V2000
  -28.0162   -0.8135   28.8779 C   0  0  0  0  0  0  0  0  0  0  0  0
  -27.0636   -0.1190   28.6079 C   0  0  0  0  0  0  0  0  0  0  0  0
  -26.9287    1.1713   29.0083 C   0  0  0  0  0  0  0  0  0  0  0  0
  -25.7702    2.0341   28.6884 C   0  0  0  0  0  0  0  0  0  0  0  0
  -24.7141    1.4431   27.9188 C   0  0  0  0  0  0  0  0  0  0  0  0
  -24.8590    0.0783   27.5836 C   0  0  0  0  0  0  0  0  0  0  0  0
  -25.9647   -0.6606   27.9164 C   0  0  0  0  0  0  0  0  0  0  0  0
  -29.1701   -0.2984   28.9471 N   0  0  0  0  0  0  0  0  0  0  0  0
  -29.7216    0.3727   28.0429 C   0  0  0  0  0  0  0  0  0  0  0  0
  -29.2098    0.8030   27.1435 O   0  0  0  0  0  0  0  0  0  0  0  0
  -31.1752    0.6307   28.3008 C   0  0  0  0  0  0  0  0  0  0  0  0
  -31.9455    0.3634   27.5034 O   0  0  0  0  0  0  0  0  0  0  0  0
  -31.5447    1.1959   29.5055 N   0  0  0  0  0  0  0  0  0  0  0  0
  -32.8843    1.4818   29.8232 C   0  0  0  0  0  0  0  0  0  0  0  0
  -23.4888    2.1153   27.6076 C   0  0  0  0  0  0  0  0  0  0  0  0
  -22.3523    2.1611   28.2618 N   0  0  0  0  0  0  0  0  0  0  0  0
  -23.4792    2.6927   26.2189 C   0  0  0  0  0  0  0  0  0  0  0  0
  -33.7030    1.9104   29.2970 C   0  0  0  0  0  0  0  0  0  0  0  0
  -34.6182    2.3729   29.3891 C   0  0  0  0  0  0  0  0  0  0  0  0
  -35.1130    2.3970   30.8609 C   0  0  0  0  0  0  0  0  0  0  0  0
  -34.2504    1.8877   31.7661 C   0  0  0  0  0  0  0  0  0  0  0  0
  -32.9920    1.5034   31.3345 C   0  0  0  0  0  0  0  0  0  0  0  0
  -27.9205   -2.0127   29.3903 O   0  0  0  0  0  0  0  0  0  0  0  0
  1  2  1  0
  1  8  1  0
  8  9  1  0
  9 10  2  0
  9 11  1  0
 11 12  2  0
 11 13  1  0
 13 14  1  0
  5 15  1  0
 15 16  2  0
 15 17  1  0
  1 23  2  0
  2  3  2  0
  3  4  1  0
  4  5  2  0
  5  6  1  0
  6  7  2  0
  7  2  1  0
 14 18  2  0
 18 19  1  0
 19 20  2  0
 20 21  1  0
 21 22  2  0
 22 14  1  0
M  END

$$$$
