No_3293-gen_results/8p0m/2024-11-26-14-13-15/
     RDKit          3D

 16 18  0  0  0  0  0  0  0  0999 V2000
  -28.0544   -1.0498   28.7246 N   0  0  0  0  0  0  0  0  0  0  0  0
  -26.9659   -0.4722   28.7709 C   0  0  0  0  0  0  0  0  0  0  0  0
  -26.8762    0.8133   29.2194 C   0  0  0  0  0  0  0  0  0  0  0  0
  -28.0285    1.4778   29.6014 C   0  0  0  0  0  0  0  0  0  0  0  0
  -29.1804    0.7711   29.5679 C   0  0  0  0  0  0  0  0  0  0  0  0
  -29.1728   -0.5288   29.1671 C   0  0  0  0  0  0  0  0  0  0  0  0
  -25.6508   -0.8920   28.4397 N   0  0  0  0  0  0  0  0  0  0  0  0
  -24.7293    0.0230   28.4643 C   0  0  0  0  0  0  0  0  0  0  0  0
  -25.4396    1.1810   28.9842 C   0  0  0  0  0  0  0  0  0  0  0  0
  -23.3167    0.0528   28.2659 C   0  0  0  0  0  0  0  0  0  0  0  0
  -22.4771   -0.8632   28.9789 C   0  0  0  0  0  0  0  0  0  0  0  0
  -22.7541    1.1585   27.5768 C   0  0  0  0  0  0  0  0  0  0  0  0
  -21.9759    1.8252   27.8634 C   0  0  0  0  0  0  0  0  0  0  0  0
  -20.7640    0.9374   28.3543 C   0  0  0  0  0  0  0  0  0  0  0  0
  -21.0758   -0.2612   29.0181 C   0  0  0  0  0  0  0  0  0  0  0  0
  -24.9649    2.3918   29.2726 O   0  0  0  0  0  0  0  0  0  0  0  0
  2  7  1  0
  7  8  2  0
  3  9  1  0
  8  9  1  0
  8 10  1  0
  9 16  2  0
  1  2  2  0
  2  3  1  0
  3  4  2  0
  4  5  1  0
  5  6  2  0
  6  1  1  0
 10 11  2  0
 11 15  1  0
 15 14  2  0
 14 13  1  0
 13 12  2  0
 12 10  1  0
M  END

$$$$
