No_3751-gen_results/8p0m/2024-11-26-14-13-15/
     RDKit          3D

 28 31  0  0  0  0  0  0  0  0999 V2000
  -28.1229   -1.3353   28.4874 O   0  0  0  0  0  0  0  0  0  0  0  0
  -27.0637   -0.8242   28.8687 C   0  0  0  0  0  0  0  0  0  0  0  0
  -26.4017   -0.0623   28.6224 C   0  0  0  0  0  0  0  0  0  0  0  0
  -26.5721   -1.5845   30.1172 N   0  0  0  0  0  0  0  0  0  0  0  0
  -25.0209    0.3561   29.0444 C   0  0  0  0  0  0  0  0  0  0  0  0
  -24.6646   -0.3860   30.2421 C   0  0  0  0  0  0  0  0  0  0  0  0
  -25.4289   -1.3599   30.6870 C   0  0  0  0  0  0  0  0  0  0  0  0
  -26.7082    0.8260   27.3474 C   0  0  0  0  0  0  0  0  0  0  0  0
  -27.2599    1.9895   27.5888 C   0  0  0  0  0  0  0  0  0  0  0  0
  -26.4829    0.2703   26.0920 C   0  0  0  0  0  0  0  0  0  0  0  0
  -26.9801    0.8597   24.9465 C   0  0  0  0  0  0  0  0  0  0  0  0
  -27.6888    2.7624   26.3911 C   0  0  0  0  0  0  0  0  0  0  0  0
  -27.5555    2.1937   25.0854 C   0  0  0  0  0  0  0  0  0  0  0  0
  -23.3750   -0.0514   30.9296 C   0  0  0  0  0  0  0  0  0  0  0  0
  -22.3658    0.1093   30.2108 O   0  0  0  0  0  0  0  0  0  0  0  0
  -23.3635    0.3762   32.2002 O   0  0  0  0  0  0  0  0  0  0  0  0
  -28.3083    4.0647   26.5197 C   0  0  0  0  0  0  0  0  0  0  0  0
  -29.1260    4.2439   27.6077 C   0  0  0  0  0  0  0  0  0  0  0  0
  -29.7275    5.5449   27.7910 C   0  0  0  0  0  0  0  0  0  0  0  0
  -29.4773    6.5659   26.8466 C   0  0  0  0  0  0  0  0  0  0  0  0
  -28.6315    6.3700   25.7836 C   0  0  0  0  0  0  0  0  0  0  0  0
  -28.0491    5.1331   25.6374 C   0  0  0  0  0  0  0  0  0  0  0  0
  -30.4005    5.7508   29.0620 C   0  0  0  0  0  0  0  0  0  0  0  0
  -31.1952    4.9467   29.5163 C   0  0  0  0  0  0  0  0  0  0  0  0
  -31.8963    5.1081   30.7868 C   0  0  0  0  0  0  0  0  0  0  0  0
  -31.6892    6.3394   31.4328 C   0  0  0  0  0  0  0  0  0  0  0  0
  -30.8682    7.2794   30.9275 C   0  0  0  0  0  0  0  0  0  0  0  0
  -30.1865    7.0473   29.7336 C   0  0  0  0  0  0  0  0  0  0  0  0
  1  2  2  0
  2  3  1  0
  2  4  1  0
  5  6  1  0
  6  7  1  0
  3  8  1  0
  6 14  1  0
 14 15  2  0
 14 16  1  0
 12 17  1  0
 19 23  1  0
  3  5  1  0
  7  4  1  0
 17 18  2  0
 18 19  1  0
 19 20  2  0
 20 21  1  0
 21 22  2  0
 22 17  1  0
 23 24  2  0
 24 25  1  0
 25 26  2  0
 26 27  1  0
 27 28  2  0
 28 23  1  0
  8  9  2  0
  9 12  1  0
 12 13  2  0
 13 11  1  0
 11 10  2  0
 10  8  1  0
M  END

$$$$
