No_3021-gen_results/8p0m/2024-11-26-14-13-15/
     RDKit          3D

 35 37  0  0  0  0  0  0  0  0999 V2000
  -28.0162   -0.8135   28.8779 C   0  0  0  0  0  0  0  0  0  0  0  0
  -28.4690   -0.7850   29.8287 C   0  0  0  0  0  0  0  0  0  0  0  0
  -28.1960    0.3478   28.0550 C   0  0  0  0  0  0  0  0  0  0  0  0
  -29.0191    1.3501   28.3782 C   0  0  0  0  0  0  0  0  0  0  0  0
  -29.4107    0.1803   30.3782 C   0  0  0  0  0  0  0  0  0  0  0  0
  -29.6059    1.2495   29.6193 C   0  0  0  0  0  0  0  0  0  0  0  0
  -27.3479    0.2333   26.8118 C   0  0  0  0  0  0  0  0  0  0  0  0
  -27.7518    0.5413   25.7340 N   0  0  0  0  0  0  0  0  0  0  0  0
  -26.0674   -0.0545   26.9219 O   0  0  0  0  0  0  0  0  0  0  0  0
  -27.0028    0.4432   24.4820 C   0  0  0  0  0  0  0  0  0  0  0  0
  -29.1581    0.9434   25.4454 C   0  0  0  0  0  0  0  0  0  0  0  0
  -30.0355    0.3767   25.5518 C   0  0  0  0  0  0  0  0  0  0  0  0
  -31.3772    0.8366   25.2143 C   0  0  0  0  0  0  0  0  0  0  0  0
  -31.4425    2.0879   24.6534 C   0  0  0  0  0  0  0  0  0  0  0  0
  -29.1793    2.3125   24.8068 C   0  0  0  0  0  0  0  0  0  0  0  0
  -30.3170    2.8290   24.3542 C   0  0  0  0  0  0  0  0  0  0  0  0
  -32.5049    0.1986   25.4835 F   0  0  0  0  0  0  0  0  0  0  0  0
  -30.5701    2.3714   30.0439 C   0  0  0  0  0  0  0  0  0  0  0  0
  -31.5011    2.8019   29.2703 C   0  0  0  0  0  0  0  0  0  0  0  0
  -32.3801    3.8658   29.6522 C   0  0  0  0  0  0  0  0  0  0  0  0
  -32.2447    4.3648   30.9384 C   0  0  0  0  0  0  0  0  0  0  0  0
  -31.3085    3.9005   31.7687 C   0  0  0  0  0  0  0  0  0  0  0  0
  -30.4441    2.9189   31.3729 C   0  0  0  0  0  0  0  0  0  0  0  0
  -33.4129    4.3121   28.6892 C   0  0  0  0  0  0  0  0  0  0  0  0
  -33.2283    5.3094   28.0009 N   0  0  0  0  0  0  0  0  0  0  0  0
  -34.4602    3.6145   28.5755 O   0  0  0  0  0  0  0  0  0  0  0  0
  -34.1515    5.7849   26.9610 C   0  0  0  0  0  0  0  0  0  0  0  0
  -31.9937    6.1842   28.0772 C   0  0  0  0  0  0  0  0  0  0  0  0
  -31.4888    6.7336   27.1192 C   0  0  0  0  0  0  0  0  0  0  0  0
  -30.2966    7.3301   27.2670 N   0  0  0  0  0  0  0  0  0  0  0  0
  -29.6444    7.9067   26.2977 C   0  0  0  0  0  0  0  0  0  0  0  0
  -30.0252    8.7484   25.6830 N   0  0  0  0  0  0  0  0  0  0  0  0
  -28.3020    7.4108   26.0104 N   0  0  0  0  0  0  0  0  0  0  0  0
  -35.0202    6.3486   27.3607 C   0  0  0  0  0  0  0  0  0  0  0  0
  -36.0437    6.9442   26.5286 C   0  0  0  0  0  0  0  0  0  0  0  0
  3  7  1  0
  7  8  1  0
  7  9  2  0
  8 10  1  0
  8 11  1  0
 13 17  1  0
  6 18  1  0
 20 24  1  0
 24 25  1  0
 24 26  2  0
 25 27  1  0
 25 28  1  0
 28 29  2  0
 29 30  2  0
 30 31  1  0
 31 32  1  0
 31 33  1  0
 27 34  2  3
 34 35  1  0
 18 19  2  0
 19 20  1  0
 20 21  2  0
 21 22  1  0
 22 23  2  0
 23 18  1  0
 11 12  2  0
 12 13  1  0
 13 14  2  0
 14 16  1  0
 16 15  2  0
 15 11  1  0
  1  2  2  0
  2  5  1  0
  5  6  2  0
  6  4  1  0
  4  3  2  0
  3  1  1  0
M  END

$$$$
