No_3974-gen_results/8p0m/2024-11-26-14-13-15/
     RDKit          3D

 19 20  0  0  0  0  0  0  0  0999 V2000
  -28.0544   -1.0498   28.7246 N   0  0  0  0  0  0  0  0  0  0  0  0
  -26.9659   -0.4722   28.7709 C   0  0  0  0  0  0  0  0  0  0  0  0
  -26.5486    0.3876   27.8310 C   0  0  0  0  0  0  0  0  0  0  0  0
  -25.2662    1.0684   27.8062 C   0  0  0  0  0  0  0  0  0  0  0  0
  -24.3565    0.7761   28.8458 C   0  0  0  0  0  0  0  0  0  0  0  0
  -24.7750   -0.1742   29.8298 C   0  0  0  0  0  0  0  0  0  0  0  0
  -25.9839   -0.8112   29.8049 C   0  0  0  0  0  0  0  0  0  0  0  0
  -29.0059   -0.6504   29.6882 C   0  0  0  0  0  0  0  0  0  0  0  0
  -30.2559   -1.4458   29.6619 C   0  0  0  0  0  0  0  0  0  0  0  0
  -30.2088   -2.4351   29.9494 O   0  0  0  0  0  0  0  0  0  0  0  0
  -31.3536   -0.7677   29.2544 N   0  0  0  0  0  0  0  0  0  0  0  0
  -31.4465    0.6319   28.8964 C   0  0  0  0  0  0  0  0  0  0  0  0
  -32.5787   -1.5727   29.1111 C   0  0  0  0  0  0  0  0  0  0  0  0
  -22.8408    1.5121   28.9009 Cl  0  0  0  0  0  0  0  0  0  0  0  0
  -31.7869    1.4972   29.8449 C   0  0  0  0  0  0  0  0  0  0  0  0
  -31.5725    2.7513   29.5654 C   0  0  0  0  0  0  0  0  0  0  0  0
  -31.1849    3.2246   28.2825 C   0  0  0  0  0  0  0  0  0  0  0  0
  -30.8507    0.9637   27.6941 C   0  0  0  0  0  0  0  0  0  0  0  0
  -30.7277    2.3081   27.3703 C   0  0  0  0  0  0  0  0  0  0  0  0
  1  2  1  0
  1  8  1  0
  8  9  1  0
  9 10  2  0
  9 11  1  0
 11 12  1  0
 11 13  1  0
  5 14  1  0
  2  3  2  0
  3  4  1  0
  4  5  2  0
  5  6  1  0
  6  7  2  0
  7  2  1  0
 12 15  2  0
 15 16  1  0
 16 17  2  0
 17 19  1  0
 19 18  2  0
 18 12  1  0
M  END

$$$$
