No_3381-gen_results/8p0m/2024-11-26-14-13-15/
     RDKit          3D

 15 16  0  0  0  0  0  0  0  0999 V2000
  -28.0162   -0.8135   28.8779 C   0  0  0  0  0  0  0  0  0  0  0  0
  -27.0636   -0.1189   28.6079 C   0  0  0  0  0  0  0  0  0  0  0  0
  -25.7647   -0.3897   29.0360 C   0  0  0  0  0  0  0  0  0  0  0  0
  -25.5296   -1.5302   29.9014 C   0  0  0  0  0  0  0  0  0  0  0  0
  -26.6888   -2.2893   30.1810 C   0  0  0  0  0  0  0  0  0  0  0  0
  -27.8727   -1.9508   29.7373 C   0  0  0  0  0  0  0  0  0  0  0  0
  -29.1266   -3.0333   30.2545 Cl  0  0  0  0  0  0  0  0  0  0  0  0
  -24.5419    0.4316   28.7270 C   0  0  0  0  0  0  0  0  0  0  0  0
  -24.4962    1.2714   27.6994 C   0  0  0  0  0  0  0  0  0  0  0  0
  -23.2943    1.9744   27.3873 C   0  0  0  0  0  0  0  0  0  0  0  0
  -22.1106    1.7555   28.0249 C   0  0  0  0  0  0  0  0  0  0  0  0
  -23.2849    0.1713   29.4012 C   0  0  0  0  0  0  0  0  0  0  0  0
  -22.0956    0.8435   29.0493 C   0  0  0  0  0  0  0  0  0  0  0  0
  -23.3550    2.8700   26.3591 F   0  0  0  0  0  0  0  0  0  0  0  0
  -27.1847    0.9536   27.7596 F   0  0  0  0  0  0  0  0  0  0  0  0
  6  7  1  0
  3  8  1  0
 10 14  1  0
  2 15  1  0
  1  2  2  0
  2  3  1  0
  3  4  2  0
  4  5  1  0
  5  6  2  0
  6  1  1  0
  8  9  2  0
  9 10  1  0
 10 11  2  0
 11 13  1  0
 13 12  2  0
 12  8  1  0
M  END

$$$$
