No_3254-gen_results/8p0m/2024-11-26-14-13-15/
     RDKit          3D

 18 19  0  0  0  0  0  0  0  0999 V2000
  -28.0162   -0.8135   28.8779 C   0  0  0  0  0  0  0  0  0  0  0  0
  -28.4690   -0.7850   29.8287 C   0  0  0  0  0  0  0  0  0  0  0  0
  -27.0871    0.2903   28.6377 C   0  0  0  0  0  0  0  0  0  0  0  0
  -26.2516    0.4114   27.4223 C   0  0  0  0  0  0  0  0  0  0  0  0
  -28.3913    0.1041   30.9805 C   0  0  0  0  0  0  0  0  0  0  0  0
  -27.5332    1.1666   30.7866 C   0  0  0  0  0  0  0  0  0  0  0  0
  -26.8281    1.2557   29.6454 C   0  0  0  0  0  0  0  0  0  0  0  0
  -25.1383    0.6747   27.2309 C   0  0  0  0  0  0  0  0  0  0  0  0
  -24.3156    0.8665   28.4421 C   0  0  0  0  0  0  0  0  0  0  0  0
  -23.3530    0.3539   28.6370 C   0  0  0  0  0  0  0  0  0  0  0  0
  -22.3332    0.6856   29.7210 C   0  0  0  0  0  0  0  0  0  0  0  0
  -23.0324    1.4709   30.6881 C   0  0  0  0  0  0  0  0  0  0  0  0
  -24.5955    1.7686   29.6399 C   0  0  0  0  0  0  0  0  0  0  0  0
  -24.8053    3.1638   29.5839 O   0  0  0  0  0  0  0  0  0  0  0  0
  -26.4893    2.4758   29.3348 C   0  0  0  0  0  0  0  0  0  0  0  0
  -27.1011    3.7153   30.2301 C   0  0  0  0  0  0  0  0  0  0  0  0
  -24.8924    3.8054   30.7853 C   0  0  0  0  0  0  0  0  0  0  0  0
  -26.7027    2.9805   27.8903 C   0  0  0  0  0  0  0  0  0  0  0  0
  3  4  1  0
  4  8  2  3
  8  9  1  0
  9 10  2  0
 10 11  1  0
 11 12  2  0
  9 13  1  0
 12 13  1  0
 13 14  1  0
  7 15  1  0
 15 16  1  0
 14 17  1  0
 15 18  1  0
  1  2  2  0
  2  5  1  0
  5  6  2  0
  6  7  1  0
  7  3  2  0
  3  1  1  0
M  END

$$$$
