No_3892-gen_results/8p0m/2024-11-26-14-13-15/
     RDKit          3D

 27 29  0  0  0  0  0  0  0  0999 V2000
  -28.1229   -1.3353   28.4874 O   0  0  0  0  0  0  0  0  0  0  0  0
  -28.5208   -0.4363   29.0779 C   0  0  0  0  0  0  0  0  0  0  0  0
  -27.7860    0.1608   30.0148 N   0  0  0  0  0  0  0  0  0  0  0  0
  -29.8770    0.1132   28.7847 C   0  0  0  0  0  0  0  0  0  0  0  0
  -26.4817   -0.2826   30.3628 C   0  0  0  0  0  0  0  0  0  0  0  0
  -30.0677    1.2671   28.8363 N   0  0  0  0  0  0  0  0  0  0  0  0
  -29.5610    2.1790   28.0441 C   0  0  0  0  0  0  0  0  0  0  0  0
  -29.7344    3.5436   28.2871 C   0  0  0  0  0  0  0  0  0  0  0  0
  -29.2077    4.4934   27.4587 C   0  0  0  0  0  0  0  0  0  0  0  0
  -28.3977    4.4080   26.7944 C   0  0  0  0  0  0  0  0  0  0  0  0
  -27.9556    3.0237   26.3796 C   0  0  0  0  0  0  0  0  0  0  0  0
  -28.3181    2.0748   27.3208 C   0  0  0  0  0  0  0  0  0  0  0  0
  -30.7640   -0.8059   28.8446 O   0  0  0  0  0  0  0  0  0  0  0  0
  -25.6152    0.6606   30.3546 C   0  0  0  0  0  0  0  0  0  0  0  0
  -24.3230    0.4630   29.7517 C   0  0  0  0  0  0  0  0  0  0  0  0
  -23.3448    1.4845   29.5248 C   0  0  0  0  0  0  0  0  0  0  0  0
  -23.3910    1.9683   28.3670 C   0  0  0  0  0  0  0  0  0  0  0  0
  -23.7281    1.0626   27.2279 C   0  0  0  0  0  0  0  0  0  0  0  0
  -24.3576   -0.1190   27.5914 C   0  0  0  0  0  0  0  0  0  0  0  0
  -24.6500   -0.3784   28.8804 C   0  0  0  0  0  0  0  0  0  0  0  0
  -25.8579    2.0121   30.9534 C   0  0  0  0  0  0  0  0  0  0  0  0
  -25.4467    2.4012   31.9495 C   0  0  0  0  0  0  0  0  0  0  0  0
  -25.6781    3.7264   32.5901 C   0  0  0  0  0  0  0  0  0  0  0  0
  -26.4128    4.6185   31.7600 C   0  0  0  0  0  0  0  0  0  0  0  0
  -26.9000    4.1689   30.4761 C   0  0  0  0  0  0  0  0  0  0  0  0
  -26.5663    2.9003   30.0307 C   0  0  0  0  0  0  0  0  0  0  0  0
  -31.5256    1.6093   29.2283 C   0  0  0  0  0  0  0  0  0  0  0  0
  1  2  2  0
  2  3  1  0
  2  4  1  0
  3  5  1  0
  4  6  1  0
  6  7  1  0
  4 13  2  0
  5 14  1  0
 14 21  1  0
  6 27  1  0
 14 15  1  0
 15 16  2  0
 16 17  1  0
 17 18  2  0
 18 19  1  0
 19 20  2  0
 20 15  1  0
  7  8  2  0
  8  9  1  0
  9 10  2  0
 10 11  1  0
 11 12  2  0
 12  7  1  0
 21 22  2  0
 22 23  1  0
 23 24  2  0
 24 25  1  0
 25 26  2  0
 26 21  1  0
M  END

$$$$
