No_3219-gen_results/8p0m/2024-11-26-14-13-15/
     RDKit          3D

 10  9  0  0  0  0  0  0  0  0999 V2000
  -28.0162   -0.8135   28.8779 C   0  0  0  0  0  0  0  0  0  0  0  0
  -28.4690   -0.7850   29.8287 C   0  0  0  0  0  0  0  0  0  0  0  0
  -26.5042   -0.7777   28.8766 C   0  0  0  0  0  0  0  0  0  0  0  0
  -26.0079   -0.3793   27.7726 F   0  0  0  0  0  0  0  0  0  0  0  0
  -25.9797   -2.0272   29.0695 F   0  0  0  0  0  0  0  0  0  0  0  0
  -25.9069   -0.0285   29.8171 F   0  0  0  0  0  0  0  0  0  0  0  0
  -27.8090   -0.9706   30.8189 F   0  0  0  0  0  0  0  0  0  0  0  0
  -29.6115   -1.7235   29.9428 F   0  0  0  0  0  0  0  0  0  0  0  0
  -29.3026    0.3340   29.9529 F   0  0  0  0  0  0  0  0  0  0  0  0
  -28.3401   -0.1259   27.8858 F   0  0  0  0  0  0  0  0  0  0  0  0
  1  2  1  0
  1  3  1  0
  3  4  1  0
  3  5  1  0
  3  6  1  0
  2  7  1  0
  2  8  1  0
  2  9  1  0
  1 10  1  0
M  END

$$$$
