No_3657-gen_results/8p0m/2024-11-26-14-13-15/
     RDKit          3D

 33 36  0  0  0  0  0  0  0  0999 V2000
  -28.0162   -0.8135   28.8779 C   0  0  0  0  0  0  0  0  0  0  0  0
  -27.0636   -0.1190   28.6079 C   0  0  0  0  0  0  0  0  0  0  0  0
  -26.9287    1.1713   29.0083 C   0  0  0  0  0  0  0  0  0  0  0  0
  -25.7702    2.0341   28.6884 C   0  0  0  0  0  0  0  0  0  0  0  0
  -24.7141    1.4431   27.9188 C   0  0  0  0  0  0  0  0  0  0  0  0
  -23.5566    2.1673   27.5933 C   0  0  0  0  0  0  0  0  0  0  0  0
  -28.6748   -0.6676   29.8717 C   0  0  0  0  0  0  0  0  0  0  0  0
  -28.7144    0.6146   30.5584 C   0  0  0  0  0  0  0  0  0  0  0  0
  -27.7333    1.5221   30.1662 C   0  0  0  0  0  0  0  0  0  0  0  0
  -25.7176    3.4200   28.8867 C   0  0  0  0  0  0  0  0  0  0  0  0
  -24.6846    4.2309   28.3057 C   0  0  0  0  0  0  0  0  0  0  0  0
  -23.5974    3.5595   27.6856 C   0  0  0  0  0  0  0  0  0  0  0  0
  -26.1965   -0.4465   27.5380 F   0  0  0  0  0  0  0  0  0  0  0  0
  -29.9662   -1.7826   30.3913 Cl  0  0  0  0  0  0  0  0  0  0  0  0
  -22.5697    1.6796   26.9027 F   0  0  0  0  0  0  0  0  0  0  0  0
  -26.6964    4.0102   29.5429 O   0  0  0  0  0  0  0  0  0  0  0  0
  -26.7078    5.4353   29.5603 C   0  0  0  0  0  0  0  0  0  0  0  0
  -27.5520    6.0204   28.7701 C   0  0  0  0  0  0  0  0  0  0  0  0
  -27.3629    7.3093   28.4490 C   0  0  0  0  0  0  0  0  0  0  0  0
  -26.5141    8.2092   29.2089 C   0  0  0  0  0  0  0  0  0  0  0  0
  -25.6640    7.5466   30.1680 C   0  0  0  0  0  0  0  0  0  0  0  0
  -25.7042    6.1664   30.2688 C   0  0  0  0  0  0  0  0  0  0  0  0
  -25.0569    5.4682   31.1814 O   0  0  0  0  0  0  0  0  0  0  0  0
  -25.4077    5.5908   32.4811 C   0  0  0  0  0  0  0  0  0  0  0  0
  -26.5361    4.8257   32.9527 C   0  0  0  0  0  0  0  0  0  0  0  0
  -26.6646    4.7342   34.2760 C   0  0  0  0  0  0  0  0  0  0  0  0
  -25.9653    5.5644   35.1813 C   0  0  0  0  0  0  0  0  0  0  0  0
  -24.9038    6.3271   34.6972 C   0  0  0  0  0  0  0  0  0  0  0  0
  -24.5816    6.3209   33.3635 C   0  0  0  0  0  0  0  0  0  0  0  0
  -23.6887    7.2317   32.8611 C   0  0  0  0  0  0  0  0  0  0  0  0
  -22.2437    6.9071   33.2084 C   0  0  0  0  0  0  0  0  0  0  0  0
  -21.7873    7.6433   34.1362 O   0  0  0  0  0  0  0  0  0  0  0  0
  -21.7262    5.8044   32.8978 O   0  0  0  0  0  0  0  0  0  0  0  0
  3  4  1  0
  2 13  1  0
  7 14  1  0
  6 15  1  0
 10 16  1  0
 16 17  1  0
 22 23  1  0
 23 24  1  0
 29 30  1  0
 30 31  1  0
 31 32  2  0
 31 33  1  0
  4  5  2  0
  5  6  1  0
  6 12  2  0
 12 11  1  0
 11 10  2  0
 10  4  1  0
 24 25  2  0
 25 26  1  0
 26 27  2  0
 27 28  1  0
 28 29  2  0
 29 24  1  0
  1  2  2  0
  2  3  1  0
  3  9  2  0
  9  8  1  0
  8  7  2  0
  7  1  1  0
 17 18  2  0
 18 19  1  0
 19 20  2  0
 20 21  1  0
 21 22  2  0
 22 17  1  0
M  END

$$$$
