No_3422-gen_results/8p0m/2024-11-26-14-13-15/
     RDKit          3D

 20 20  0  0  0  0  0  0  0  0999 V2000
  -28.1229   -1.3353   28.4874 O   0  0  0  0  0  0  0  0  0  0  0  0
  -27.0637   -0.8242   28.8687 C   0  0  0  0  0  0  0  0  0  0  0  0
  -26.4017   -0.0623   28.6224 C   0  0  0  0  0  0  0  0  0  0  0  0
  -26.5721   -1.5844   30.1172 N   0  0  0  0  0  0  0  0  0  0  0  0
  -25.0209    0.3562   29.0444 C   0  0  0  0  0  0  0  0  0  0  0  0
  -24.6541   -0.3468   30.2523 C   0  0  0  0  0  0  0  0  0  0  0  0
  -25.4243   -1.3431   30.6966 C   0  0  0  0  0  0  0  0  0  0  0  0
  -26.9085    0.7722   27.4175 C   0  0  0  0  0  0  0  0  0  0  0  0
  -26.8502    2.0413   27.6455 F   0  0  0  0  0  0  0  0  0  0  0  0
  -28.1546    0.4472   27.1726 F   0  0  0  0  0  0  0  0  0  0  0  0
  -26.1307    0.5512   26.2938 F   0  0  0  0  0  0  0  0  0  0  0  0
  -27.4306   -2.6878   30.6019 C   0  0  0  0  0  0  0  0  0  0  0  0
  -28.5800   -2.3163   31.3647 C   0  0  0  0  0  0  0  0  0  0  0  0
  -28.2847   -1.5359   32.2181 F   0  0  0  0  0  0  0  0  0  0  0  0
  -29.4204   -1.6057   30.4534 F   0  0  0  0  0  0  0  0  0  0  0  0
  -29.1878   -3.4037   31.8137 F   0  0  0  0  0  0  0  0  0  0  0  0
  -27.0426   -3.8680   30.2495 O   0  0  0  0  0  0  0  0  0  0  0  0
  -23.3495    0.0685   30.8531 C   0  0  0  0  0  0  0  0  0  0  0  0
  -23.1020   -0.2308   31.9190 O   0  0  0  0  0  0  0  0  0  0  0  0
  -22.4524    0.7029   30.0648 O   0  0  0  0  0  0  0  0  0  0  0  0
  1  2  2  0
  2  3  1  0
  2  4  1  0
  3  5  1  0
  4  7  1  0
  6  7  1  0
  3  8  1  0
  8  9  1  0
  8 10  1  0
  8 11  1  0
  4 12  1  0
 12 13  1  0
 13 14  1  0
 13 15  1  0
 13 16  1  0
 12 17  2  0
  6 18  1  0
 18 19  1  0
 18 20  2  0
  5  6  1  0
M  END

$$$$
