No_3987-gen_results/8p0m/2024-11-26-14-13-15/
     RDKit          3D

 35 38  0  0  0  0  0  0  0  0999 V2000
  -28.0162   -0.8135   28.8779 C   0  0  0  0  0  0  0  0  0  0  0  0
  -27.0636   -0.1190   28.6079 C   0  0  0  0  0  0  0  0  0  0  0  0
  -25.7647   -0.3897   29.0360 C   0  0  0  0  0  0  0  0  0  0  0  0
  -25.5296   -1.5302   29.9014 C   0  0  0  0  0  0  0  0  0  0  0  0
  -26.6888   -2.2893   30.1810 C   0  0  0  0  0  0  0  0  0  0  0  0
  -27.8727   -1.9508   29.7373 C   0  0  0  0  0  0  0  0  0  0  0  0
  -24.7078    0.5670   28.7015 C   0  0  0  0  0  0  0  0  0  0  0  0
  -23.4620    0.2939   29.1741 C   0  0  0  0  0  0  0  0  0  0  0  0
  -23.2350   -0.9849   29.8468 C   0  0  0  0  0  0  0  0  0  0  0  0
  -24.2215   -1.8157   30.2673 C   0  0  0  0  0  0  0  0  0  0  0  0
  -24.8417    1.7300   27.8988 C   0  0  0  0  0  0  0  0  0  0  0  0
  -25.1219    2.8433   28.4926 C   0  0  0  0  0  0  0  0  0  0  0  0
  -25.9694    3.6485   28.1281 C   0  0  0  0  0  0  0  0  0  0  0  0
  -26.3233    3.6128   26.7188 C   0  0  0  0  0  0  0  0  0  0  0  0
  -25.9529    2.5301   25.9578 C   0  0  0  0  0  0  0  0  0  0  0  0
  -25.2752    1.5047   26.5615 C   0  0  0  0  0  0  0  0  0  0  0  0
  -22.5504    1.2033   28.9577 O   0  0  0  0  0  0  0  0  0  0  0  0
  -28.9795   -2.6936   30.0427 O   0  0  0  0  0  0  0  0  0  0  0  0
  -30.0766   -2.1015   30.5570 C   0  0  0  0  0  0  0  0  0  0  0  0
  -30.6131   -2.8617   31.6228 C   0  0  0  0  0  0  0  0  0  0  0  0
  -30.2924   -3.8873   31.9568 O   0  0  0  0  0  0  0  0  0  0  0  0
  -31.7211   -2.2690   32.3377 N   0  0  0  0  0  0  0  0  0  0  0  0
  -32.2104   -0.9598   32.0961 C   0  0  0  0  0  0  0  0  0  0  0  0
  -31.9367   -0.0473   32.6035 C   0  0  0  0  0  0  0  0  0  0  0  0
  -31.7393    1.0800   32.6249 C   0  0  0  0  0  0  0  0  0  0  0  0
  -31.3643    2.3269   32.8173 C   0  0  0  0  0  0  0  0  0  0  0  0
  -33.5477   -1.2621   31.4926 C   0  0  0  0  0  0  0  0  0  0  0  0
  -33.7052   -2.0163   30.5825 C   0  0  0  0  0  0  0  0  0  0  0  0
  -34.9999   -2.0469   29.8393 C   0  0  0  0  0  0  0  0  0  0  0  0
  -35.9372   -1.1565   30.2561 C   0  0  0  0  0  0  0  0  0  0  0  0
  -35.7247   -0.2845   31.2521 C   0  0  0  0  0  0  0  0  0  0  0  0
  -34.4836   -0.2129   31.8761 C   0  0  0  0  0  0  0  0  0  0  0  0
  -31.1471    3.5058   32.7791 C   0  0  0  0  0  0  0  0  0  0  0  0
  -31.8927    4.5384   32.3400 C   0  0  0  0  0  0  0  0  0  0  0  0
  -33.1861    4.4252   31.9868 C   0  0  0  0  0  0  0  0  0  0  0  0
  7 11  1  0
  8 17  1  0
  6 18  1  0
 18 19  1  0
 19 20  1  0
 20 21  2  0
 20 22  1  0
 22 23  1  0
 23 24  2  3
 24 25  1  0
 25 26  2  3
 23 27  1  0
 26 33  1  0
 33 34  2  3
 34 35  1  0
 11 12  2  0
 12 13  1  0
 13 14  2  0
 14 15  1  0
 15 16  2  0
 16 11  1  0
  1  2  2  0
  2  3  1  0
  4  5  1  0
  5  6  2  0
  6  1  1  0
 27 28  2  0
 28 29  1  0
 29 30  2  0
 30 31  1  0
 31 32  2  0
 32 27  1  0
  3  4  2  0
  4 10  1  0
 10  9  2  0
  9  8  1  0
  8  7  2  0
  7  3  1  0
M  END

$$$$
