No_3244-gen_results/8p0m/2024-11-26-14-13-15/
     RDKit          3D

 23 25  0  0  0  0  0  0  0  0999 V2000
  -28.0162   -0.8135   28.8779 C   0  0  0  0  0  0  0  0  0  0  0  0
  -28.4690   -0.7850   29.8287 C   0  0  0  0  0  0  0  0  0  0  0  0
  -27.1356    0.2359   28.5352 C   0  0  0  0  0  0  0  0  0  0  0  0
  -26.3351    0.2900   27.2835 C   0  0  0  0  0  0  0  0  0  0  0  0
  -29.3807   -1.9134   30.3549 C   0  0  0  0  0  0  0  0  0  0  0  0
  -28.2295    0.3010   30.9036 C   0  0  0  0  0  0  0  0  0  0  0  0
  -25.3800    1.2740   27.0672 C   0  0  0  0  0  0  0  0  0  0  0  0
  -27.4150    1.3108   30.6139 C   0  0  0  0  0  0  0  0  0  0  0  0
  -26.7451    1.3177   29.4039 C   0  0  0  0  0  0  0  0  0  0  0  0
  -25.1639    2.3202   27.9821 C   0  0  0  0  0  0  0  0  0  0  0  0
  -25.8103    2.3449   29.1044 C   0  0  0  0  0  0  0  0  0  0  0  0
  -28.9654   -2.9395   30.5158 O   0  0  0  0  0  0  0  0  0  0  0  0
  -30.6694   -1.7062   30.2662 O   0  0  0  0  0  0  0  0  0  0  0  0
  -24.1223    3.3274   27.5305 C   0  0  0  0  0  0  0  0  0  0  0  0
  -23.4119    3.1210   26.4428 O   0  0  0  0  0  0  0  0  0  0  0  0
  -24.2207    4.5703   27.9531 O   0  0  0  0  0  0  0  0  0  0  0  0
  -25.5814    3.3016   30.0635 O   0  0  0  0  0  0  0  0  0  0  0  0
  -31.2737   -0.7209   30.1241 C   0  0  0  0  0  0  0  0  0  0  0  0
  -32.5899   -0.7586   29.9384 C   0  0  0  0  0  0  0  0  0  0  0  0
  -33.3723    0.4472   29.7388 C   0  0  0  0  0  0  0  0  0  0  0  0
  -32.6818    1.6937   29.7365 C   0  0  0  0  0  0  0  0  0  0  0  0
  -31.3170    1.7327   29.8807 C   0  0  0  0  0  0  0  0  0  0  0  0
  -30.6583    0.6328   30.0461 C   0  0  0  0  0  0  0  0  0  0  0  0
  3  4  1  0
  2  5  1  0
  7 10  1  0
  9 11  1  0
 10 11  1  0
  5 12  2  0
  5 13  1  0
 10 14  1  0
 14 15  2  0
 14 16  1  0
 11 17  2  0
 13 18  1  0
  4  7  1  0
  1  2  2  0
  2  6  1  0
  6  8  2  0
  8  9  1  0
  9  3  2  0
  3  1  1  0
 18 19  2  0
 19 20  1  0
 20 21  2  0
 21 22  1  0
 22 23  2  0
 23 18  1  0
M  END

$$$$
