No_313-gen_results/8p0m/2024-11-26-14-13-15/
     RDKit          3D

 20 23  0  0  0  0  0  0  0  0999 V2000
  -28.1229   -1.3353   28.4874 O   0  0  0  0  0  0  0  0  0  0  0  0
  -27.4806   -0.4044   28.7094 C   0  0  0  0  0  0  0  0  0  0  0  0
  -26.4599   -0.1104   28.0051 N   0  0  0  0  0  0  0  0  0  0  0  0
  -25.4297    0.8788   28.3572 C   0  0  0  0  0  0  0  0  0  0  0  0
  -24.3600    1.0559   27.5650 C   0  0  0  0  0  0  0  0  0  0  0  0
  -27.9530    0.7132   29.7121 C   0  0  0  0  0  0  0  0  0  0  0  0
  -23.1512    1.5610   28.0811 C   0  0  0  0  0  0  0  0  0  0  0  0
  -23.1600    1.8222   29.5234 C   0  0  0  0  0  0  0  0  0  0  0  0
  -24.2201    1.5697   30.3453 C   0  0  0  0  0  0  0  0  0  0  0  0
  -25.3459    0.9509   29.7570 C   0  0  0  0  0  0  0  0  0  0  0  0
  -26.7111    1.0728   30.5658 C   0  0  0  0  0  0  0  0  0  0  0  0
  -22.0768    1.9613   27.4403 O   0  0  0  0  0  0  0  0  0  0  0  0
  -26.5908    0.0842   31.7862 C   0  0  0  0  0  0  0  0  0  0  0  0
  -26.9028    2.5000   31.1173 C   0  0  0  0  0  0  0  0  0  0  0  0
  -26.8778    3.4980   30.4441 C   0  0  0  0  0  0  0  0  0  0  0  0
  -26.6969    4.7642   30.9533 C   0  0  0  0  0  0  0  0  0  0  0  0
  -26.7226    4.9177   32.3498 C   0  0  0  0  0  0  0  0  0  0  0  0
  -26.6787    3.8046   33.1948 C   0  0  0  0  0  0  0  0  0  0  0  0
  -26.7044    2.5236   32.5769 C   0  0  0  0  0  0  0  0  0  0  0  0
  -26.5830    1.2295   33.2080 C   0  0  0  0  0  0  0  0  0  0  0  0
  1  2  2  0
  2  3  1  0
  3  4  1  0
  2  6  1  0
  6 11  1  0
 10 11  1  0
  7 12  1  0
 11 13  1  0
 11 14  1  0
 13 20  1  0
 19 20  1  0
  4  5  2  0
  5  7  1  0
  7  8  2  0
  8  9  1  0
  9 10  2  0
 10  4  1  0
 14 15  2  0
 15 16  1  0
 16 17  2  0
 17 18  1  0
 18 19  2  0
 19 14  1  0
M  END

$$$$
