No_3973-gen_results/8p0m/2024-11-26-14-13-15/
     RDKit          3D

 32 34  0  0  0  0  0  0  0  0999 V2000
  -28.0162   -0.8135   28.8779 C   0  0  0  0  0  0  0  0  0  0  0  0
  -28.4690   -0.7850   29.8287 C   0  0  0  0  0  0  0  0  0  0  0  0
  -27.0871    0.2903   28.6377 C   0  0  0  0  0  0  0  0  0  0  0  0
  -26.8317    1.2487   29.5869 C   0  0  0  0  0  0  0  0  0  0  0  0
  -28.3914    0.0801   31.0065 C   0  0  0  0  0  0  0  0  0  0  0  0
  -27.4940    1.1521   30.7841 C   0  0  0  0  0  0  0  0  0  0  0  0
  -26.3109    0.3918   27.3640 C   0  0  0  0  0  0  0  0  0  0  0  0
  -25.5529   -0.4068   27.2286 F   0  0  0  0  0  0  0  0  0  0  0  0
  -27.2303    0.4032   26.3199 F   0  0  0  0  0  0  0  0  0  0  0  0
  -25.7069    1.6364   27.1432 F   0  0  0  0  0  0  0  0  0  0  0  0
  -29.3824   -1.9597   30.1915 N   0  0  0  0  0  0  0  0  0  0  0  0
  -28.9282   -3.2772   30.4495 C   0  0  0  0  0  0  0  0  0  0  0  0
  -27.7405   -3.4733   30.4152 O   0  0  0  0  0  0  0  0  0  0  0  0
  -29.9182   -4.2893   30.6682 C   0  0  0  0  0  0  0  0  0  0  0  0
  -30.5404   -4.7778   29.5525 C   0  0  0  0  0  0  0  0  0  0  0  0
  -31.4227   -5.9172   29.7020 C   0  0  0  0  0  0  0  0  0  0  0  0
  -31.6188   -6.4647   30.9739 C   0  0  0  0  0  0  0  0  0  0  0  0
  -29.9232   -5.0092   31.8541 C   0  0  0  0  0  0  0  0  0  0  0  0
  -30.8126   -6.0043   32.0695 C   0  0  0  0  0  0  0  0  0  0  0  0
  -30.7986   -1.6126   30.3382 C   0  0  0  0  0  0  0  0  0  0  0  0
  -31.4892   -1.4706   29.1560 C   0  0  0  0  0  0  0  0  0  0  0  0
  -32.8599   -1.2482   29.2687 C   0  0  0  0  0  0  0  0  0  0  0  0
  -33.4777   -1.2405   30.5680 C   0  0  0  0  0  0  0  0  0  0  0  0
  -31.3608   -1.5662   31.5836 C   0  0  0  0  0  0  0  0  0  0  0  0
  -32.7019   -1.3534   31.7307 C   0  0  0  0  0  0  0  0  0  0  0  0
  -27.2789    2.1945   31.8172 C   0  0  0  0  0  0  0  0  0  0  0  0
  -26.4044    3.2546   31.8562 Cl  0  0  0  0  0  0  0  0  0  0  0  0
  -28.1528    2.0841   33.0638 C   0  0  0  0  0  0  0  0  0  0  0  0
  -28.1035    2.8143   33.9050 C   0  0  0  0  0  0  0  0  0  0  0  0
  -28.7185    2.6538   35.2349 C   0  0  0  0  0  0  0  0  0  0  0  0
  -29.6295    1.5783   35.2867 C   0  0  0  0  0  0  0  0  0  0  0  0
  -29.7830    0.7211   34.2361 C   0  0  0  0  0  0  0  0  0  0  0  0
  3  7  1  0
  7  8  1  0
  7  9  1  0
  7 10  1  0
  2 11  1  0
 11 12  1  0
 12 13  2  0
 12 14  1  0
 11 20  1  0
  6 26  1  0
 26 27  1  0
 26 28  1  0
 28 29  2  3
 29 30  1  0
 30 31  2  3
 31 32  1  0
 20 21  2  0
 21 22  1  0
 22 23  2  0
 23 25  1  0
 25 24  2  0
 24 20  1  0
 14 15  2  0
 15 16  1  0
 16 17  2  0
 17 19  1  0
 19 18  2  0
 18 14  1  0
  1  2  2  0
  2  5  1  0
  5  6  2  0
  6  4  1  0
  4  3  2  0
  3  1  1  0
M  END

$$$$
