No_3877-gen_results/8p0m/2024-11-26-14-13-15/
     RDKit          3D

 13 13  0  0  0  0  0  0  0  0999 V2000
  -28.1229   -1.3353   28.4874 O   0  0  0  0  0  0  0  0  0  0  0  0
  -27.0637   -0.8242   28.8687 C   0  0  0  0  0  0  0  0  0  0  0  0
  -25.8078   -1.2265   28.9669 Cl  0  0  0  0  0  0  0  0  0  0  0  0
  -27.2294    0.6419   29.2856 N   0  0  0  0  0  0  0  0  0  0  0  0
  -28.4738    1.2765   29.2675 C   0  0  0  0  0  0  0  0  0  0  0  0
  -29.1710    1.1150   30.2217 C   0  0  0  0  0  0  0  0  0  0  0  0
  -28.7637    1.1967   31.4695 C   0  0  0  0  0  0  0  0  0  0  0  0
  -27.3672    1.5685   31.7070 C   0  0  0  0  0  0  0  0  0  0  0  0
  -26.2106    1.2891   30.9998 C   0  0  0  0  0  0  0  0  0  0  0  0
  -26.1340    1.0968   29.8352 C   0  0  0  0  0  0  0  0  0  0  0  0
  -30.6680    1.1822   30.1031 C   0  0  0  0  0  0  0  0  0  0  0  0
  -31.3730    0.0905   30.3872 C   0  0  0  0  0  0  0  0  0  0  0  0
  -32.8056    0.0303   30.1981 C   0  0  0  0  0  0  0  0  0  0  0  0
  1  2  2  0
  2  3  1  0
  2  4  1  0
  4  5  1  0
  5  6  1  0
  6  7  2  0
  7  8  1  0
  8  9  2  0
  4 10  1  0
  9 10  1  0
  6 11  1  0
 11 12  2  3
 12 13  1  0
M  END

$$$$
