No_3333-gen_results/8p0m/2024-11-26-14-13-15/
     RDKit          3D

 35 37  0  0  0  0  0  0  0  0999 V2000
  -28.0162   -0.8135   28.8779 C   0  0  0  0  0  0  0  0  0  0  0  0
  -27.0636   -0.1189   28.6079 C   0  0  0  0  0  0  0  0  0  0  0  0
  -27.0010    0.6913   27.4910 C   0  0  0  0  0  0  0  0  0  0  0  0
  -25.8548    1.4825   27.0830 C   0  0  0  0  0  0  0  0  0  0  0  0
  -24.6901    1.4526   27.8807 C   0  0  0  0  0  0  0  0  0  0  0  0
  -24.7379    0.6010   29.0416 C   0  0  0  0  0  0  0  0  0  0  0  0
  -25.8234   -0.1688   29.3887 C   0  0  0  0  0  0  0  0  0  0  0  0
  -29.2075   -0.1514   29.0660 N   0  0  0  0  0  0  0  0  0  0  0  0
  -30.2318   -0.7607   29.6957 C   0  0  0  0  0  0  0  0  0  0  0  0
  -23.4171    1.9100   27.5909 C   0  0  0  0  0  0  0  0  0  0  0  0
  -22.7545    1.4450   26.9963 F   0  0  0  0  0  0  0  0  0  0  0  0
  -22.8204    2.3719   28.8390 F   0  0  0  0  0  0  0  0  0  0  0  0
  -23.7171    3.2597   27.0578 F   0  0  0  0  0  0  0  0  0  0  0  0
  -31.5265   -0.5089   29.3172 C   0  0  0  0  0  0  0  0  0  0  0  0
  -30.0101   -1.6776   30.8098 C   0  0  0  0  0  0  0  0  0  0  0  0
  -31.0555   -2.3334   31.3924 N   0  0  0  0  0  0  0  0  0  0  0  0
  -32.6068   -1.2164   29.9674 C   0  0  0  0  0  0  0  0  0  0  0  0
  -32.3194   -2.0412   31.0292 C   0  0  0  0  0  0  0  0  0  0  0  0
  -27.9264   -1.9473   29.3137 O   0  0  0  0  0  0  0  0  0  0  0  0
  -30.7778   -3.2127   32.5379 C   0  0  0  0  0  0  0  0  0  0  0  0
  -29.8571   -4.2022   32.2445 C   0  0  0  0  0  0  0  0  0  0  0  0
  -28.7325   -3.7745   31.8945 F   0  0  0  0  0  0  0  0  0  0  0  0
  -29.6328   -5.0549   33.2495 F   0  0  0  0  0  0  0  0  0  0  0  0
  -30.3467   -4.9509   31.1561 F   0  0  0  0  0  0  0  0  0  0  0  0
  -28.1460    0.8781   26.6140 C   0  0  0  0  0  0  0  0  0  0  0  0
  -28.4286    0.1260   25.4998 C   0  0  0  0  0  0  0  0  0  0  0  0
  -29.5690    0.2815   24.7480 C   0  0  0  0  0  0  0  0  0  0  0  0
  -30.5578    1.1784   25.1489 C   0  0  0  0  0  0  0  0  0  0  0  0
  -30.3646    1.9865   26.2667 C   0  0  0  0  0  0  0  0  0  0  0  0
  -29.1865    1.8429   27.0518 C   0  0  0  0  0  0  0  0  0  0  0  0
  -31.4070    2.9388   26.6729 C   0  0  0  0  0  0  0  0  0  0  0  0
  -31.3102    3.6331   27.7317 N   0  0  0  0  0  0  0  0  0  0  0  0
  -32.2371    3.3136   25.8301 O   0  0  0  0  0  0  0  0  0  0  0  0
  -32.2753    4.5940   28.2064 C   0  0  0  0  0  0  0  0  0  0  0  0
  -32.3971    4.9500   29.1770 C   0  0  0  0  0  0  0  0  0  0  0  0
  1  2  1  0
  1  8  1  0
  8  9  1  0
  5 10  1  0
 10 11  1  0
 10 12  1  0
 10 13  1  0
  9 15  1  0
 15 16  1  0
 14 17  1  0
 16 18  1  0
  1 19  2  0
 16 20  1  0
 20 21  1  0
 21 22  1  0
 21 23  1  0
 21 24  1  0
  3 25  1  0
 29 31  1  0
 31 32  1  0
 31 33  2  0
 32 34  1  0
 34 35  2  0
  9 14  1  0
 17 18  1  0
  2  3  1  0
  3  4  2  0
  4  5  1  0
  5  6  2  0
  6  7  1  0
  7  2  2  0
 25 26  2  0
 26 27  1  0
 27 28  2  0
 28 29  1  0
 29 30  2  0
 30 25  1  0
M  END

$$$$
