No_3379-gen_results/8p0m/2024-11-26-14-13-15/
     RDKit          3D

 35 39  0  0  0  0  0  0  0  0999 V2000
  -28.1229   -1.3353   28.4874 O   0  0  0  0  0  0  0  0  0  0  0  0
  -27.0637   -0.8242   28.8687 C   0  0  0  0  0  0  0  0  0  0  0  0
  -25.9464   -1.0396   28.8492 C   0  0  0  0  0  0  0  0  0  0  0  0
  -24.7602   -0.1562   29.1644 C   0  0  0  0  0  0  0  0  0  0  0  0
  -25.0917    1.0791   29.6491 C   0  0  0  0  0  0  0  0  0  0  0  0
  -26.4090    1.4383   29.7067 C   0  0  0  0  0  0  0  0  0  0  0  0
  -27.3694    0.6586   29.4148 C   0  0  0  0  0  0  0  0  0  0  0  0
  -23.3561   -0.5639   29.1206 C   0  0  0  0  0  0  0  0  0  0  0  0
  -22.4322    0.2418   28.4552 C   0  0  0  0  0  0  0  0  0  0  0  0
  -22.8544    1.3978   27.7886 C   0  0  0  0  0  0  0  0  0  0  0  0
  -22.0758    1.9728   26.8038 C   0  0  0  0  0  0  0  0  0  0  0  0
  -22.4499    2.0648   25.6077 C   0  0  0  0  0  0  0  0  0  0  0  0
  -23.9168    2.2211   25.3576 C   0  0  0  0  0  0  0  0  0  0  0  0
  -24.7733    1.7931   26.3755 C   0  0  0  0  0  0  0  0  0  0  0  0
  -24.2776    1.4886   27.5280 C   0  0  0  0  0  0  0  0  0  0  0  0
  -24.7635    1.5154   28.6876 N   0  0  0  0  0  0  0  0  0  0  0  0
  -25.2646    3.1036   28.7713 C   0  0  0  0  0  0  0  0  0  0  0  0
  -26.6870    1.9694   31.2208 C   0  0  0  0  0  0  0  0  0  0  0  0
  -25.9451    3.6516   27.7302 C   0  0  0  0  0  0  0  0  0  0  0  0
  -27.7590    2.8556   31.3665 C   0  0  0  0  0  0  0  0  0  0  0  0
  -27.9214    3.4284   32.6032 C   0  0  0  0  0  0  0  0  0  0  0  0
  -28.9355    4.3213   32.9153 C   0  0  0  0  0  0  0  0  0  0  0  0
  -29.8297    4.5973   31.8992 C   0  0  0  0  0  0  0  0  0  0  0  0
  -29.6801    4.0185   30.6375 C   0  0  0  0  0  0  0  0  0  0  0  0
  -28.6578    3.1517   30.3821 C   0  0  0  0  0  0  0  0  0  0  0  0
  -25.9544    5.1061   27.7224 C   0  0  0  0  0  0  0  0  0  0  0  0
  -26.4747    5.7899   28.4455 C   0  0  0  0  0  0  0  0  0  0  0  0
  -26.4397    7.2795   28.4944 C   0  0  0  0  0  0  0  0  0  0  0  0
  -25.7183    7.8819   27.5300 C   0  0  0  0  0  0  0  0  0  0  0  0
  -25.0127    7.1351   26.5653 C   0  0  0  0  0  0  0  0  0  0  0  0
  -25.0558    5.7060   26.6898 C   0  0  0  0  0  0  0  0  0  0  0  0
  -27.4523    3.2229   27.7615 C   0  0  0  0  0  0  0  0  0  0  0  0
  -28.0373    2.8279   26.4904 C   0  0  0  0  0  0  0  0  0  0  0  0
  -29.3362    2.4646   26.4592 C   0  0  0  0  0  0  0  0  0  0  0  0
  -29.8087    1.7319   25.4256 C   0  0  0  0  0  0  0  0  0  0  0  0
  1  2  2  0
  2  3  1  0
  3  4  1  0
  4  5  1  0
  5  6  1  0
  2  7  1  0
  6  7  1  0
  4  8  1  0
  8  9  1  0
  9 10  1  0
  5 16  1  0
 15 16  1  0
 16 17  1  0
  6 18  1  0
 17 19  1  0
 19 26  1  0
 19 32  1  0
 32 33  2  3
 33 34  1  0
 34 35  2  0
 18 20  1  0
 26 27  2  0
 27 28  1  0
 28 29  2  0
 29 30  1  0
 30 31  2  0
 31 26  1  0
 10 11  2  0
 11 12  1  0
 12 13  2  0
 13 14  1  0
 14 15  2  0
 15 10  1  0
 20 21  2  0
 21 22  1  0
 22 23  2  0
 23 24  1  0
 24 25  2  0
 25 20  1  0
M  END

$$$$
