No_3027-gen_results/8p0m/2024-11-26-14-13-15/
     RDKit          3D

 10 10  0  0  0  0  0  0  0  0999 V2000
  -28.0727   -1.2542   28.5316 F   0  0  0  0  0  0  0  0  0  0  0  0
  -28.2662   -0.4214   29.1931 C   0  0  0  0  0  0  0  0  0  0  0  0
  -27.4413   -0.2944   30.1102 F   0  0  0  0  0  0  0  0  0  0  0  0
  -28.3588    0.8955   28.4382 C   0  0  0  0  0  0  0  0  0  0  0  0
  -27.9207    1.8092   28.7554 C   0  0  0  0  0  0  0  0  0  0  0  0
  -27.9705    3.1348   28.0798 C   0  0  0  0  0  0  0  0  0  0  0  0
  -28.6617    3.1239   26.8263 C   0  0  0  0  0  0  0  0  0  0  0  0
  -29.2355    1.9311   26.3989 C   0  0  0  0  0  0  0  0  0  0  0  0
  -29.0988    0.7815   27.1553 C   0  0  0  0  0  0  0  0  0  0  0  0
  -29.4798   -0.6228   29.8316 F   0  0  0  0  0  0  0  0  0  0  0  0
  1  2  1  0
  2  3  1  0
  2  4  1  0
  2 10  1  0
  4  5  2  0
  5  6  1  0
  6  7  2  0
  7  8  1  0
  8  9  2  0
  9  4  1  0
M  END

$$$$
