No_3777-gen_results/8p0m/2024-11-26-14-13-15/
     RDKit          3D

 17 18  0  0  0  0  0  0  0  0999 V2000
  -28.1229   -1.3353   28.4874 O   0  0  0  0  0  0  0  0  0  0  0  0
  -28.5208   -0.4363   29.0779 C   0  0  0  0  0  0  0  0  0  0  0  0
  -27.6655    0.1129   30.0346 C   0  0  0  0  0  0  0  0  0  0  0  0
  -29.8108   -0.1163   29.1503 N   0  0  0  0  0  0  0  0  0  0  0  0
  -27.8986    0.9581   30.9114 C   0  0  0  0  0  0  0  0  0  0  0  0
  -30.1812    0.8068   29.8206 C   0  0  0  0  0  0  0  0  0  0  0  0
  -29.3852    1.4454   30.8467 C   0  0  0  0  0  0  0  0  0  0  0  0
  -31.5036    1.1835   29.8603 N   0  0  0  0  0  0  0  0  0  0  0  0
  -32.3657    0.8935   29.0008 C   0  0  0  0  0  0  0  0  0  0  0  0
  -33.7201    1.3613   29.0396 C   0  0  0  0  0  0  0  0  0  0  0  0
  -32.0584    2.0152   30.9608 C   0  0  0  0  0  0  0  0  0  0  0  0
  -33.2784    2.4788   31.0528 C   0  0  0  0  0  0  0  0  0  0  0  0
  -34.1401    2.1181   30.0344 C   0  0  0  0  0  0  0  0  0  0  0  0
  -35.3924    2.5053   30.0124 F   0  0  0  0  0  0  0  0  0  0  0  0
  -34.5032    0.8900   27.9240 C   0  0  0  0  0  0  0  0  0  0  0  0
  -34.2917    0.1315   27.0875 O   0  0  0  0  0  0  0  0  0  0  0  0
  -35.7334    1.3840   27.8817 O   0  0  0  0  0  0  0  0  0  0  0  0
  1  2  2  0
  2  3  1  0
  2  4  1  0
  4  6  1  0
  5  7  1  0
  6  7  1  0
  6  8  1  0
  8  9  1  0
  8 11  1  0
 10 13  1  0
 12 13  1  0
 13 14  1  0
 10 15  1  0
 15 16  2  0
 15 17  1  0
  9 10  1  0
 12 11  1  0
  3  5  1  0
M  END

$$$$
