No_3058-gen_results/8p0m/2024-11-26-14-13-15/
     RDKit          3D

 15 16  0  0  0  0  0  0  0  0999 V2000
  -28.0162   -0.8135   28.8779 C   0  0  0  0  0  0  0  0  0  0  0  0
  -28.4690   -0.7850   29.8287 C   0  0  0  0  0  0  0  0  0  0  0  0
  -26.5042   -0.7777   28.8766 C   0  0  0  0  0  0  0  0  0  0  0  0
  -25.8305   -1.6807   29.6849 C   0  0  0  0  0  0  0  0  0  0  0  0
  -28.1490   -1.8854   30.9031 C   0  0  0  0  0  0  0  0  0  0  0  0
  -26.6460   -1.9561   31.0330 C   0  0  0  0  0  0  0  0  0  0  0  0
  -28.6274   -1.7308   32.1858 O   0  0  0  0  0  0  0  0  0  0  0  0
  -28.3743    0.3791   30.6885 O   0  0  0  0  0  0  0  0  0  0  0  0
  -24.3919   -1.3803   29.9350 C   0  0  0  0  0  0  0  0  0  0  0  0
  -24.0297   -0.5847   31.0024 C   0  0  0  0  0  0  0  0  0  0  0  0
  -24.8355    0.1390   31.8067 C   0  0  0  0  0  0  0  0  0  0  0  0
  -24.8042    1.6493   31.9005 C   0  0  0  0  0  0  0  0  0  0  0  0
  -23.9840    2.3224   30.9295 C   0  0  0  0  0  0  0  0  0  0  0  0
  -23.1966    1.5092   30.1091 C   0  0  0  0  0  0  0  0  0  0  0  0
  -23.1893    0.1529   30.1192 C   0  0  0  0  0  0  0  0  0  0  0  0
  1  2  1  0
  1  3  1  0
  3  4  1  0
  2  5  1  0
  4  6  1  0
  5  6  1  0
  5  7  1  0
  2  8  1  0
  4  9  1  0
  9 10  1  0
 10 11  2  0
 11 12  1  0
 12 13  2  0
 13 14  1  0
 14 15  2  0
 15 10  1  0
M  END

$$$$
