No_3245-gen_results/8p0m/2024-11-26-14-13-15/
     RDKit          3D

 26 30  0  0  0  0  0  0  0  0999 V2000
  -28.0162   -0.8135   28.8779 C   0  0  0  0  0  0  0  0  0  0  0  0
  -27.0636   -0.1189   28.6079 C   0  0  0  0  0  0  0  0  0  0  0  0
  -25.7923   -0.4302   29.0761 C   0  0  0  0  0  0  0  0  0  0  0  0
  -24.5456    0.3494   28.8225 C   0  0  0  0  0  0  0  0  0  0  0  0
  -24.6586    1.4196   27.8878 C   0  0  0  0  0  0  0  0  0  0  0  0
  -25.9471    1.6811   27.3792 C   0  0  0  0  0  0  0  0  0  0  0  0
  -27.0439    0.9739   27.6871 C   0  0  0  0  0  0  0  0  0  0  0  0
  -28.0241   -1.6475   30.1262 C   0  0  0  0  0  0  0  0  0  0  0  0
  -26.7278   -2.0846   30.5807 C   0  0  0  0  0  0  0  0  0  0  0  0
  -25.5915   -1.4064   30.1489 C   0  0  0  0  0  0  0  0  0  0  0  0
  -23.5241    2.1263   27.5429 N   0  0  0  0  0  0  0  0  0  0  0  0
  -22.2618    1.6476   27.8904 C   0  0  0  0  0  0  0  0  0  0  0  0
  -22.1073    0.6978   28.7724 N   0  0  0  0  0  0  0  0  0  0  0  0
  -23.2079   -0.0534   29.2088 C   0  0  0  0  0  0  0  0  0  0  0  0
  -28.3496    1.3115   27.0278 C   0  0  0  0  0  0  0  0  0  0  0  0
  -28.3089    1.8759   25.8345 C   0  0  0  0  0  0  0  0  0  0  0  0
  -27.1370    2.7445   25.5389 C   0  0  0  0  0  0  0  0  0  0  0  0
  -25.9636    2.6188   26.2499 C   0  0  0  0  0  0  0  0  0  0  0  0
  -29.3537   -2.5621   30.5647 Cl  0  0  0  0  0  0  0  0  0  0  0  0
  -22.9142   -1.3482   30.2245 Cl  0  0  0  0  0  0  0  0  0  0  0  0
  -29.4769    2.2297   25.0960 C   0  0  0  0  0  0  0  0  0  0  0  0
  -30.1270    3.3044   25.3587 C   0  0  0  0  0  0  0  0  0  0  0  0
  -31.3389    3.7145   24.6462 C   0  0  0  0  0  0  0  0  0  0  0  0
  -31.7785    2.8711   23.6429 C   0  0  0  0  0  0  0  0  0  0  0  0
  -29.8662    1.3822   24.0725 C   0  0  0  0  0  0  0  0  0  0  0  0
  -31.0262    1.7083   23.3423 C   0  0  0  0  0  0  0  0  0  0  0  0
  8 19  1  0
 14 20  1  0
 16 21  1  0
  1  2  2  0
  3 10  2  0
 10  9  1  0
  9  8  2  0
  8  1  1  0
 21 22  2  0
 22 23  1  0
 23 24  2  0
 24 26  1  0
 26 25  2  0
 25 21  1  0
  2  3  1  0
  3  4  1  0
  5  6  1  0
  7  2  1  0
  6  7  2  0
  7 15  1  0
 15 16  2  0
 16 17  1  0
 17 18  2  0
 18  6  1  0
  4  5  2  0
  5 11  1  0
 11 12  2  0
 12 13  1  0
 13 14  2  0
 14  4  1  0
M  END

$$$$
