No_3060-gen_results/8p0m/2024-11-26-14-13-15/
     RDKit          3D

 22 25  0  0  0  0  0  0  0  0999 V2000
  -28.0162   -0.8135   28.8779 C   0  0  0  0  0  0  0  0  0  0  0  0
  -27.0636   -0.1190   28.6079 C   0  0  0  0  0  0  0  0  0  0  0  0
  -26.9716    0.7139   27.5060 C   0  0  0  0  0  0  0  0  0  0  0  0
  -28.1053    0.7744   26.6421 C   0  0  0  0  0  0  0  0  0  0  0  0
  -29.2041    0.1179   27.0477 C   0  0  0  0  0  0  0  0  0  0  0  0
  -29.2127   -0.6088   28.1281 C   0  0  0  0  0  0  0  0  0  0  0  0
  -25.7992    1.4100   27.1551 N   0  0  0  0  0  0  0  0  0  0  0  0
  -24.6487    1.1359   27.7450 C   0  0  0  0  0  0  0  0  0  0  0  0
  -24.2636    0.1587   28.4692 C   0  0  0  0  0  0  0  0  0  0  0  0
  -23.0051   -0.0889   29.0877 C   0  0  0  0  0  0  0  0  0  0  0  0
  -22.0900    0.5451   28.7419 C   0  0  0  0  0  0  0  0  0  0  0  0
  -23.4062    1.8919   27.2856 C   0  0  0  0  0  0  0  0  0  0  0  0
  -22.1340    1.5913   27.8216 C   0  0  0  0  0  0  0  0  0  0  0  0
  -25.6261   -0.4190   29.2646 C   0  0  0  0  0  0  0  0  0  0  0  0
  -25.4400   -1.2729   30.1193 F   0  0  0  0  0  0  0  0  0  0  0  0
  -30.4329    0.2985   26.2373 C   0  0  0  0  0  0  0  0  0  0  0  0
  -31.4581    0.0337   26.5801 O   0  0  0  0  0  0  0  0  0  0  0  0
  -30.2579    0.7120   24.9062 N   0  0  0  0  0  0  0  0  0  0  0  0
  -25.8304    2.1024   25.8546 C   0  0  0  0  0  0  0  0  0  0  0  0
  -31.3457    0.8153   23.9600 C   0  0  0  0  0  0  0  0  0  0  0  0
  -29.0010    1.1129   24.2492 C   0  0  0  0  0  0  0  0  0  0  0  0
  -27.9840    1.3267   25.3626 N   0  0  0  0  0  0  0  0  0  0  0  0
  3  7  1  0
  7  8  1  0
  2 14  1  0
  9 14  1  0
 14 15  1  0
  5 16  1  0
 16 17  2  0
 16 18  1  0
  7 19  1  0
 18 20  1  0
 18 21  1  0
 21 22  1  0
  4 22  1  0
  1  2  2  0
  2  3  1  0
  3  4  2  0
  4  5  1  0
  5  6  2  0
  6  1  1  0
  8 12  2  0
 12 13  1  0
 13 11  2  0
 11 10  1  0
 10  9  2  0
  9  8  1  0
M  END

$$$$
