No_3216-gen_results/8p0m/2024-11-26-14-13-15/
     RDKit          3D

 23 25  0  0  0  0  0  0  0  0999 V2000
  -28.0162   -0.8135   28.8779 C   0  0  0  0  0  0  0  0  0  0  0  0
  -28.4690   -0.7850   29.8287 C   0  0  0  0  0  0  0  0  0  0  0  0
  -27.1356    0.2359   28.5352 C   0  0  0  0  0  0  0  0  0  0  0  0
  -26.8745    1.2825   29.3982 C   0  0  0  0  0  0  0  0  0  0  0  0
  -28.3613    0.1987   30.9244 C   0  0  0  0  0  0  0  0  0  0  0  0
  -27.5277    1.2234   30.6356 C   0  0  0  0  0  0  0  0  0  0  0  0
  -26.3987    0.2949   27.2279 C   0  0  0  0  0  0  0  0  0  0  0  0
  -26.0303    1.4479   26.7584 N   0  0  0  0  0  0  0  0  0  0  0  0
  -25.7577   -0.6786   26.8010 O   0  0  0  0  0  0  0  0  0  0  0  0
  -25.1266    1.6866   25.9459 C   0  0  0  0  0  0  0  0  0  0  0  0
  -24.0913    2.7227   26.2860 C   0  0  0  0  0  0  0  0  0  0  0  0
  -24.2266    3.3584   27.5393 C   0  0  0  0  0  0  0  0  0  0  0  0
  -26.8858    2.6652   27.0911 C   0  0  0  0  0  0  0  0  0  0  0  0
  -25.7072    3.9446   27.6449 C   0  0  0  0  0  0  0  0  0  0  0  0
  -25.9803    4.3344   29.0706 C   0  0  0  0  0  0  0  0  0  0  0  0
  -26.9734    5.3107   29.1436 C   0  0  0  0  0  0  0  0  0  0  0  0
  -27.4143    5.5740   30.4440 C   0  0  0  0  0  0  0  0  0  0  0  0
  -26.6530    5.1896   31.5743 C   0  0  0  0  0  0  0  0  0  0  0  0
  -25.6166    4.2509   31.4200 C   0  0  0  0  0  0  0  0  0  0  0  0
  -25.2691    3.8560   30.1310 C   0  0  0  0  0  0  0  0  0  0  0  0
  -25.8761    5.0454   26.5944 C   0  0  0  0  0  0  0  0  0  0  0  0
  -27.9285    2.9398   26.9236 O   0  0  0  0  0  0  0  0  0  0  0  0
  -24.9373    3.8005   32.4879 O   0  0  0  0  0  0  0  0  0  0  0  0
  3  7  1  0
  7  8  1  0
  7  9  2  0
  8 10  1  0
 10 11  1  0
 11 12  1  0
  8 13  1  0
 12 14  1  0
 13 14  1  0
 14 15  1  0
 14 21  1  0
 13 22  2  0
 19 23  1  0
 15 16  2  0
 16 17  1  0
 17 18  2  0
 18 19  1  0
 19 20  2  0
 20 15  1  0
  1  2  2  0
  2  5  1  0
  5  6  2  0
  6  4  1  0
  4  3  2  0
  3  1  1  0
M  END

$$$$
