No_394-gen_results/8p0m/2024-11-26-14-13-15/
     RDKit          3D

 26 28  0  0  0  0  0  0  0  0999 V2000
  -28.1229   -1.3353   28.4874 O   0  0  0  0  0  0  0  0  0  0  0  0
  -28.5208   -0.4363   29.0779 C   0  0  0  0  0  0  0  0  0  0  0  0
  -27.6655    0.1129   30.0346 C   0  0  0  0  0  0  0  0  0  0  0  0
  -29.7419    0.1102   28.8873 N   0  0  0  0  0  0  0  0  0  0  0  0
  -27.8398    1.2287   30.6424 C   0  0  0  0  0  0  0  0  0  0  0  0
  -30.6057   -0.3352   28.0357 C   0  0  0  0  0  0  0  0  0  0  0  0
  -26.3441   -0.6294   30.3280 C   0  0  0  0  0  0  0  0  0  0  0  0
  -25.4257   -0.0849   31.2829 C   0  0  0  0  0  0  0  0  0  0  0  0
  -26.8760    1.7816   31.6371 C   0  0  0  0  0  0  0  0  0  0  0  0
  -25.7247    1.1318   31.9232 C   0  0  0  0  0  0  0  0  0  0  0  0
  -31.6564   -0.5995   27.9550 C   0  0  0  0  0  0  0  0  0  0  0  0
  -32.4687   -1.0590   26.8005 C   0  0  0  0  0  0  0  0  0  0  0  0
  -31.7615   -1.0873   25.5659 C   0  0  0  0  0  0  0  0  0  0  0  0
  -30.4153   -0.6779   25.5516 C   0  0  0  0  0  0  0  0  0  0  0  0
  -29.7989   -0.2088   26.6238 C   0  0  0  0  0  0  0  0  0  0  0  0
  -27.1599    3.1004   32.2803 C   0  0  0  0  0  0  0  0  0  0  0  0
  -27.0005    4.1589   31.5578 C   0  0  0  0  0  0  0  0  0  0  0  0
  -26.7804    4.3769   30.4111 C   0  0  0  0  0  0  0  0  0  0  0  0
  -26.5903    5.6536   29.7136 C   0  0  0  0  0  0  0  0  0  0  0  0
  -26.4464    6.7592   30.5188 C   0  0  0  0  0  0  0  0  0  0  0  0
  -26.5702    6.6627   31.8665 C   0  0  0  0  0  0  0  0  0  0  0  0
  -26.7921    5.4497   32.4831 C   0  0  0  0  0  0  0  0  0  0  0  0
  -27.7390    2.9376   33.6324 C   0  0  0  0  0  0  0  0  0  0  0  0
  -28.4770    3.1569   34.3909 C   0  0  0  0  0  0  0  0  0  0  0  0
  -28.4386    2.8787   35.7530 C   0  0  0  0  0  0  0  0  0  0  0  0
  -27.4351    2.0398   36.1827 C   0  0  0  0  0  0  0  0  0  0  0  0
  1  2  2  0
  2  3  1  0
  2  4  1  0
  4  6  1  0
  9 16  1  0
 16 17  1  0
 16 23  1  0
 23 24  2  3
 24 25  1  0
 25 26  2  0
  6 11  2  0
 11 12  1  0
 12 13  2  0
 13 14  1  0
 14 15  2  0
 15  6  1  0
 17 18  2  0
 18 19  1  0
 19 20  2  0
 20 21  1  0
 21 22  2  0
 22 17  1  0
  3  5  2  0
  5  9  1  0
  9 10  2  0
 10  8  1  0
  8  7  2  0
  7  3  1  0
M  END

$$$$
