No_3375-gen_results/8p0m/2024-11-26-14-13-15/
     RDKit          3D

 35 39  0  0  0  0  0  0  0  0999 V2000
  -28.0162   -0.8135   28.8779 C   0  0  0  0  0  0  0  0  0  0  0  0
  -27.0636   -0.1189   28.6079 C   0  0  0  0  0  0  0  0  0  0  0  0
  -25.7923   -0.4302   29.0761 C   0  0  0  0  0  0  0  0  0  0  0  0
  -25.5756   -1.5654   29.9363 C   0  0  0  0  0  0  0  0  0  0  0  0
  -26.7354   -2.3004   30.2173 C   0  0  0  0  0  0  0  0  0  0  0  0
  -27.9184   -1.9537   29.7629 C   0  0  0  0  0  0  0  0  0  0  0  0
  -29.0732   -2.7835   30.1783 C   0  0  0  0  0  0  0  0  0  0  0  0
  -28.9369   -4.0716   30.3653 N   0  0  0  0  0  0  0  0  0  0  0  0
  -30.2024   -2.2678   30.3207 O   0  0  0  0  0  0  0  0  0  0  0  0
  -29.9963   -5.0043   30.6887 C   0  0  0  0  0  0  0  0  0  0  0  0
  -29.8460   -5.6297   31.9123 C   0  0  0  0  0  0  0  0  0  0  0  0
  -30.9263   -5.5590   32.7210 C   0  0  0  0  0  0  0  0  0  0  0  0
  -32.2222   -5.4222   32.1815 C   0  0  0  0  0  0  0  0  0  0  0  0
  -32.2854   -4.8244   30.9015 C   0  0  0  0  0  0  0  0  0  0  0  0
  -30.9395   -5.2536   29.8155 C   0  0  0  0  0  0  0  0  0  0  0  0
  -24.5305    0.3483   28.7107 C   0  0  0  0  0  0  0  0  0  0  0  0
  -23.3268    0.0429   29.2552 C   0  0  0  0  0  0  0  0  0  0  0  0
  -23.1920   -1.0126   30.1065 C   0  0  0  0  0  0  0  0  0  0  0  0
  -24.3145   -1.8317   30.4973 C   0  0  0  0  0  0  0  0  0  0  0  0
  -22.1471    0.8162   28.8787 C   0  0  0  0  0  0  0  0  0  0  0  0
  -20.9993    0.1906   28.7005 N   0  0  0  0  0  0  0  0  0  0  0  0
  -22.2261    2.0131   28.4575 O   0  0  0  0  0  0  0  0  0  0  0  0
  -27.3314    1.1118   27.8564 C   0  0  0  0  0  0  0  0  0  0  0  0
  -27.4879    2.2687   28.4917 C   0  0  0  0  0  0  0  0  0  0  0  0
  -27.5345    2.4201   29.9436 C   0  0  0  0  0  0  0  0  0  0  0  0
  -27.4375    3.2284   30.5647 C   0  0  0  0  0  0  0  0  0  0  0  0
  -27.4074    4.5903   29.9379 C   0  0  0  0  0  0  0  0  0  0  0  0
  -27.3415    4.6872   28.5709 C   0  0  0  0  0  0  0  0  0  0  0  0
  -27.3025    3.5091   27.8499 C   0  0  0  0  0  0  0  0  0  0  0  0
  -27.4925    0.9538   26.4469 C   0  0  0  0  0  0  0  0  0  0  0  0
  -27.1813    0.2500   25.6785 C   0  0  0  0  0  0  0  0  0  0  0  0
  -27.5536    0.1233   24.2955 C   0  0  0  0  0  0  0  0  0  0  0  0
  -28.6127    0.9618   23.8962 C   0  0  0  0  0  0  0  0  0  0  0  0
  -29.1773    1.8435   24.7861 C   0  0  0  0  0  0  0  0  0  0  0  0
  -28.6870    1.9151   26.1301 C   0  0  0  0  0  0  0  0  0  0  0  0
  6  7  1  0
  7  8  1  0
  7  9  2  0
  8 10  1  0
 17 20  1  0
 20 21  1  0
 20 22  2  0
  2 23  1  0
 23 30  1  0
 23 24  1  0
  1  2  2  0
  2  3  1  0
  4  5  1  0
  5  6  2  0
  6  1  1  0
 24 25  2  0
 25 26  1  0
 26 27  2  0
 27 28  1  0
 28 29  2  0
 29 24  1  0
 30 31  2  0
 31 32  1  0
 32 33  2  0
 33 34  1  0
 34 35  2  0
 35 30  1  0
 10 11  2  0
 11 12  1  0
 12 13  2  0
 13 14  1  0
 14 15  2  0
 15 10  1  0
  3  4  2  0
  4 19  1  0
 19 18  2  0
 18 17  1  0
 17 16  2  0
 16  3  1  0
M  END

$$$$
