No_332-gen_results/8p0m/2024-11-26-14-13-15/
     RDKit          3D

 35 37  0  0  0  0  0  0  0  0999 V2000
  -28.0162   -0.8135   28.8779 C   0  0  0  0  0  0  0  0  0  0  0  0
  -27.0636   -0.1190   28.6079 C   0  0  0  0  0  0  0  0  0  0  0  0
  -26.8756    1.1325   28.9134 C   0  0  0  0  0  0  0  0  0  0  0  0
  -27.9014    1.8066   29.6436 C   0  0  0  0  0  0  0  0  0  0  0  0
  -29.0458   -0.2316   29.7181 C   0  0  0  0  0  0  0  0  0  0  0  0
  -28.9402    1.0517   30.0597 C   0  0  0  0  0  0  0  0  0  0  0  0
  -25.8732   -0.7125   27.8045 C   0  0  0  0  0  0  0  0  0  0  0  0
  -25.2858    0.0505   26.8000 C   0  0  0  0  0  0  0  0  0  0  0  0
  -25.0891    1.4165   27.0153 C   0  0  0  0  0  0  0  0  0  0  0  0
  -26.0930    2.0161   27.9805 C   0  0  0  0  0  0  0  0  0  0  0  0
  -24.1884    2.1839   26.2738 C   0  0  0  0  0  0  0  0  0  0  0  0
  -23.8107    3.4411   26.6739 C   0  0  0  0  0  0  0  0  0  0  0  0
  -23.4658    1.5877   25.2147 C   0  0  0  0  0  0  0  0  0  0  0  0
  -30.0835   -1.1633   30.2894 C   0  0  0  0  0  0  0  0  0  0  0  0
  -29.9645   -2.0890   30.7507 O   0  0  0  0  0  0  0  0  0  0  0  0
  -31.3221   -0.6669   30.1126 O   0  0  0  0  0  0  0  0  0  0  0  0
  -32.3836   -1.4844   30.0323 C   0  0  0  0  0  0  0  0  0  0  0  0
  -33.2590   -1.1601   28.9223 C   0  0  0  0  0  0  0  0  0  0  0  0
  -33.9189   -1.8916   28.4208 O   0  0  0  0  0  0  0  0  0  0  0  0
  -33.5603    0.1286   28.7270 O   0  0  0  0  0  0  0  0  0  0  0  0
  -24.9509    4.1434   26.1782 Br  0  0  0  0  0  0  0  0  0  0  0  0
  -33.7365    0.9986   29.3344 C   0  0  0  0  0  0  0  0  0  0  0  0
  -34.7573    1.2862   30.0456 C   0  0  0  0  0  0  0  0  0  0  0  0
  -34.8421    2.4495   30.9021 C   0  0  0  0  0  0  0  0  0  0  0  0
  -35.9530    2.7590   31.7585 C   0  0  0  0  0  0  0  0  0  0  0  0
  -37.0083    1.7968   31.6488 C   0  0  0  0  0  0  0  0  0  0  0  0
  -36.9325    0.6930   30.8468 C   0  0  0  0  0  0  0  0  0  0  0  0
  -35.8280    0.4194   30.1185 C   0  0  0  0  0  0  0  0  0  0  0  0
  -38.2265    2.0739   32.4766 C   0  0  0  0  0  0  0  0  0  0  0  0
  -38.2202    2.8555   33.3507 O   0  0  0  0  0  0  0  0  0  0  0  0
  -39.3637    1.5743   31.9035 N   0  0  0  0  0  0  0  0  0  0  0  0
  -40.6164    1.7989   32.5460 C   0  0  0  0  0  0  0  0  0  0  0  0
  -41.6412    1.3429   31.9575 C   0  0  0  0  0  0  0  0  0  0  0  0
  -42.9418    1.5079   32.5054 C   0  0  0  0  0  0  0  0  0  0  0  0
  -44.1392    1.0202   31.9284 C   0  0  0  0  0  0  0  0  0  0  0  0
  9 11  1  0
 11 12  1  0
 11 13  1  0
  5 14  1  0
 14 15  2  0
 14 16  1  0
 16 17  1  0
 17 18  1  0
 18 19  2  0
 18 20  1  0
 12 21  1  0
 20 22  1  0
 26 29  1  0
 29 30  2  0
 29 31  1  0
 31 32  1  0
 32 33  2  3
 33 34  1  0
 34 35  2  0
 22 23  1  0
 23 24  2  0
 24 25  1  0
 25 26  2  0
 26 27  1  0
 27 28  2  0
 28 23  1  0
  1  2  2  0
  3  4  2  0
  4  6  1  0
  6  5  2  0
  5  1  1  0
  2  3  1  0
  3 10  1  0
 10  9  2  0
  9  8  1  0
  8  7  2  0
  7  2  1  0
M  END

$$$$
