No_3026-gen_results/8p0m/2024-11-26-14-13-15/
     RDKit          3D

 23 25  0  0  0  0  0  0  0  0999 V2000
  -28.0162   -0.8135   28.8779 C   0  0  0  0  0  0  0  0  0  0  0  0
  -27.0636   -0.1190   28.6079 C   0  0  0  0  0  0  0  0  0  0  0  0
  -26.9287    1.1713   29.0083 C   0  0  0  0  0  0  0  0  0  0  0  0
  -27.9560    1.7411   29.7840 C   0  0  0  0  0  0  0  0  0  0  0  0
  -29.0569   -0.3271   29.7466 C   0  0  0  0  0  0  0  0  0  0  0  0
  -28.9828    0.9722   30.1516 C   0  0  0  0  0  0  0  0  0  0  0  0
  -25.8907   -0.6263   27.7857 C   0  0  0  0  0  0  0  0  0  0  0  0
  -25.4633    0.1123   26.6815 C   0  0  0  0  0  0  0  0  0  0  0  0
  -25.0310   -1.6701   28.2406 C   0  0  0  0  0  0  0  0  0  0  0  0
  -24.3963   -1.7192   29.4773 C   0  0  0  0  0  0  0  0  0  0  0  0
  -24.2526   -0.5367   30.3229 C   0  0  0  0  0  0  0  0  0  0  0  0
  -23.1197    0.2953   30.0441 C   0  0  0  0  0  0  0  0  0  0  0  0
  -25.1529   -0.3542   31.3952 C   0  0  0  0  0  0  0  0  0  0  0  0
  -25.0340    0.7882   32.2121 C   0  0  0  0  0  0  0  0  0  0  0  0
  -22.2213    0.1473   29.0051 C   0  0  0  0  0  0  0  0  0  0  0  0
  -24.2370    1.9287   31.7468 C   0  0  0  0  0  0  0  0  0  0  0  0
  -23.2103    1.6606   30.7977 C   0  0  0  0  0  0  0  0  0  0  0  0
  -24.6259    1.1871   26.7315 C   0  0  0  0  0  0  0  0  0  0  0  0
  -24.0314    1.7914   27.8318 C   0  0  0  0  0  0  0  0  0  0  0  0
  -22.8690    2.6544   27.3744 C   0  0  0  0  0  0  0  0  0  0  0  0
  -24.4415    1.9862   25.5102 C   0  0  0  0  0  0  0  0  0  0  0  0
  -23.2090    2.9415   26.0009 C   0  0  0  0  0  0  0  0  0  0  0  0
  -26.0403   -0.2871   25.4094 C   0  0  0  0  0  0  0  0  0  0  0  0
  2  7  1  0
  7  8  1  0
  7  9  1  0
  9 10  2  3
 10 11  1  0
 12 15  1  0
  8 18  2  3
 18 19  1  0
 19 20  2  0
 18 21  1  0
 20 22  1  0
 21 22  2  0
  8 23  1  0
  1  2  2  0
  2  3  1  0
  3  4  2  0
  4  6  1  0
  6  5  2  0
  5  1  1  0
 11 12  2  0
 12 17  1  0
 17 16  2  0
 16 14  1  0
 14 13  2  0
 13 11  1  0
M  END

$$$$
