No_3831-gen_results/8p0m/2024-11-26-14-13-15/
     RDKit          3D

 30 33  0  0  0  0  0  0  0  0999 V2000
  -28.0162   -0.8135   28.8779 C   0  0  0  0  0  0  0  0  0  0  0  0
  -28.4690   -0.7850   29.8287 C   0  0  0  0  0  0  0  0  0  0  0  0
  -27.1356    0.2359   28.5352 C   0  0  0  0  0  0  0  0  0  0  0  0
  -26.8745    1.2825   29.3982 C   0  0  0  0  0  0  0  0  0  0  0  0
  -27.5070    1.2380   30.6295 C   0  0  0  0  0  0  0  0  0  0  0  0
  -28.3293    0.1745   30.9350 C   0  0  0  0  0  0  0  0  0  0  0  0
  -26.4077    0.3070   27.2259 C   0  0  0  0  0  0  0  0  0  0  0  0
  -26.8825    0.5866   26.2352 N   0  0  0  0  0  0  0  0  0  0  0  0
  -25.1906   -0.3624   27.2006 O   0  0  0  0  0  0  0  0  0  0  0  0
  -26.2498    0.4650   24.8941 C   0  0  0  0  0  0  0  0  0  0  0  0
  -28.2005    1.2730   26.0563 C   0  0  0  0  0  0  0  0  0  0  0  0
  -28.0557    2.5103   25.8826 C   0  0  0  0  0  0  0  0  0  0  0  0
  -29.3308    0.5506   25.9275 C   0  0  0  0  0  0  0  0  0  0  0  0
  -30.5376    1.1763   25.8306 C   0  0  0  0  0  0  0  0  0  0  0  0
  -29.3371    3.2862   25.7065 C   0  0  0  0  0  0  0  0  0  0  0  0
  -30.5297    2.6074   25.6797 C   0  0  0  0  0  0  0  0  0  0  0  0
  -29.4103   -2.0000   30.3295 C   0  0  0  0  0  0  0  0  0  0  0  0
  -29.1123   -3.0187   30.2070 O   0  0  0  0  0  0  0  0  0  0  0  0
  -30.8160   -1.7037   30.3691 N   0  0  0  0  0  0  0  0  0  0  0  0
  -31.7215   -2.7720   30.6087 C   0  0  0  0  0  0  0  0  0  0  0  0
  -31.3402   -0.6460   29.5696 C   0  0  0  0  0  0  0  0  0  0  0  0
  -32.5853   -0.0865   30.1634 C   0  0  0  0  0  0  0  0  0  0  0  0
  -32.4952    0.8814   30.9109 C   0  0  0  0  0  0  0  0  0  0  0  0
  -31.6132    1.9017   30.5924 C   0  0  0  0  0  0  0  0  0  0  0  0
  -30.8505    1.8160   29.4110 C   0  0  0  0  0  0  0  0  0  0  0  0
  -30.3954    0.6168   29.5678 C   0  0  0  0  0  0  0  0  0  0  0  0
  -29.4317    0.4696   29.2537 O   0  0  0  0  0  0  0  0  0  0  0  0
  -29.5107    0.3841   27.8051 C   0  0  0  0  0  0  0  0  0  0  0  0
  -30.8406   -0.2077   27.7846 O   0  0  0  0  0  0  0  0  0  0  0  0
  -31.6820   -0.9904   27.0933 C   0  0  0  0  0  0  0  0  0  0  0  0
  3  7  1  0
  7  8  1  0
  7  9  2  0
  8 10  1  0
  8 11  1  0
  2 17  1  0
 17 18  1  0
 17 19  1  0
 19 20  1  0
 19 21  1  0
 26 27  1  0
 13 28  1  0
 27 28  1  0
 28 29  1  0
 29 30  1  0
 11 12  2  0
 12 15  1  0
 15 16  2  0
 16 14  1  0
 14 13  2  0
 13 11  1  0
  1  2  2  0
  2  6  1  0
  6  5  2  0
  5  4  1  0
  4  3  2  0
  3  1  1  0
 21 22  2  0
 22 23  1  0
 23 24  2  0
 24 25  1  0
 25 26  2  0
 26 21  1  0
M  END

$$$$
