No_3599-gen_results/8p0m/2024-11-26-14-13-15/
     RDKit          3D

 35 37  0  0  0  0  0  0  0  0999 V2000
  -28.0162   -0.8135   28.8779 C   0  0  0  0  0  0  0  0  0  0  0  0
  -28.4690   -0.7850   29.8287 C   0  0  0  0  0  0  0  0  0  0  0  0
  -26.5042   -0.7777   28.8766 C   0  0  0  0  0  0  0  0  0  0  0  0
  -25.6540   -0.6597   27.7191 C   0  0  0  0  0  0  0  0  0  0  0  0
  -27.9180   -0.9374   31.1824 C   0  0  0  0  0  0  0  0  0  0  0  0
  -26.5423   -0.9399   31.2606 C   0  0  0  0  0  0  0  0  0  0  0  0
  -25.7832   -0.8935   30.1201 C   0  0  0  0  0  0  0  0  0  0  0  0
  -24.3096   -0.3015   27.8531 C   0  0  0  0  0  0  0  0  0  0  0  0
  -23.6669   -0.4595   29.0986 C   0  0  0  0  0  0  0  0  0  0  0  0
  -24.3700   -0.6645   30.2027 C   0  0  0  0  0  0  0  0  0  0  0  0
  -22.1946   -0.2290   29.1314 C   0  0  0  0  0  0  0  0  0  0  0  0
  -21.2882    0.5666   28.7716 N   0  0  0  0  0  0  0  0  0  0  0  0
  -21.6347   -1.3705   29.7205 O   0  0  0  0  0  0  0  0  0  0  0  0
  -30.0671   -0.8830   29.8767 C   0  0  0  0  0  0  0  0  0  0  0  0
  -30.5404   -0.3010   29.0150 O   0  0  0  0  0  0  0  0  0  0  0  0
  -30.7271   -1.4670   30.8093 O   0  0  0  0  0  0  0  0  0  0  0  0
  -21.6429    1.7365   27.9738 C   0  0  0  0  0  0  0  0  0  0  0  0
  -31.8809   -0.5584   28.4831 C   0  0  0  0  0  0  0  0  0  0  0  0
  -32.4439    0.6521   27.9529 C   0  0  0  0  0  0  0  0  0  0  0  0
  -33.4996    0.6238   27.5381 O   0  0  0  0  0  0  0  0  0  0  0  0
  -31.9281    1.8006   28.3575 O   0  0  0  0  0  0  0  0  0  0  0  0
  -32.7480   -1.3082   29.5710 Cl  0  0  0  0  0  0  0  0  0  0  0  0
  -31.9873    2.8867   27.6780 C   0  0  0  0  0  0  0  0  0  0  0  0
  -30.8465    3.4254   27.4161 C   0  0  0  0  0  0  0  0  0  0  0  0
  -29.6655    3.2516   28.1495 C   0  0  0  0  0  0  0  0  0  0  0  0
  -29.7102    3.1816   29.5151 C   0  0  0  0  0  0  0  0  0  0  0  0
  -28.5210    2.8918   30.2963 C   0  0  0  0  0  0  0  0  0  0  0  0
  -27.3356    2.8433   29.6222 C   0  0  0  0  0  0  0  0  0  0  0  0
  -27.1998    3.0373   28.2573 C   0  0  0  0  0  0  0  0  0  0  0  0
  -28.3698    3.2061   27.5597 C   0  0  0  0  0  0  0  0  0  0  0  0
  -26.0821    2.6506   30.4720 C   0  0  0  0  0  0  0  0  0  0  0  0
  -24.8970    2.8338   29.8623 N   0  0  0  0  0  0  0  0  0  0  0  0
  -26.2087    2.4184   31.6959 O   0  0  0  0  0  0  0  0  0  0  0  0
  -28.2269    3.3097   26.0916 C   0  0  0  0  0  0  0  0  0  0  0  0
  -30.8876    4.8108   27.1580 F   0  0  0  0  0  0  0  0  0  0  0  0
  9 11  1  0
 11 12  1  0
 11 13  2  0
  2 14  1  0
 14 15  1  0
 14 16  2  0
 12 17  1  0
 15 18  1  0
 18 19  1  0
 19 20  2  0
 19 21  1  0
 18 22  1  0
 21 23  1  0
 23 24  2  3
 24 25  1  0
 28 31  1  0
 31 32  1  0
 31 33  2  0
 30 34  1  0
 24 35  1  0
 25 26  2  0
 26 27  1  0
 27 28  2  0
 28 29  1  0
 29 30  2  0
 30 25  1  0
  1  2  2  0
  2  5  1  0
  5  6  2  0
  6  7  1  0
  3  1  1  0
  3  4  2  0
  4  8  1  0
  8  9  2  0
  9 10  1  0
 10  7  2  0
  7  3  1  0
M  END

$$$$
