No_3947-gen_results/8p0m/2024-11-26-14-13-15/
     RDKit          3D

 35 38  0  0  0  0  0  0  0  0999 V2000
  -28.0162   -0.8135   28.8779 C   0  0  0  0  0  0  0  0  0  0  0  0
  -28.4690   -0.7850   29.8287 C   0  0  0  0  0  0  0  0  0  0  0  0
  -28.1960    0.3478   28.0550 C   0  0  0  0  0  0  0  0  0  0  0  0
  -29.0191    1.3501   28.3782 C   0  0  0  0  0  0  0  0  0  0  0  0
  -28.3170   -1.9812   30.8560 C   0  0  0  0  0  0  0  0  0  0  0  0
  -29.5950    1.2859   29.6049 C   0  0  0  0  0  0  0  0  0  0  0  0
  -29.3465    0.2093   30.3749 C   0  0  0  0  0  0  0  0  0  0  0  0
  -27.6425   -1.7250   31.6976 F   0  0  0  0  0  0  0  0  0  0  0  0
  -27.6518   -2.9962   30.1224 F   0  0  0  0  0  0  0  0  0  0  0  0
  -29.4806   -2.4555   31.3011 F   0  0  0  0  0  0  0  0  0  0  0  0
  -27.5439    0.3510   26.8010 F   0  0  0  0  0  0  0  0  0  0  0  0
  -30.4997    2.3593   30.1026 C   0  0  0  0  0  0  0  0  0  0  0  0
  -30.1599    3.2721   30.7675 O   0  0  0  0  0  0  0  0  0  0  0  0
  -31.7471    2.2121   29.6985 O   0  0  0  0  0  0  0  0  0  0  0  0
  -30.4514    4.1995   31.2182 C   0  0  0  0  0  0  0  0  0  0  0  0
  -29.9536    5.1730   31.7866 C   0  0  0  0  0  0  0  0  0  0  0  0
  -28.4740    5.0938   32.0427 C   0  0  0  0  0  0  0  0  0  0  0  0
  -27.8705    5.5708   33.0771 C   0  0  0  0  0  0  0  0  0  0  0  0
  -26.4461    5.3345   33.3389 C   0  0  0  0  0  0  0  0  0  0  0  0
  -25.6774    4.5858   32.3528 C   0  0  0  0  0  0  0  0  0  0  0  0
  -26.3772    4.1162   31.2622 C   0  0  0  0  0  0  0  0  0  0  0  0
  -27.7259    4.3294   31.1068 C   0  0  0  0  0  0  0  0  0  0  0  0
  -25.6261    3.3244   30.2621 C   0  0  0  0  0  0  0  0  0  0  0  0
  -25.1444    2.3005   30.5374 O   0  0  0  0  0  0  0  0  0  0  0  0
  -25.6111    3.8428   29.0494 O   0  0  0  0  0  0  0  0  0  0  0  0
  -25.0898    3.0805   28.0197 C   0  0  0  0  0  0  0  0  0  0  0  0
  -25.8786    2.4479   27.1411 C   0  0  0  0  0  0  0  0  0  0  0  0
  -25.2431    1.6019   26.2056 C   0  0  0  0  0  0  0  0  0  0  0  0
  -23.7956    1.4832   26.2497 C   0  0  0  0  0  0  0  0  0  0  0  0
  -23.0559    2.1615   27.1832 C   0  0  0  0  0  0  0  0  0  0  0  0
  -23.6989    2.9360   28.1170 C   0  0  0  0  0  0  0  0  0  0  0  0
  -31.4986    4.9731   30.2499 C   0  0  0  0  0  0  0  0  0  0  0  0
  -32.1844    5.7857   30.8158 N   0  0  0  0  0  0  0  0  0  0  0  0
  -31.6092    6.7806   31.6689 C   0  0  0  0  0  0  0  0  0  0  0  0
  -30.4319    6.5096   32.1684 C   0  0  0  0  0  0  0  0  0  0  0  0
  2  5  1  0
  5  8  1  0
  5  9  1  0
  5 10  1  0
  3 11  1  0
  6 12  1  0
 12 13  1  0
 12 14  2  0
 13 15  1  0
 16 17  1  0
 21 23  1  0
 23 24  2  0
 23 25  1  0
 25 26  1  0
 17 18  2  0
 18 19  1  0
 19 20  2  0
 20 21  1  0
 21 22  2  0
 22 17  1  0
 15 16  2  0
 16 35  1  0
 35 34  2  0
 34 33  1  0
 33 32  2  0
 32 15  1  0
 26 27  2  0
 27 28  1  0
 28 29  2  0
 29 30  1  0
 30 31  2  0
 31 26  1  0
  1  2  2  0
  2  7  1  0
  7  6  2  0
  6  4  1  0
  4  3  2  0
  3  1  1  0
M  END

$$$$
