No_3570-gen_results/8p0m/2024-11-26-14-13-15/
     RDKit          3D

 21 24  0  0  0  0  0  0  0  0999 V2000
  -28.0162   -0.8135   28.8779 C   0  0  0  0  0  0  0  0  0  0  0  0
  -27.0636   -0.1189   28.6079 C   0  0  0  0  0  0  0  0  0  0  0  0
  -26.9716    0.7139   27.5060 C   0  0  0  0  0  0  0  0  0  0  0  0
  -28.1053    0.7744   26.6421 C   0  0  0  0  0  0  0  0  0  0  0  0
  -29.2008    0.1044   27.0527 C   0  0  0  0  0  0  0  0  0  0  0  0
  -29.2096   -0.6029   28.1853 C   0  0  0  0  0  0  0  0  0  0  0  0
  -30.3749    0.2232   26.1670 C   0  0  0  0  0  0  0  0  0  0  0  0
  -30.3266    0.0573   24.9664 O   0  0  0  0  0  0  0  0  0  0  0  0
  -31.6321    0.2796   26.7595 N   0  0  0  0  0  0  0  0  0  0  0  0
  -31.8440    0.4612   28.1577 C   0  0  0  0  0  0  0  0  0  0  0  0
  -32.7921    0.3461   25.8472 C   0  0  0  0  0  0  0  0  0  0  0  0
  -32.3586    1.7860   28.4630 C   0  0  0  0  0  0  0  0  0  0  0  0
  -32.3957    2.0484   29.7478 C   0  0  0  0  0  0  0  0  0  0  0  0
  -32.2180    1.0890   30.7743 C   0  0  0  0  0  0  0  0  0  0  0  0
  -31.8441   -0.1722   30.4010 C   0  0  0  0  0  0  0  0  0  0  0  0
  -31.5757   -0.4681   29.0520 C   0  0  0  0  0  0  0  0  0  0  0  0
  -30.4172   -0.8570   28.8407 N   0  0  0  0  0  0  0  0  0  0  0  0
  -25.6789    1.2949   27.0340 C   0  0  0  0  0  0  0  0  0  0  0  0
  -24.5895    1.0059   27.8054 C   0  0  0  0  0  0  0  0  0  0  0  0
  -24.6668    0.2135   28.9864 C   0  0  0  0  0  0  0  0  0  0  0  0
  -25.7667   -0.3332   29.3614 C   0  0  0  0  0  0  0  0  0  0  0  0
  5  7  1  0
  7  8  2  0
  7  9  1  0
  9 10  1  0
  9 11  1  0
  6 17  1  0
 16 17  1  0
  3 18  1  0
 18 19  2  0
 19 20  1  0
 20 21  2  0
 21  2  1  0
  1  2  2  0
  2  3  1  0
  3  4  2  0
  4  5  1  0
  5  6  2  0
  6  1  1  0
 10 12  2  0
 12 13  1  0
 13 14  2  0
 14 15  1  0
 15 16  2  0
 16 10  1  0
M  END

$$$$
