No_3621-gen_results/8p0m/2024-11-26-14-13-15/
     RDKit          3D

 20 20  0  0  0  0  0  0  0  0999 V2000
  -28.0162   -0.8135   28.8779 C   0  0  0  0  0  0  0  0  0  0  0  0
  -27.0636   -0.1189   28.6079 C   0  0  0  0  0  0  0  0  0  0  0  0
  -26.9716    0.7139   27.5060 C   0  0  0  0  0  0  0  0  0  0  0  0
  -25.8206    1.4910   27.1160 C   0  0  0  0  0  0  0  0  0  0  0  0
  -24.6562    1.4242   27.9180 C   0  0  0  0  0  0  0  0  0  0  0  0
  -24.6847    0.5901   29.0659 C   0  0  0  0  0  0  0  0  0  0  0  0
  -25.8099   -0.1265   29.3338 C   0  0  0  0  0  0  0  0  0  0  0  0
  -29.2186   -0.0422   29.3127 C   0  0  0  0  0  0  0  0  0  0  0  0
  -30.2802   -0.8075   29.8362 C   0  0  0  0  0  0  0  0  0  0  0  0
  -23.4679    2.2044   27.6013 C   0  0  0  0  0  0  0  0  0  0  0  0
  -22.5604    2.2190   28.4825 O   0  0  0  0  0  0  0  0  0  0  0  0
  -23.2751    2.6124   26.3872 O   0  0  0  0  0  0  0  0  0  0  0  0
  -30.4641   -0.7985   31.1617 C   0  0  0  0  0  0  0  0  0  0  0  0
  -31.5460   -0.4155   29.1971 O   0  0  0  0  0  0  0  0  0  0  0  0
  -30.2706   -1.9077   31.7713 O   0  0  0  0  0  0  0  0  0  0  0  0
  -31.1982    0.0731   31.7919 O   0  0  0  0  0  0  0  0  0  0  0  0
  -31.8263    0.5199   28.7721 C   0  0  0  0  0  0  0  0  0  0  0  0
  -32.8257    0.7117   27.9930 C   0  0  0  0  0  0  0  0  0  0  0  0
  -33.6527   -0.0542   27.9918 F   0  0  0  0  0  0  0  0  0  0  0  0
  -33.4402    1.9649   28.1833 F   0  0  0  0  0  0  0  0  0  0  0  0
  1  2  2  3
  2  3  1  0
  3  4  1  0
  4  5  1  0
  5  6  1  0
  2  7  1  0
  6  7  1  0
  1  8  1  0
  8  9  1  0
  5 10  1  0
 10 11  2  0
 10 12  1  0
  9 13  1  0
  9 14  1  0
 13 15  2  0
 13 16  1  0
 14 17  1  0
 17 18  2  3
 18 19  1  0
 18 20  1  0
M  END

$$$$
