No_3302-gen_results/8p0m/2024-11-26-14-13-15/
     RDKit          3D

 14 15  0  0  0  0  0  0  0  0999 V2000
  -28.0162   -0.8135   28.8779 C   0  0  0  0  0  0  0  0  0  0  0  0
  -28.4690   -0.7850   29.8287 C   0  0  0  0  0  0  0  0  0  0  0  0
  -26.5455   -0.8762   28.8500 C   0  0  0  0  0  0  0  0  0  0  0  0
  -25.6825   -0.7773   27.6829 C   0  0  0  0  0  0  0  0  0  0  0  0
  -27.9181   -1.0034   31.1877 C   0  0  0  0  0  0  0  0  0  0  0  0
  -26.5308   -1.0794   31.2463 C   0  0  0  0  0  0  0  0  0  0  0  0
  -25.7798   -1.0462   30.0905 C   0  0  0  0  0  0  0  0  0  0  0  0
  -25.2322    0.5793   27.3292 C   0  0  0  0  0  0  0  0  0  0  0  0
  -23.9816    0.8698   27.7676 C   0  0  0  0  0  0  0  0  0  0  0  0
  -23.4121    2.1478   27.3881 C   0  0  0  0  0  0  0  0  0  0  0  0
  -22.0918    2.5036   27.8131 C   0  0  0  0  0  0  0  0  0  0  0  0
  -25.9645    1.4410   26.5360 C   0  0  0  0  0  0  0  0  0  0  0  0
  -24.0528    2.9647   26.4879 C   0  0  0  0  0  0  0  0  0  0  0  0
  -25.3573    2.6322   26.0710 C   0  0  0  0  0  0  0  0  0  0  0  0
  3  4  1  0
  4  8  1  0
 11 10  1  0
  8  9  2  0
  9 10  1  0
 10 13  2  0
 13 14  1  0
 14 12  2  0
 12  8  1  0
  1  2  2  0
  2  5  1  0
  5  6  2  0
  6  7  1  0
  7  3  2  0
  3  1  1  0
M  END

$$$$
