No_3090-gen_results/8p0m/2024-11-26-14-13-15/
     RDKit          3D

 18 19  0  0  0  0  0  0  0  0999 V2000
  -28.0162   -0.8135   28.8779 C   0  0  0  0  0  0  0  0  0  0  0  0
  -28.4690   -0.7850   29.8287 C   0  0  0  0  0  0  0  0  0  0  0  0
  -28.1816    0.4277   28.1134 C   0  0  0  0  0  0  0  0  0  0  0  0
  -27.4498    0.6435   26.8500 C   0  0  0  0  0  0  0  0  0  0  0  0
  -26.1815    0.0357   26.7145 C   0  0  0  0  0  0  0  0  0  0  0  0
  -25.7800   -0.9326   27.6938 C   0  0  0  0  0  0  0  0  0  0  0  0
  -26.5568   -1.2134   28.7413 C   0  0  0  0  0  0  0  0  0  0  0  0
  -28.5318   -1.9487   30.6145 O   0  0  0  0  0  0  0  0  0  0  0  0
  -28.9374    0.1498   30.5861 F   0  0  0  0  0  0  0  0  0  0  0  0
  -25.3507    0.2980   25.6633 N   0  0  0  0  0  0  0  0  0  0  0  0
  -24.7118    1.4570   25.4656 C   0  0  0  0  0  0  0  0  0  0  0  0
  -23.2784    1.4323   25.4061 C   0  0  0  0  0  0  0  0  0  0  0  0
  -25.4289    2.6275   25.7548 C   0  0  0  0  0  0  0  0  0  0  0  0
  -24.7171    3.9014   25.9268 C   0  0  0  0  0  0  0  0  0  0  0  0
  -22.5636    2.7057   25.4575 C   0  0  0  0  0  0  0  0  0  0  0  0
  -23.3042    3.8782   25.7109 C   0  0  0  0  0  0  0  0  0  0  0  0
  -26.0662   -2.2323   29.5203 O   0  0  0  0  0  0  0  0  0  0  0  0
  -24.7030   -2.4997   29.3885 C   0  0  0  0  0  0  0  0  0  0  0  0
  1  2  1  0
  2  8  2  0
  2  9  1  0
  5 10  1  0
 10 11  1  0
  7 17  1  0
 17 18  1  0
 11 12  2  0
 12 15  1  0
 15 16  2  0
 16 14  1  0
 14 13  2  0
 13 11  1  0
  1  3  2  0
  3  4  1  0
  4  5  2  0
  5  6  1  0
  6  7  2  0
  7  1  1  0
M  END

$$$$
