No_3822-gen_results/8p0m/2024-11-26-14-13-15/
     RDKit          3D

 35 39  0  0  0  0  0  0  0  0999 V2000
  -28.0162   -0.8135   28.8779 C   0  0  0  0  0  0  0  0  0  0  0  0
  -28.4690   -0.7850   29.8287 C   0  0  0  0  0  0  0  0  0  0  0  0
  -26.5042   -0.7777   28.8766 C   0  0  0  0  0  0  0  0  0  0  0  0
  -25.8103   -0.8531   30.1028 C   0  0  0  0  0  0  0  0  0  0  0  0
  -27.9906   -0.8916   31.2257 C   0  0  0  0  0  0  0  0  0  0  0  0
  -26.6042   -0.8676   31.2652 C   0  0  0  0  0  0  0  0  0  0  0  0
  -30.0739   -0.8360   29.8615 C   0  0  0  0  0  0  0  0  0  0  0  0
  -30.6891   -1.6554   30.2229 O   0  0  0  0  0  0  0  0  0  0  0  0
  -30.6139    0.2846   29.2227 N   0  0  0  0  0  0  0  0  0  0  0  0
  -29.9311    1.4151   28.7449 C   0  0  0  0  0  0  0  0  0  0  0  0
  -30.0921    1.9904   27.6785 C   0  0  0  0  0  0  0  0  0  0  0  0
  -29.3468    3.1650   27.2124 C   0  0  0  0  0  0  0  0  0  0  0  0
  -28.2688    3.6126   28.0361 C   0  0  0  0  0  0  0  0  0  0  0  0
  -28.0334    2.8844   29.2245 C   0  0  0  0  0  0  0  0  0  0  0  0
  -28.7559    1.8582   29.5858 C   0  0  0  0  0  0  0  0  0  0  0  0
  -25.6697   -0.6355   27.6697 C   0  0  0  0  0  0  0  0  0  0  0  0
  -25.3002    0.7087   27.3416 C   0  0  0  0  0  0  0  0  0  0  0  0
  -24.1507    1.2034   27.8798 C   0  0  0  0  0  0  0  0  0  0  0  0
  -23.6542    2.4896   27.3965 C   0  0  0  0  0  0  0  0  0  0  0  0
  -24.3333    3.1517   26.4052 C   0  0  0  0  0  0  0  0  0  0  0  0
  -25.9304    1.3980   26.2823 C   0  0  0  0  0  0  0  0  0  0  0  0
  -25.4791    2.7058   25.9278 C   0  0  0  0  0  0  0  0  0  0  0  0
  -26.9118    3.4289   30.0827 C   0  0  0  0  0  0  0  0  0  0  0  0
  -26.6234    2.9623   31.2987 C   0  0  0  0  0  0  0  0  0  0  0  0
  -25.4679    3.3821   31.9395 C   0  0  0  0  0  0  0  0  0  0  0  0
  -26.0300    4.4475   29.5873 C   0  0  0  0  0  0  0  0  0  0  0  0
  -25.0535    5.0573   30.3634 C   0  0  0  0  0  0  0  0  0  0  0  0
  -24.7301    4.4854   31.5524 C   0  0  0  0  0  0  0  0  0  0  0  0
  -23.7215    4.9420   32.2784 O   0  0  0  0  0  0  0  0  0  0  0  0
  -32.0158    0.3332   29.0017 C   0  0  0  0  0  0  0  0  0  0  0  0
  -32.9180   -0.1359   29.7259 C   0  0  0  0  0  0  0  0  0  0  0  0
  -34.2550    0.0112   29.4624 C   0  0  0  0  0  0  0  0  0  0  0  0
  -34.5917    0.7125   28.2934 C   0  0  0  0  0  0  0  0  0  0  0  0
  -33.6638    1.2068   27.4580 C   0  0  0  0  0  0  0  0  0  0  0  0
  -32.3578    1.0778   27.7917 C   0  0  0  0  0  0  0  0  0  0  0  0
  2  7  1  0
  7  8  2  0
  7  9  1  0
  9 10  1  0
  3 16  1  0
 16 17  1  0
 14 23  1  0
 28 29  1  0
  9 30  1  0
 17 18  2  0
 18 19  1  0
 19 20  2  0
 20 22  1  0
 22 21  2  0
 21 17  1  0
 23 24  2  0
 24 25  1  0
 25 28  2  0
 28 27  1  0
 27 26  2  0
 26 23  1  0
 30 31  2  0
 31 32  1  0
 32 33  2  0
 33 34  1  0
 34 35  2  0
 35 30  1  0
 10 11  2  0
 11 12  1  0
 12 13  2  0
 13 14  1  0
 14 15  2  0
 15 10  1  0
  1  2  2  0
  2  5  1  0
  5  6  2  0
  6  4  1  0
  4  3  2  0
  3  1  1  0
M  END

$$$$
