No_329-gen_results/8p0m/2024-11-26-14-13-15/
     RDKit          3D

 17 17  0  0  0  0  0  0  0  0999 V2000
  -28.0162   -0.8135   28.8779 C   0  0  0  0  0  0  0  0  0  0  0  0
  -27.0636   -0.1189   28.6079 C   0  0  0  0  0  0  0  0  0  0  0  0
  -25.7923   -0.4302   29.0761 C   0  0  0  0  0  0  0  0  0  0  0  0
  -25.5756   -1.5654   29.9363 C   0  0  0  0  0  0  0  0  0  0  0  0
  -26.7354   -2.3004   30.2173 C   0  0  0  0  0  0  0  0  0  0  0  0
  -27.9184   -1.9537   29.7629 C   0  0  0  0  0  0  0  0  0  0  0  0
  -29.0001   -2.7012   30.1151 O   0  0  0  0  0  0  0  0  0  0  0  0
  -24.5290    0.3490   28.7998 C   0  0  0  0  0  0  0  0  0  0  0  0
  -24.1172    1.3368   29.6649 C   0  0  0  0  0  0  0  0  0  0  0  0
  -24.8612    1.7921   30.6279 C   0  0  0  0  0  0  0  0  0  0  0  0
  -22.7711    1.8475   29.4070 C   0  0  0  0  0  0  0  0  0  0  0  0
  -24.8892    1.3954   31.7159 C   0  0  0  0  0  0  0  0  0  0  0  0
  -25.8317    2.7662   30.1088 C   0  0  0  0  0  0  0  0  0  0  0  0
  -25.7047    3.6742   29.3174 C   0  0  0  0  0  0  0  0  0  0  0  0
  -26.6778    4.6398   28.9145 C   0  0  0  0  0  0  0  0  0  0  0  0
  -27.9111    4.4240   29.3945 C   0  0  0  0  0  0  0  0  0  0  0  0
  -28.1888    3.4206   30.2918 C   0  0  0  0  0  0  0  0  0  0  0  0
  6  7  1  0
  3  8  1  0
  8  9  1  0
  9 10  1  0
  9 11  1  0
 10 12  1  0
 10 13  1  0
 13 14  2  3
 14 15  1  0
 15 16  2  3
 16 17  1  0
  1  2  2  0
  2  3  1  0
  3  4  2  0
  4  5  1  0
  5  6  2  0
  6  1  1  0
M  END

$$$$
