No_3567-gen_results/8p0m/2024-11-26-14-13-15/
     RDKit          3D

 17 18  0  0  0  0  0  0  0  0999 V2000
  -28.0162   -0.8135   28.8779 C   0  0  0  0  0  0  0  0  0  0  0  0
  -27.0636   -0.1189   28.6079 C   0  0  0  0  0  0  0  0  0  0  0  0
  -26.9716    0.7139   27.5060 C   0  0  0  0  0  0  0  0  0  0  0  0
  -25.8205    1.4909   27.1160 C   0  0  0  0  0  0  0  0  0  0  0  0
  -24.6562    1.4242   27.9180 C   0  0  0  0  0  0  0  0  0  0  0  0
  -24.6847    0.5901   29.0659 C   0  0  0  0  0  0  0  0  0  0  0  0
  -25.8099   -0.1265   29.3338 C   0  0  0  0  0  0  0  0  0  0  0  0
  -29.2444   -0.0768   29.2011 C   0  0  0  0  0  0  0  0  0  0  0  0
  -29.6118    0.8134   28.6123 N   0  0  0  0  0  0  0  0  0  0  0  0
  -30.1660   -0.8824   29.9619 N   0  0  0  0  0  0  0  0  0  0  0  0
  -30.8892    1.4460   28.7853 C   0  0  0  0  0  0  0  0  0  0  0  0
  -23.4785    2.1899   27.6017 C   0  0  0  0  0  0  0  0  0  0  0  0
  -23.4459    3.1171   26.7749 N   0  0  0  0  0  0  0  0  0  0  0  0
  -22.3250    1.9981   28.3146 N   0  0  0  0  0  0  0  0  0  0  0  0
  -31.4186   -0.3647   30.1965 C   0  0  0  0  0  0  0  0  0  0  0  0
  -31.7680    0.8044   29.5978 C   0  0  0  0  0  0  0  0  0  0  0  0
  -31.1530    2.5402   28.2050 F   0  0  0  0  0  0  0  0  0  0  0  0
  1  8  1  0
  5 12  1  0
 12 13  2  0
 12 14  1  0
 11 17  1  0
  1  2  1  0
  2  3  2  0
  3  4  1  0
  4  5  2  0
  5  6  1  0
  6  7  2  0
  7  2  1  0
  8  9  2  0
  9 11  1  0
 11 16  2  0
 16 15  1  0
 15 10  2  0
 10  8  1  0
M  END

$$$$
