No_3237-gen_results/8p0m/2024-11-26-14-13-15/
     RDKit          3D

 22 24  0  0  0  0  0  0  0  0999 V2000
  -28.0162   -0.8135   28.8779 C   0  0  0  0  0  0  0  0  0  0  0  0
  -27.0636   -0.1189   28.6079 C   0  0  0  0  0  0  0  0  0  0  0  0
  -25.7923   -0.4302   29.0761 C   0  0  0  0  0  0  0  0  0  0  0  0
  -25.5756   -1.5654   29.9363 C   0  0  0  0  0  0  0  0  0  0  0  0
  -26.7354   -2.3004   30.2173 C   0  0  0  0  0  0  0  0  0  0  0  0
  -27.9184   -1.9537   29.7629 C   0  0  0  0  0  0  0  0  0  0  0  0
  -29.0001   -2.7012   30.1151 O   0  0  0  0  0  0  0  0  0  0  0  0
  -24.2168    0.5765   28.7081 Br  0  0  0  0  0  0  0  0  0  0  0  0
  -29.3707   -2.8246   31.4486 C   0  0  0  0  0  0  0  0  0  0  0  0
  -29.9465   -1.8020   31.9834 C   0  0  0  0  0  0  0  0  0  0  0  0
  -30.5109   -0.8842   31.2849 C   0  0  0  0  0  0  0  0  0  0  0  0
  -30.6634    0.3626   31.8824 C   0  0  0  0  0  0  0  0  0  0  0  0
  -30.5981    0.4828   33.2895 C   0  0  0  0  0  0  0  0  0  0  0  0
  -29.6362   -1.5932   33.4440 C   0  0  0  0  0  0  0  0  0  0  0  0
  -29.9177   -0.4045   34.0474 C   0  0  0  0  0  0  0  0  0  0  0  0
  -29.2139   -4.0244   31.9521 O   0  0  0  0  0  0  0  0  0  0  0  0
  -27.1665    1.1106   27.7155 C   0  0  0  0  0  0  0  0  0  0  0  0
  -27.3877    2.2177   28.3763 C   0  0  0  0  0  0  0  0  0  0  0  0
  -27.2203    0.9205   26.3648 C   0  0  0  0  0  0  0  0  0  0  0  0
  -27.6539    3.4208   27.5791 C   0  0  0  0  0  0  0  0  0  0  0  0
  -27.4450    2.0109   25.5178 C   0  0  0  0  0  0  0  0  0  0  0  0
  -27.6240    3.3042   26.1271 C   0  0  0  0  0  0  0  0  0  0  0  0
  6  7  1  0
  3  8  1  0
  7  9  1  0
  9 10  1  0
  9 16  2  0
  2 17  1  0
  1  2  2  0
  2  3  1  0
  3  4  2  0
  4  5  1  0
  5  6  2  0
  6  1  1  0
 17 18  2  0
 18 20  1  0
 20 22  2  0
 22 21  1  0
 21 19  2  0
 19 17  1  0
 10 11  2  0
 11 12  1  0
 12 13  2  0
 13 15  1  0
 15 14  2  0
 14 10  1  0
M  END

$$$$
