No_397-gen_results/8p0m/2024-11-26-14-13-15/
     RDKit          3D

 30 33  0  0  0  0  0  0  0  0999 V2000
  -28.1493   -0.8198   28.9079 Cl  0  0  0  0  0  0  0  0  0  0  0  0
  -26.9116   -0.0797   28.9452 C   0  0  0  0  0  0  0  0  0  0  0  0
  -26.7384    1.0439   29.2534 C   0  0  0  0  0  0  0  0  0  0  0  0
  -25.4392    1.7115   29.2755 C   0  0  0  0  0  0  0  0  0  0  0  0
  -24.2812    0.9888   28.8542 C   0  0  0  0  0  0  0  0  0  0  0  0
  -24.4869   -0.3041   28.4957 C   0  0  0  0  0  0  0  0  0  0  0  0
  -25.7046   -0.8667   28.5244 C   0  0  0  0  0  0  0  0  0  0  0  0
  -22.9617    1.6322   28.7948 C   0  0  0  0  0  0  0  0  0  0  0  0
  -21.8824    0.9133   28.4730 N   0  0  0  0  0  0  0  0  0  0  0  0
  -22.8801    2.8938   28.7142 O   0  0  0  0  0  0  0  0  0  0  0  0
  -21.7416   -0.4582   28.6030 C   0  0  0  0  0  0  0  0  0  0  0  0
  -22.9857   -1.1149   28.6054 N   0  0  0  0  0  0  0  0  0  0  0  0
  -27.7848    2.1044   29.3340 C   0  0  0  0  0  0  0  0  0  0  0  0
  -28.7681    2.1439   28.9285 O   0  0  0  0  0  0  0  0  0  0  0  0
  -27.3719    3.2691   30.0640 O   0  0  0  0  0  0  0  0  0  0  0  0
  -27.6600    3.6904   31.0155 C   0  0  0  0  0  0  0  0  0  0  0  0
  -26.9054    4.4294   31.6725 C   0  0  0  0  0  0  0  0  0  0  0  0
  -28.9289    3.3631   31.6044 C   0  0  0  0  0  0  0  0  0  0  0  0
  -27.1590    5.0120   33.0341 C   0  0  0  0  0  0  0  0  0  0  0  0
  -29.3192    3.9093   32.8964 C   0  0  0  0  0  0  0  0  0  0  0  0
  -28.4048    4.7363   33.5792 C   0  0  0  0  0  0  0  0  0  0  0  0
  -28.7307    5.3214   34.8910 C   0  0  0  0  0  0  0  0  0  0  0  0
  -28.6729    6.1047   35.5187 C   0  0  0  0  0  0  0  0  0  0  0  0
  -29.1206    6.3271   36.8883 C   0  0  0  0  0  0  0  0  0  0  0  0
  -29.8615    5.2913   37.4204 C   0  0  0  0  0  0  0  0  0  0  0  0
  -29.5827    4.1238   35.6642 C   0  0  0  0  0  0  0  0  0  0  0  0
  -29.8598    4.1808   36.6277 C   0  0  0  0  0  0  0  0  0  0  0  0
  -30.6456    3.1033   37.2239 O   0  0  0  0  0  0  0  0  0  0  0  0
  -30.7198    2.0784   37.1397 C   0  0  0  0  0  0  0  0  0  0  0  0
  -31.1549    1.2609   37.7789 C   0  0  0  0  0  0  0  0  0  0  0  0
  1  2  1  0
  5  8  1  0
  8  9  1  0
  8 10  2  0
  9 11  1  0
  6 12  1  0
  3 13  1  0
 13 14  2  0
 13 15  1  0
 15 16  1  0
 21 22  1  0
 27 28  1  0
 28 29  1  0
 29 30  2  0
 12 11  1  0
  2  3  2  0
  3  4  1  0
  4  5  2  0
  5  6  1  0
  6  7  2  0
  7  2  1  0
 22 23  2  0
 23 24  1  0
 24 25  2  0
 25 27  1  0
 27 26  2  0
 26 22  1  0
 16 17  2  0
 17 19  1  0
 19 21  2  0
 21 20  1  0
 20 18  2  0
 18 16  1  0
M  END

$$$$
