No_303-gen_results/8p0m/2024-11-26-14-13-15/
     RDKit          3D

 22 22  0  0  0  0  0  0  0  0999 V2000
  -28.0162   -0.8135   28.8779 C   0  0  0  0  0  0  0  0  0  0  0  0
  -28.4690   -0.7850   29.8287 C   0  0  0  0  0  0  0  0  0  0  0  0
  -27.1356    0.2359   28.5352 C   0  0  0  0  0  0  0  0  0  0  0  0
  -26.8745    1.2825   29.3982 C   0  0  0  0  0  0  0  0  0  0  0  0
  -28.3613    0.1987   30.9244 C   0  0  0  0  0  0  0  0  0  0  0  0
  -27.5277    1.2234   30.6356 C   0  0  0  0  0  0  0  0  0  0  0  0
  -26.3987    0.2949   27.2279 C   0  0  0  0  0  0  0  0  0  0  0  0
  -25.0392    0.2356   27.3538 C   0  0  0  0  0  0  0  0  0  0  0  0
  -24.2585    0.8274   26.2566 C   0  0  0  0  0  0  0  0  0  0  0  0
  -24.1535    1.8651   26.0705 C   0  0  0  0  0  0  0  0  0  0  0  0
  -23.5735    2.7448   26.3339 C   0  0  0  0  0  0  0  0  0  0  0  0
  -23.7672    3.3381   27.4465 C   0  0  0  0  0  0  0  0  0  0  0  0
  -27.1176    0.2809   26.0600 C   0  0  0  0  0  0  0  0  0  0  0  0
  -27.2148    0.9941   25.3447 N   0  0  0  0  0  0  0  0  0  0  0  0
  -24.5632    2.0402   24.6616 F   0  0  0  0  0  0  0  0  0  0  0  0
  -27.5600    2.3061   25.6424 C   0  0  0  0  0  0  0  0  0  0  0  0
  -28.9494    2.6091   25.9600 C   0  0  0  0  0  0  0  0  0  0  0  0
  -30.0653    1.8178   25.5783 Cl  0  0  0  0  0  0  0  0  0  0  0  0
  -29.0812    3.8475   26.8265 C   0  0  0  0  0  0  0  0  0  0  0  0
  -29.8733    3.9305   27.6784 C   0  0  0  0  0  0  0  0  0  0  0  0
  -29.9787    5.0561   28.5548 C   0  0  0  0  0  0  0  0  0  0  0  0
  -29.2425    6.1826   28.2270 C   0  0  0  0  0  0  0  0  0  0  0  0
  3  7  1  0
  7  8  2  3
  8  9  1  0
  9 10  2  3
 10 11  1  0
 11 12  1  0
  7 13  1  0
 13 14  2  3
 10 15  1  0
 14 16  1  0
 16 17  1  0
 17 18  1  0
 17 19  1  0
 19 20  1  0
 20 21  2  3
 21 22  1  0
  1  2  2  0
  2  5  1  0
  5  6  2  0
  6  4  1  0
  4  3  2  0
  3  1  1  0
M  END

$$$$
