No_3226-gen_results/8p0m/2024-11-26-14-13-15/
     RDKit          3D

  8  7  0  0  0  0  0  0  0  0999 V2000
  -28.1493   -0.8198   28.9079 Cl  0  0  0  0  0  0  0  0  0  0  0  0
  -27.8339    0.4961   29.0598 C   0  0  0  0  0  0  0  0  0  0  0  0
  -27.6022    1.0128   30.2974 C   0  0  0  0  0  0  0  0  0  0  0  0
  -27.3721    2.2618   30.3144 F   0  0  0  0  0  0  0  0  0  0  0  0
  -28.7374    0.8723   31.1054 F   0  0  0  0  0  0  0  0  0  0  0  0
  -26.5703    0.3656   30.9053 F   0  0  0  0  0  0  0  0  0  0  0  0
  -27.6182    1.3196   27.8800 C   0  0  0  0  0  0  0  0  0  0  0  0
  -26.8254    2.1951   27.7893 C   0  0  0  0  0  0  0  0  0  0  0  0
  1  2  1  0
  2  3  1  0
  3  4  1  0
  3  5  1  0
  3  6  1  0
  2  7  1  0
  7  8  1  0
M  END

$$$$
