No_347-gen_results/8p0m/2024-11-26-14-13-15/
     RDKit          3D

 27 31  0  0  0  0  0  0  0  0999 V2000
  -28.0162   -0.8135   28.8779 C   0  0  0  0  0  0  0  0  0  0  0  0
  -27.0636   -0.1190   28.6079 C   0  0  0  0  0  0  0  0  0  0  0  0
  -26.9716    0.7139   27.5060 C   0  0  0  0  0  0  0  0  0  0  0  0
  -28.1053    0.7744   26.6421 C   0  0  0  0  0  0  0  0  0  0  0  0
  -29.2041    0.1179   27.0477 C   0  0  0  0  0  0  0  0  0  0  0  0
  -29.2127   -0.6088   28.1281 C   0  0  0  0  0  0  0  0  0  0  0  0
  -25.7106    1.4518   27.1380 C   0  0  0  0  0  0  0  0  0  0  0  0
  -24.6052    0.9253   27.6902 C   0  0  0  0  0  0  0  0  0  0  0  0
  -24.6227    0.0600   28.8225 C   0  0  0  0  0  0  0  0  0  0  0  0
  -25.7269   -0.4734   29.2409 C   0  0  0  0  0  0  0  0  0  0  0  0
  -23.2725    1.6786   27.4284 C   0  0  0  0  0  0  0  0  0  0  0  0
  -22.4355    2.0369   28.3281 C   0  0  0  0  0  0  0  0  0  0  0  0
  -22.3088    0.9644   29.3715 C   0  0  0  0  0  0  0  0  0  0  0  0
  -23.4175    0.0477   29.7226 C   0  0  0  0  0  0  0  0  0  0  0  0
  -25.7229   -1.4048   30.1273 O   0  0  0  0  0  0  0  0  0  0  0  0
  -30.4399    0.3046   26.2369 C   0  0  0  0  0  0  0  0  0  0  0  0
  -31.5260    0.1114   26.6243 N   0  0  0  0  0  0  0  0  0  0  0  0
  -30.2533    0.3985   24.9364 O   0  0  0  0  0  0  0  0  0  0  0  0
  -32.5651    0.1046   26.2387 C   0  0  0  0  0  0  0  0  0  0  0  0
  -25.7889    2.3578   26.0264 C   0  0  0  0  0  0  0  0  0  0  0  0
  -33.7481   -0.1471   26.8259 C   0  0  0  0  0  0  0  0  0  0  0  0
  -34.9398   -0.1684   26.3489 C   0  0  0  0  0  0  0  0  0  0  0  0
  -35.0927    0.0484   24.9151 C   0  0  0  0  0  0  0  0  0  0  0  0
  -33.9410    0.2618   24.1541 C   0  0  0  0  0  0  0  0  0  0  0  0
  -32.7479    0.3006   24.7355 C   0  0  0  0  0  0  0  0  0  0  0  0
  -23.1522    2.4237   26.2787 O   0  0  0  0  0  0  0  0  0  0  0  0
  -24.4027    2.8006   25.6333 C   0  0  0  0  0  0  0  0  0  0  0  0
  3  7  1  0
  2 10  1  0
  9 10  1  0
 10 15  2  0
  5 16  1  0
 16 17  1  0
 16 18  2  0
 17 19  1  0
  7 20  1  0
 11 26  1  0
 20 27  2  0
 26 27  1  0
  7  8  1  0
  1  2  2  0
  2  3  1  0
  3  4  2  0
  4  5  1  0
  5  6  2  0
  6  1  1  0
  8  9  2  0
  9 14  1  0
 14 13  2  0
 13 12  1  0
 12 11  2  0
 11  8  1  0
 19 21  2  0
 21 22  1  0
 22 23  2  0
 23 24  1  0
 24 25  2  0
 25 19  1  0
M  END

$$$$
