No_3383-gen_results/8p0m/2024-11-26-14-13-15/
     RDKit          3D

 32 35  0  0  0  0  0  0  0  0999 V2000
  -28.0162   -0.8135   28.8779 C   0  0  0  0  0  0  0  0  0  0  0  0
  -27.0636   -0.1190   28.6079 C   0  0  0  0  0  0  0  0  0  0  0  0
  -26.9287    1.1713   29.0083 C   0  0  0  0  0  0  0  0  0  0  0  0
  -27.9560    1.7411   29.7840 C   0  0  0  0  0  0  0  0  0  0  0  0
  -29.0569   -0.3271   29.7466 C   0  0  0  0  0  0  0  0  0  0  0  0
  -28.9828    0.9722   30.1516 C   0  0  0  0  0  0  0  0  0  0  0  0
  -25.9834   -0.6074   27.8643 O   0  0  0  0  0  0  0  0  0  0  0  0
  -24.8870   -1.1400   28.6021 C   0  0  0  0  0  0  0  0  0  0  0  0
  -23.9518   -0.6659   28.7160 C   0  0  0  0  0  0  0  0  0  0  0  0
  -25.2129   -2.3928   29.2754 C   0  0  0  0  0  0  0  0  0  0  0  0
  -22.8176   -1.1985   29.4873 C   0  0  0  0  0  0  0  0  0  0  0  0
  -24.2372   -3.0284   29.9602 C   0  0  0  0  0  0  0  0  0  0  0  0
  -23.0331   -2.3791   30.1449 C   0  0  0  0  0  0  0  0  0  0  0  0
  -30.1371    1.5211   30.9840 C   0  0  0  0  0  0  0  0  0  0  0  0
  -31.2745    1.0555   30.8678 Br  0  0  0  0  0  0  0  0  0  0  0  0
  -29.5776    1.6023   32.4107 C   0  0  0  0  0  0  0  0  0  0  0  0
  -30.0247    3.0658   30.5148 C   0  0  0  0  0  0  0  0  0  0  0  0
  -30.7319    3.4644   29.5208 C   0  0  0  0  0  0  0  0  0  0  0  0
  -29.2362    0.5142   33.0296 C   0  0  0  0  0  0  0  0  0  0  0  0
  -29.4787    2.8210   33.1693 C   0  0  0  0  0  0  0  0  0  0  0  0
  -29.1852    4.0207   31.2039 C   0  0  0  0  0  0  0  0  0  0  0  0
  -28.6584    4.0621   32.1190 C   0  0  0  0  0  0  0  0  0  0  0  0
  -31.9539    3.3946   29.3489 C   0  0  0  0  0  0  0  0  0  0  0  0
  -29.9075    3.5844   28.2715 C   0  0  0  0  0  0  0  0  0  0  0  0
  -30.5070    3.8946   27.0730 C   0  0  0  0  0  0  0  0  0  0  0  0
  -32.6636    3.8271   28.1709 C   0  0  0  0  0  0  0  0  0  0  0  0
  -31.8790    4.0571   27.0480 C   0  0  0  0  0  0  0  0  0  0  0  0
  -28.4831    0.1848   33.6321 O   0  0  0  0  0  0  0  0  0  0  0  0
  -30.1391   -0.5902   32.7396 O   0  0  0  0  0  0  0  0  0  0  0  0
  -30.0256   -1.6515   33.6405 C   0  0  0  0  0  0  0  0  0  0  0  0
  -29.9459   -2.9223   32.8302 C   0  0  0  0  0  0  0  0  0  0  0  0
  -29.2283   -2.9086   31.8827 O   0  0  0  0  0  0  0  0  0  0  0  0
  2  7  1  0
  7  8  1  0
  6 14  1  0
 14 15  1  0
 14 16  1  0
 14 17  1  0
 17 18  1  0
 16 19  1  0
 16 20  1  0
 17 21  1  0
 20 22  1  0
 21 22  2  0
 19 28  2  0
 19 29  1  0
 29 30  1  0
 30 31  1  0
 31 32  2  0
  8  9  2  0
  9 11  1  0
 11 13  2  0
 13 12  1  0
 12 10  2  0
 10  8  1  0
  1  2  2  0
  2  3  1  0
  3  4  2  0
  4  6  1  0
  6  5  2  0
  5  1  1  0
 18 23  2  0
 23 26  1  0
 26 27  2  0
 27 25  1  0
 25 24  2  0
 24 18  1  0
M  END

$$$$
