No_3443-gen_results/8p0m/2024-11-26-14-13-15/
     RDKit          3D

 23 24  0  0  0  0  0  0  0  0999 V2000
  -28.0162   -0.8135   28.8779 C   0  0  0  0  0  0  0  0  0  0  0  0
  -27.0636   -0.1189   28.6079 C   0  0  0  0  0  0  0  0  0  0  0  0
  -26.9716    0.7139   27.5060 C   0  0  0  0  0  0  0  0  0  0  0  0
  -25.8205    1.4910   27.1160 C   0  0  0  0  0  0  0  0  0  0  0  0
  -24.6562    1.4242   27.9180 C   0  0  0  0  0  0  0  0  0  0  0  0
  -24.7114    0.5419   29.0507 C   0  0  0  0  0  0  0  0  0  0  0  0
  -25.8042   -0.2058   29.3881 C   0  0  0  0  0  0  0  0  0  0  0  0
  -28.7426   -0.4419   30.1405 C   0  0  0  0  0  0  0  0  0  0  0  0
  -29.8587   -1.2672   30.5944 C   0  0  0  0  0  0  0  0  0  0  0  0
  -23.4474    2.1579   27.6272 C   0  0  0  0  0  0  0  0  0  0  0  0
  -22.8753    2.5711   28.6490 F   0  0  0  0  0  0  0  0  0  0  0  0
  -23.6075    3.1881   26.7541 F   0  0  0  0  0  0  0  0  0  0  0  0
  -22.5120    1.3601   27.0250 F   0  0  0  0  0  0  0  0  0  0  0  0
  -29.2271    1.0000   30.1422 C   0  0  0  0  0  0  0  0  0  0  0  0
  -27.6808   -0.4923   31.3721 C   0  0  0  0  0  0  0  0  0  0  0  0
  -29.7201   -2.4192   31.0900 C   0  0  0  0  0  0  0  0  0  0  0  0
  -29.3139   -3.4958   30.2437 C   0  0  0  0  0  0  0  0  0  0  0  0
  -28.7385   -4.7083   30.8929 C   0  0  0  0  0  0  0  0  0  0  0  0
  -30.2335    1.3248   29.4180 C   0  0  0  0  0  0  0  0  0  0  0  0
  -31.1785   -0.8664   30.1790 C   0  0  0  0  0  0  0  0  0  0  0  0
  -32.2680   -1.7038   30.4603 C   0  0  0  0  0  0  0  0  0  0  0  0
  -31.3626    0.4738   29.6172 C   0  0  0  0  0  0  0  0  0  0  0  0
  -27.8470   -5.2402   30.4313 O   0  0  0  0  0  0  0  0  0  0  0  0
  1  8  1  0
  8  9  1  0
  5 10  1  0
 10 11  1  0
 10 12  1  0
 10 13  1  0
  8 14  1  0
  8 15  1  0
  9 16  1  0
 16 17  1  0
 17 18  2  0
  9 20  1  0
 20 21  1  0
 19 22  1  0
 20 22  1  0
 18 23  2  0
  1  2  1  0
 19 14  1  0
  2  3  2  0
  3  4  1  0
  4  5  2  0
  5  6  1  0
  6  7  2  0
  7  2  1  0
M  END

$$$$
