No_3265-gen_results/8p0m/2024-11-26-14-13-15/
     RDKit          3D

 35 37  0  0  0  0  0  0  0  0999 V2000
  -28.0162   -0.8135   28.8779 C   0  0  0  0  0  0  0  0  0  0  0  0
  -27.0636   -0.1189   28.6079 C   0  0  0  0  0  0  0  0  0  0  0  0
  -26.9716    0.7139   27.5060 C   0  0  0  0  0  0  0  0  0  0  0  0
  -25.8206    1.4910   27.1160 C   0  0  0  0  0  0  0  0  0  0  0  0
  -24.8580    1.3421   27.6008 C   0  0  0  0  0  0  0  0  0  0  0  0
  -23.5687    2.1107   27.3209 C   0  0  0  0  0  0  0  0  0  0  0  0
  -23.7824    2.7538   26.1406 N   0  0  0  0  0  0  0  0  0  0  0  0
  -25.6694   -0.2406   29.2437 C   0  0  0  0  0  0  0  0  0  0  0  0
  -24.5790    0.4894   28.8423 C   0  0  0  0  0  0  0  0  0  0  0  0
  -22.3678    1.9660   27.8353 N   0  0  0  0  0  0  0  0  0  0  0  0
  -27.9891   -1.2771   30.3479 C   0  0  0  0  0  0  0  0  0  0  0  0
  -29.1396   -1.9759   30.8386 C   0  0  0  0  0  0  0  0  0  0  0  0
  -28.9899   -2.7447   31.8142 N   0  0  0  0  0  0  0  0  0  0  0  0
  -30.2668   -1.8494   30.3387 O   0  0  0  0  0  0  0  0  0  0  0  0
  -30.0981   -3.6311   32.3817 C   0  0  0  0  0  0  0  0  0  0  0  0
  -26.8097   -2.0702   30.6545 O   0  0  0  0  0  0  0  0  0  0  0  0
  -28.2565    0.8645   26.7375 C   0  0  0  0  0  0  0  0  0  0  0  0
  -28.3710    0.7029   25.5724 O   0  0  0  0  0  0  0  0  0  0  0  0
  -29.2567    1.5722   27.3596 N   0  0  0  0  0  0  0  0  0  0  0  0
  -30.5278    1.7778   26.7494 C   0  0  0  0  0  0  0  0  0  0  0  0
  -21.4321    1.0929   27.9690 C   0  0  0  0  0  0  0  0  0  0  0  0
  -21.3819    0.2027   29.0653 C   0  0  0  0  0  0  0  0  0  0  0  0
  -21.9548    0.3421   30.1054 O   0  0  0  0  0  0  0  0  0  0  0  0
  -20.7809   -1.0010   28.8360 O   0  0  0  0  0  0  0  0  0  0  0  0
  -25.9460    2.3316   25.9615 C   0  0  0  0  0  0  0  0  0  0  0  0
  -24.8823    3.0376   25.5476 C   0  0  0  0  0  0  0  0  0  0  0  0
  -31.1900    2.6289   27.0971 C   0  0  0  0  0  0  0  0  0  0  0  0
  -32.4695    2.9354   26.5011 C   0  0  0  0  0  0  0  0  0  0  0  0
  -32.8718    2.1132   25.4087 C   0  0  0  0  0  0  0  0  0  0  0  0
  -32.0315    1.0892   25.0100 C   0  0  0  0  0  0  0  0  0  0  0  0
  -30.8589    0.8791   25.6656 C   0  0  0  0  0  0  0  0  0  0  0  0
  -30.2424   -3.5591   33.5357 C   0  0  0  0  0  0  0  0  0  0  0  0
  -30.1084   -2.3549   34.1221 C   0  0  0  0  0  0  0  0  0  0  0  0
  -30.7104   -1.2862   33.6565 C   0  0  0  0  0  0  0  0  0  0  0  0
  -30.1551   -0.0870   33.9038 C   0  0  0  0  0  0  0  0  0  0  0  0
  6 10  1  0
  1 11  1  0
 11 12  1  0
 12 13  1  0
 12 14  2  0
 13 15  1  0
 11 16  1  0
  3 17  1  0
 17 18  2  0
 17 19  1  0
 19 20  1  0
 10 21  1  0
 21 22  1  0
 22 23  2  0
 22 24  1  0
 15 32  1  0
 32 33  1  0
 33 34  1  0
 34 35  2  0
  1  2  1  0
  2  3  2  0
  3  4  1  0
  5  9  1  0
  9  8  2  0
  8  2  1  0
 20 27  2  0
 27 28  1  0
 28 29  2  0
 29 30  1  0
 30 31  2  0
 31 20  1  0
  4  5  2  0
  5  6  1  0
  6  7  2  0
  7 26  1  0
 26 25  2  0
 25  4  1  0
M  END

$$$$
