No_3393-gen_results/8p0m/2024-11-26-14-13-15/
     RDKit          3D

 26 28  0  0  0  0  0  0  0  0999 V2000
  -28.0162   -0.8135   28.8779 C   0  0  0  0  0  0  0  0  0  0  0  0
  -27.0636   -0.1189   28.6079 C   0  0  0  0  0  0  0  0  0  0  0  0
  -25.7647   -0.3897   29.0360 C   0  0  0  0  0  0  0  0  0  0  0  0
  -24.5516    0.4058   28.7646 C   0  0  0  0  0  0  0  0  0  0  0  0
  -24.6957    1.4480   27.7988 C   0  0  0  0  0  0  0  0  0  0  0  0
  -23.5821    2.2165   27.4626 C   0  0  0  0  0  0  0  0  0  0  0  0
  -22.3295    1.8427   27.9661 C   0  0  0  0  0  0  0  0  0  0  0  0
  -22.1809    0.8284   28.8814 C   0  0  0  0  0  0  0  0  0  0  0  0
  -23.3190    0.0774   29.2471 C   0  0  0  0  0  0  0  0  0  0  0  0
  -27.9056   -1.8765   29.8669 C   0  0  0  0  0  0  0  0  0  0  0  0
  -26.6648   -2.3322   30.2886 C   0  0  0  0  0  0  0  0  0  0  0  0
  -25.5477   -1.5609   29.9180 C   0  0  0  0  0  0  0  0  0  0  0  0
  -29.0812   -2.6967   30.2508 C   0  0  0  0  0  0  0  0  0  0  0  0
  -28.9860   -3.9005   30.3094 O   0  0  0  0  0  0  0  0  0  0  0  0
  -30.0040   -2.0887   31.0053 N   0  0  0  0  0  0  0  0  0  0  0  0
  -31.1569   -2.8413   31.5494 C   0  0  0  0  0  0  0  0  0  0  0  0
  -30.0955   -0.6501   31.1979 C   0  0  0  0  0  0  0  0  0  0  0  0
  -30.0389   -0.2869   32.6228 C   0  0  0  0  0  0  0  0  0  0  0  0
  -31.0209   -0.4507   32.9900 F   0  0  0  0  0  0  0  0  0  0  0  0
  -29.7624    1.0902   32.6315 F   0  0  0  0  0  0  0  0  0  0  0  0
  -28.9708   -0.8368   33.2397 F   0  0  0  0  0  0  0  0  0  0  0  0
  -24.2351   -1.9261   30.3583 C   0  0  0  0  0  0  0  0  0  0  0  0
  -23.1579   -1.0922   30.1338 C   0  0  0  0  0  0  0  0  0  0  0  0
  -23.7675    3.3227   26.5159 C   0  0  0  0  0  0  0  0  0  0  0  0
  -25.0246    4.0990   26.5997 Cl  0  0  0  0  0  0  0  0  0  0  0  0
  -23.0218    3.3134   25.4083 O   0  0  0  0  0  0  0  0  0  0  0  0
  3  4  1  0
 10 13  1  0
 13 14  2  0
 13 15  1  0
 15 16  1  0
 15 17  1  0
 17 18  1  0
 18 19  1  0
 18 20  1  0
 18 21  1  0
 12 22  1  0
  9 23  1  0
 22 23  1  0
  6 24  1  0
 24 25  1  0
 24 26  2  0
  1  2  2  0
  2  3  1  0
  3 12  2  0
 12 11  1  0
 11 10  2  0
 10  1  1  0
  4  5  2  0
  5  6  1  0
  6  7  2  0
  7  8  1  0
  8  9  2  0
  9  4  1  0
M  END

$$$$
