No_3933-gen_results/8p0m/2024-11-26-14-13-15/
     RDKit          3D

 18 20  0  0  0  0  0  0  0  0999 V2000
  -28.0544   -1.0498   28.7246 N   0  0  0  0  0  0  0  0  0  0  0  0
  -26.9659   -0.4722   28.7709 C   0  0  0  0  0  0  0  0  0  0  0  0
  -26.5486    0.3876   27.8310 C   0  0  0  0  0  0  0  0  0  0  0  0
  -26.7395    1.3899   27.7796 C   0  0  0  0  0  0  0  0  0  0  0  0
  -28.2136    1.7758   27.7924 C   0  0  0  0  0  0  0  0  0  0  0  0
  -29.1718    0.9992   28.4220 C   0  0  0  0  0  0  0  0  0  0  0  0
  -28.1793   -2.1187   29.6182 C   0  0  0  0  0  0  0  0  0  0  0  0
  -29.2139   -0.2286   28.7554 C   0  0  0  0  0  0  0  0  0  0  0  0
  -29.2531   -2.5631   30.2352 C   0  0  0  0  0  0  0  0  0  0  0  0
  -26.9714   -3.0544   29.8336 C   0  0  0  0  0  0  0  0  0  0  0  0
  -29.3577   -3.7964   30.9838 C   0  0  0  0  0  0  0  0  0  0  0  0
  -28.2648   -4.6428   31.0593 C   0  0  0  0  0  0  0  0  0  0  0  0
  -27.0843   -4.2690   30.4265 C   0  0  0  0  0  0  0  0  0  0  0  0
  -25.4395   -0.2253   26.9489 C   0  0  0  0  0  0  0  0  0  0  0  0
  -24.6374    0.6260   26.1800 C   0  0  0  0  0  0  0  0  0  0  0  0
  -25.0328    2.0223   26.1397 C   0  0  0  0  0  0  0  0  0  0  0  0
  -26.1593    2.4815   26.8398 C   0  0  0  0  0  0  0  0  0  0  0  0
  -30.2197   -0.6781   29.3197 O   0  0  0  0  0  0  0  0  0  0  0  0
  1  2  1  0
  2  3  1  0
  4  5  1  0
  5  6  2  0
  1  7  1  0
  1  8  1  0
  6  8  1  0
  8 18  2  0
  3  4  2  0
  4 17  1  0
 17 16  2  0
 16 15  1  0
 15 14  2  0
 14  3  1  0
  7  9  2  0
  9 11  1  0
 11 12  2  0
 12 13  1  0
 13 10  2  0
 10  7  1  0
M  END

$$$$
