No_3250-gen_results/8p0m/2024-11-26-14-13-15/
     RDKit          3D

 22 24  0  0  0  0  0  0  0  0999 V2000
  -28.0162   -0.8135   28.8779 C   0  0  0  0  0  0  0  0  0  0  0  0
  -27.0636   -0.1189   28.6079 C   0  0  0  0  0  0  0  0  0  0  0  0
  -25.7923   -0.4302   29.0761 C   0  0  0  0  0  0  0  0  0  0  0  0
  -25.5756   -1.5654   29.9363 C   0  0  0  0  0  0  0  0  0  0  0  0
  -26.7354   -2.3004   30.2173 C   0  0  0  0  0  0  0  0  0  0  0  0
  -27.9184   -1.9537   29.7629 C   0  0  0  0  0  0  0  0  0  0  0  0
  -27.1354    0.9934   27.8754 F   0  0  0  0  0  0  0  0  0  0  0  0
  -29.2641   -2.9086   30.2210 Cl  0  0  0  0  0  0  0  0  0  0  0  0
  -24.5178    0.3609   28.7535 C   0  0  0  0  0  0  0  0  0  0  0  0
  -23.3315    0.0050   29.3398 C   0  0  0  0  0  0  0  0  0  0  0  0
  -22.2051    0.7990   29.0568 C   0  0  0  0  0  0  0  0  0  0  0  0
  -22.1075    1.7111   28.0496 C   0  0  0  0  0  0  0  0  0  0  0  0
  -23.2722    2.0291   27.3834 C   0  0  0  0  0  0  0  0  0  0  0  0
  -24.4818    1.3513   27.7227 C   0  0  0  0  0  0  0  0  0  0  0  0
  -23.3540    2.9436   26.4520 F   0  0  0  0  0  0  0  0  0  0  0  0
  -29.3092   -0.5579   28.4936 O   0  0  0  0  0  0  0  0  0  0  0  0
  -30.2560   -0.0716   29.2606 C   0  0  0  0  0  0  0  0  0  0  0  0
  -30.8309    1.0708   28.6966 C   0  0  0  0  0  0  0  0  0  0  0  0
  -31.7301    1.6523   29.4860 C   0  0  0  0  0  0  0  0  0  0  0  0
  -32.2365    0.9387   30.4838 C   0  0  0  0  0  0  0  0  0  0  0  0
  -31.7134   -0.1849   31.0212 C   0  0  0  0  0  0  0  0  0  0  0  0
  -30.6671   -0.7001   30.3894 C   0  0  0  0  0  0  0  0  0  0  0  0
  2  7  1  0
  6  8  1  0
  3  9  1  0
 13 15  1  0
  1 16  1  0
 16 17  1  0
 17 18  2  0
 18 19  1  0
 19 20  2  0
 20 21  1  0
 21 22  2  0
 22 17  1  0
  1  2  2  0
  2  3  1  0
  3  4  2  0
  4  5  1  0
  5  6  2  0
  6  1  1  0
  9 10  2  0
 10 11  1  0
 11 12  2  0
 12 13  1  0
 13 14  2  0
 14  9  1  0
M  END

$$$$
