No_3719-gen_results/8p0m/2024-11-26-14-13-15/
     RDKit          3D

 16 16  0  0  0  0  0  0  0  0999 V2000
  -28.0162   -0.8135   28.8779 C   0  0  0  0  0  0  0  0  0  0  0  0
  -27.0636   -0.1189   28.6079 C   0  0  0  0  0  0  0  0  0  0  0  0
  -25.7647   -0.3897   29.0360 C   0  0  0  0  0  0  0  0  0  0  0  0
  -25.5296   -1.5302   29.9014 C   0  0  0  0  0  0  0  0  0  0  0  0
  -26.6577   -2.2915   30.2035 C   0  0  0  0  0  0  0  0  0  0  0  0
  -27.8432   -1.9747   29.7510 C   0  0  0  0  0  0  0  0  0  0  0  0
  -24.2442    0.6516   28.6441 Br  0  0  0  0  0  0  0  0  0  0  0  0
  -28.9874   -2.8515   30.1817 C   0  0  0  0  0  0  0  0  0  0  0  0
  -28.8687   -4.0722   30.2016 O   0  0  0  0  0  0  0  0  0  0  0  0
  -30.0983   -2.3407   30.4899 O   0  0  0  0  0  0  0  0  0  0  0  0
  -27.1812    1.0890   27.6583 C   0  0  0  0  0  0  0  0  0  0  0  0
  -27.0588    0.9648   26.3869 N   0  0  0  0  0  0  0  0  0  0  0  0
  -27.6171    0.3215   25.6793 C   0  0  0  0  0  0  0  0  0  0  0  0
  -28.7075   -0.2533   25.9035 N   0  0  0  0  0  0  0  0  0  0  0  0
  -29.6086   -0.7013   24.9560 C   0  0  0  0  0  0  0  0  0  0  0  0
  -30.7984   -1.2759   25.1653 N   0  0  0  0  0  0  0  0  0  0  0  0
  3  7  1  0
  6  8  1  0
  8  9  2  0
  8 10  1  0
  2 11  1  0
 11 12  1  0
 12 13  1  0
 13 14  1  0
 14 15  2  3
 15 16  1  0
  1  2  2  0
  2  3  1  0
  3  4  2  0
  4  5  1  0
  5  6  2  0
  6  1  1  0
M  END

$$$$
