No_3651-gen_results/8p0m/2024-11-26-14-13-15/
     RDKit          3D

 30 33  0  0  0  0  0  0  0  0999 V2000
  -28.0162   -0.8135   28.8779 C   0  0  0  0  0  0  0  0  0  0  0  0
  -27.0636   -0.1190   28.6079 C   0  0  0  0  0  0  0  0  0  0  0  0
  -25.8176   -0.3427   29.0488 N   0  0  0  0  0  0  0  0  0  0  0  0
  -24.6757    0.3814   28.7496 C   0  0  0  0  0  0  0  0  0  0  0  0
  -23.4276    0.0095   29.2601 C   0  0  0  0  0  0  0  0  0  0  0  0
  -22.2341    0.6752   28.9665 C   0  0  0  0  0  0  0  0  0  0  0  0
  -22.2074    1.6474   27.9672 C   0  0  0  0  0  0  0  0  0  0  0  0
  -23.4333    2.0438   27.4220 C   0  0  0  0  0  0  0  0  0  0  0  0
  -24.6468    1.3668   27.7395 C   0  0  0  0  0  0  0  0  0  0  0  0
  -29.2727   -0.1537   29.0735 C   0  0  0  0  0  0  0  0  0  0  0  0
  -30.3539   -0.8144   29.6696 C   0  0  0  0  0  0  0  0  0  0  0  0
  -31.6395   -0.3373   29.5903 C   0  0  0  0  0  0  0  0  0  0  0  0
  -31.8067    0.9724   29.0673 C   0  0  0  0  0  0  0  0  0  0  0  0
  -30.7917    1.6520   28.5132 C   0  0  0  0  0  0  0  0  0  0  0  0
  -29.4824    1.0730   28.4394 C   0  0  0  0  0  0  0  0  0  0  0  0
  -27.1385    1.0322   27.8652 O   0  0  0  0  0  0  0  0  0  0  0  0
  -25.5803   -1.4734   29.9506 C   0  0  0  0  0  0  0  0  0  0  0  0
  -33.2005    1.5475   29.1239 C   0  0  0  0  0  0  0  0  0  0  0  0
  -34.1609    1.0855   28.9056 O   0  0  0  0  0  0  0  0  0  0  0  0
  -33.1455    2.8082   29.8520 N   0  0  0  0  0  0  0  0  0  0  0  0
  -34.3609    3.5344   30.0175 C   0  0  0  0  0  0  0  0  0  0  0  0
  -34.1318    4.6704   30.4250 C   0  0  0  0  0  0  0  0  0  0  0  0
  -32.8717    5.2677   30.7403 C   0  0  0  0  0  0  0  0  0  0  0  0
  -31.7332    4.4623   30.5030 C   0  0  0  0  0  0  0  0  0  0  0  0
  -31.8791    3.2448   30.0336 C   0  0  0  0  0  0  0  0  0  0  0  0
  -31.1546    2.8284   27.7985 C   0  0  0  0  0  0  0  0  0  0  0  0
  -31.0305    3.4282   28.8405 O   0  0  0  0  0  0  0  0  0  0  0  0
  -30.0028    3.2749   26.8568 C   0  0  0  0  0  0  0  0  0  0  0  0
  -29.2677    4.4377   27.0052 C   0  0  0  0  0  0  0  0  0  0  0  0
  -29.7422    2.4882   25.6517 C   0  0  0  0  0  0  0  0  0  0  0  0
  1  2  1  0
  2  3  1  0
  3  4  1  0
  2 16  2  0
  3 17  1  0
 13 18  1  0
 18 19  2  0
 18 20  1  0
 20 21  1  0
 22 23  1  0
 20 25  1  0
 24 25  1  0
 14 26  1  0
 25 27  1  0
 26 27  1  0
 26 28  1  0
 28 29  2  0
 28 30  1  0
  1 10  1  0
 21 22  1  0
 23 24  1  0
 10 11  2  0
 11 12  1  0
 12 13  2  0
 13 14  1  0
 14 15  2  0
 15 10  1  0
  4  5  2  0
  5  6  1  0
  6  7  2  0
  7  8  1  0
  8  9  2  0
  9  4  1  0
M  END

$$$$
