No_3261-gen_results/8p0m/2024-11-26-14-13-15/
     RDKit          3D

 22 22  0  0  0  0  0  0  0  0999 V2000
  -28.0162   -0.8135   28.8779 C   0  0  0  0  0  0  0  0  0  0  0  0
  -28.4690   -0.7850   29.8287 C   0  0  0  0  0  0  0  0  0  0  0  0
  -28.1816    0.4277   28.1134 C   0  0  0  0  0  0  0  0  0  0  0  0
  -28.9841    1.4155   28.5154 C   0  0  0  0  0  0  0  0  0  0  0  0
  -29.3802    0.1384   30.4612 C   0  0  0  0  0  0  0  0  0  0  0  0
  -29.5415    1.2736   29.7242 C   0  0  0  0  0  0  0  0  0  0  0  0
  -27.4586    0.4934   26.7701 C   0  0  0  0  0  0  0  0  0  0  0  0
  -26.3677   -0.2536   26.7330 F   0  0  0  0  0  0  0  0  0  0  0  0
  -27.0122    1.7725   26.4880 F   0  0  0  0  0  0  0  0  0  0  0  0
  -28.2693    0.1668   25.7289 F   0  0  0  0  0  0  0  0  0  0  0  0
  -30.6417    2.5399   30.3624 P   0  0  0  0  0  0  0  0  0  0  0  0
  -31.5451    2.9444   29.6149 O   0  0  0  0  0  0  0  0  0  0  0  0
  -31.1939    1.8955   31.6882 O   0  0  0  0  0  0  0  0  0  0  0  0
  -29.5591    3.5870   30.8077 O   0  0  0  0  0  0  0  0  0  0  0  0
  -28.5404    3.5878   31.8147 Cl  0  0  0  0  0  0  0  0  0  0  0  0
  -28.2870   -2.0850   30.7818 C   0  0  0  0  0  0  0  0  0  0  0  0
  -27.6441   -3.0117   30.4101 O   0  0  0  0  0  0  0  0  0  0  0  0
  -29.1253   -2.1944   31.8093 O   0  0  0  0  0  0  0  0  0  0  0  0
  -30.2039   -3.0696   31.7759 C   0  0  0  0  0  0  0  0  0  0  0  0
  -30.5740   -3.5747   33.0037 C   0  0  0  0  0  0  0  0  0  0  0  0
  -31.1092   -4.6380   33.0250 O   0  0  0  0  0  0  0  0  0  0  0  0
  -30.2222   -3.0817   34.0862 F   0  0  0  0  0  0  0  0  0  0  0  0
  3  7  1  0
  7  8  1  0
  7  9  1  0
  7 10  1  0
  6 11  1  0
 11 12  2  0
 11 13  1  0
 11 14  1  0
 14 15  1  0
  2 16  1  0
 16 17  2  0
 16 18  1  0
 18 19  1  0
 19 20  1  0
 20 21  2  0
 20 22  1  0
  1  2  2  0
  2  5  1  0
  5  6  2  0
  6  4  1  0
  4  3  2  0
  3  1  1  0
M  END

$$$$
