No_3915-gen_results/8p0m/2024-11-26-14-13-15/
     RDKit          3D

 17 17  0  0  0  0  0  0  0  0999 V2000
  -28.0162   -0.8135   28.8779 C   0  0  0  0  0  0  0  0  0  0  0  0
  -27.0636   -0.1189   28.6079 C   0  0  0  0  0  0  0  0  0  0  0  0
  -26.9287    1.1713   29.0083 C   0  0  0  0  0  0  0  0  0  0  0  0
  -25.7702    2.0341   28.6884 C   0  0  0  0  0  0  0  0  0  0  0  0
  -24.7141    1.4431   27.9188 C   0  0  0  0  0  0  0  0  0  0  0  0
  -24.8590    0.0783   27.5836 C   0  0  0  0  0  0  0  0  0  0  0  0
  -25.9647   -0.6606   27.9164 C   0  0  0  0  0  0  0  0  0  0  0  0
  -28.6576   -0.6023   30.2546 C   0  0  0  0  0  0  0  0  0  0  0  0
  -29.6781   -1.3142   30.5817 C   0  0  0  0  0  0  0  0  0  0  0  0
  -23.5305    2.1689   27.5471 C   0  0  0  0  0  0  0  0  0  0  0  0
  -23.4749    2.9451   26.8281 F   0  0  0  0  0  0  0  0  0  0  0  0
  -22.5112    1.1397   27.1510 F   0  0  0  0  0  0  0  0  0  0  0  0
  -22.8581    2.5295   28.7746 F   0  0  0  0  0  0  0  0  0  0  0  0
  -29.9062   -2.4607   30.8618 C   0  0  0  0  0  0  0  0  0  0  0  0
  -28.8693   -3.2189   31.2826 C   0  0  0  0  0  0  0  0  0  0  0  0
  -28.7616   -4.4411   31.1140 O   0  0  0  0  0  0  0  0  0  0  0  0
  -30.5888   -3.2978   29.8137 N   0  0  0  0  0  0  0  0  0  0  0  0
  1  2  1  0
  1  8  1  0
  8  9  1  0
  5 10  1  0
 10 11  1  0
 10 12  1  0
 10 13  1  0
  9 14  1  0
 14 15  1  0
 15 16  1  0
 14 17  1  0
  2  3  2  0
  3  4  1  0
  4  5  2  0
  5  6  1  0
  6  7  2  0
  7  2  1  0
M  END

$$$$
