No_3133-gen_results/8p0m/2024-11-26-14-13-15/
     RDKit          3D

 14 15  0  0  0  0  0  0  0  0999 V2000
  -28.0162   -0.8135   28.8779 C   0  0  0  0  0  0  0  0  0  0  0  0
  -28.4690   -0.7850   29.8287 C   0  0  0  0  0  0  0  0  0  0  0  0
  -26.5455   -0.8762   28.8500 C   0  0  0  0  0  0  0  0  0  0  0  0
  -25.8041   -1.0324   30.0571 C   0  0  0  0  0  0  0  0  0  0  0  0
  -27.9437   -0.9869   31.2075 C   0  0  0  0  0  0  0  0  0  0  0  0
  -24.4008   -1.0969   30.0965 C   0  0  0  0  0  0  0  0  0  0  0  0
  -26.5612   -1.0746   31.2270 C   0  0  0  0  0  0  0  0  0  0  0  0
  -23.6402   -1.0939   29.0566 C   0  0  0  0  0  0  0  0  0  0  0  0
  -22.1825   -0.9471   29.1176 C   0  0  0  0  0  0  0  0  0  0  0  0
  -23.6288   -0.1164   30.9293 C   0  0  0  0  0  0  0  0  0  0  0  0
  -22.0161   -0.1591   30.2075 C   0  0  0  0  0  0  0  0  0  0  0  0
  -30.0851   -0.6698   29.8874 C   0  0  0  0  0  0  0  0  0  0  0  0
  -30.6099    0.2396   30.5974 O   0  0  0  0  0  0  0  0  0  0  0  0
  -30.7349   -1.6444   29.4547 O   0  0  0  0  0  0  0  0  0  0  0  0
  4  6  1  0
  6  8  2  0
  8  9  1  0
  6 10  1  0
  9 11  1  0
 10 11  2  0
  2 12  1  0
 12 13  2  0
 12 14  1  0
  1  2  2  0
  2  5  1  0
  5  7  2  0
  7  4  1  0
  4  3  2  0
  3  1  1  0
M  END

$$$$
