No_3387-gen_results/8p0m/2024-11-26-14-13-15/
     RDKit          3D

 19 20  0  0  0  0  0  0  0  0999 V2000
  -28.0162   -0.8135   28.8779 C   0  0  0  0  0  0  0  0  0  0  0  0
  -27.0636   -0.1189   28.6079 C   0  0  0  0  0  0  0  0  0  0  0  0
  -27.0010    0.6913   27.4910 C   0  0  0  0  0  0  0  0  0  0  0  0
  -25.7770    1.0214   26.9135 C   0  0  0  0  0  0  0  0  0  0  0  0
  -24.5088    0.7364   27.5686 C   0  0  0  0  0  0  0  0  0  0  0  0
  -24.5930   -0.0361   28.7390 C   0  0  0  0  0  0  0  0  0  0  0  0
  -25.8114   -0.4771   29.1584 C   0  0  0  0  0  0  0  0  0  0  0  0
  -28.6413   -0.4024   30.1937 C   0  0  0  0  0  0  0  0  0  0  0  0
  -28.5472    0.5584   30.6795 O   0  0  0  0  0  0  0  0  0  0  0  0
  -29.3354   -1.5296   30.8790 N   0  0  0  0  0  0  0  0  0  0  0  0
  -23.2637    1.3352   27.0977 C   0  0  0  0  0  0  0  0  0  0  0  0
  -22.1891    1.3082   27.8770 N   0  0  0  0  0  0  0  0  0  0  0  0
  -23.2364    2.0286   26.0439 O   0  0  0  0  0  0  0  0  0  0  0  0
  -29.5521   -2.7841   30.3883 C   0  0  0  0  0  0  0  0  0  0  0  0
  -30.2724   -3.6117   31.1943 C   0  0  0  0  0  0  0  0  0  0  0  0
  -30.6083   -3.2938   32.3140 C   0  0  0  0  0  0  0  0  0  0  0  0
  -30.3881   -2.0443   32.9180 C   0  0  0  0  0  0  0  0  0  0  0  0
  -29.7422   -1.1289   32.1673 C   0  0  0  0  0  0  0  0  0  0  0  0
  -22.0536    0.6838   29.0905 C   0  0  0  0  0  0  0  0  0  0  0  0
  1  2  1  0
  1  8  1  0
  8  9  2  0
  8 10  1  0
  5 11  1  0
 11 12  1  0
 11 13  2  0
 10 14  1  0
 15 16  1  0
 10 18  1  0
 17 18  1  0
 12 19  2  0
 14 15  1  0
 16 17  1  0
  2  3  2  0
  3  4  1  0
  4  5  2  0
  5  6  1  0
  6  7  2  0
  7  2  1  0
M  END

$$$$
