No_3752-gen_results/8p0m/2024-11-26-14-13-15/
     RDKit          3D

 23 24  0  0  0  0  0  0  0  0999 V2000
  -28.0162   -0.8135   28.8779 C   0  0  0  0  0  0  0  0  0  0  0  0
  -27.0636   -0.1190   28.6079 C   0  0  0  0  0  0  0  0  0  0  0  0
  -25.8837   -0.5253   28.7835 F   0  0  0  0  0  0  0  0  0  0  0  0
  -27.0741    0.4865   27.1626 C   0  0  0  0  0  0  0  0  0  0  0  0
  -28.0106   -1.3680   30.2513 C   0  0  0  0  0  0  0  0  0  0  0  0
  -28.9653   -1.8073   30.7686 O   0  0  0  0  0  0  0  0  0  0  0  0
  -28.0375    1.0855   26.6863 C   0  0  0  0  0  0  0  0  0  0  0  0
  -27.9711    1.8327   25.5376 C   0  0  0  0  0  0  0  0  0  0  0  0
  -26.7541    1.8375   24.7920 C   0  0  0  0  0  0  0  0  0  0  0  0
  -25.7582    0.6257   26.4873 C   0  0  0  0  0  0  0  0  0  0  0  0
  -25.6724    1.2699   25.3051 C   0  0  0  0  0  0  0  0  0  0  0  0
  -26.8471   -1.5145   30.8554 O   0  0  0  0  0  0  0  0  0  0  0  0
  -26.9629    1.2009   29.4811 C   0  0  0  0  0  0  0  0  0  0  0  0
  -26.3993    2.0849   29.4758 C   0  0  0  0  0  0  0  0  0  0  0  0
  -25.0583    2.2561   28.7044 C   0  0  0  0  0  0  0  0  0  0  0  0
  -24.6978    3.4339   27.9634 C   0  0  0  0  0  0  0  0  0  0  0  0
  -23.5265    3.3180   27.2926 N   0  0  0  0  0  0  0  0  0  0  0  0
  -25.7982    4.6870   27.5845 S   0  0  0  0  0  0  0  0  0  0  0  0
  -24.0499    1.3735   28.7914 C   0  0  0  0  0  0  0  0  0  0  0  0
  -22.8644    1.4341   28.3342 N   0  0  0  0  0  0  0  0  0  0  0  0
  -22.6340    2.4558   27.4930 C   0  0  0  0  0  0  0  0  0  0  0  0
  -25.9633    5.3404   28.6987 O   0  0  0  0  0  0  0  0  0  0  0  0
  -25.1398    5.4376   26.5406 O   0  0  0  0  0  0  0  0  0  0  0  0
  1  2  1  0
  2  3  1  0
  2  4  1  0
  1  5  1  0
  5  6  2  0
  5 12  1  0
  2 13  1  0
 13 14  2  3
 14 15  1  0
 16 18  1  0
 18 22  2  0
 18 23  2  0
  4  7  2  0
  7  8  1  0
  8  9  2  0
  9 11  1  0
 11 10  2  0
 10  4  1  0
 15 16  2  0
 16 17  1  0
 17 21  2  0
 21 20  1  0
 20 19  2  0
 19 15  1  0
M  END

$$$$
