No_3191-gen_results/8p0m/2024-11-26-14-13-15/
     RDKit          3D

 18 19  0  0  0  0  0  0  0  0999 V2000
  -28.0162   -0.8135   28.8779 C   0  0  0  0  0  0  0  0  0  0  0  0
  -28.4690   -0.7850   29.8287 C   0  0  0  0  0  0  0  0  0  0  0  0
  -26.5455   -0.8762   28.8500 C   0  0  0  0  0  0  0  0  0  0  0  0
  -25.6825   -0.7773   27.6829 C   0  0  0  0  0  0  0  0  0  0  0  0
  -27.9181   -1.0034   31.1877 C   0  0  0  0  0  0  0  0  0  0  0  0
  -26.5308   -1.0794   31.2463 C   0  0  0  0  0  0  0  0  0  0  0  0
  -25.7798   -1.0462   30.0905 C   0  0  0  0  0  0  0  0  0  0  0  0
  -25.8976    0.2387   26.7449 C   0  0  0  0  0  0  0  0  0  0  0  0
  -25.6318    1.4984   27.0379 C   0  0  0  0  0  0  0  0  0  0  0  0
  -24.8915    1.8299   28.2576 C   0  0  0  0  0  0  0  0  0  0  0  0
  -23.7185    1.2879   28.5049 C   0  0  0  0  0  0  0  0  0  0  0  0
  -23.0830    1.5335   29.7328 C   0  0  0  0  0  0  0  0  0  0  0  0
  -23.7907    2.1777   30.7259 C   0  0  0  0  0  0  0  0  0  0  0  0
  -25.0300    2.7515   30.5789 C   0  0  0  0  0  0  0  0  0  0  0  0
  -25.6307    2.5244   29.2777 C   0  0  0  0  0  0  0  0  0  0  0  0
  -26.9294    3.1157   29.0744 C   0  0  0  0  0  0  0  0  0  0  0  0
  -27.3094    3.6073   28.1838 O   0  0  0  0  0  0  0  0  0  0  0  0
  -27.7110    3.1373   30.2024 O   0  0  0  0  0  0  0  0  0  0  0  0
  3  4  1  0
  4  8  1  0
  8  9  2  3
  9 10  1  0
 15 16  1  0
 16 17  2  0
 16 18  1  0
  1  2  2  0
  2  5  1  0
  5  6  2  0
  6  7  1  0
  7  3  2  0
  3  1  1  0
 10 11  2  0
 11 12  1  0
 12 13  2  0
 13 14  1  0
 14 15  2  0
 15 10  1  0
M  END

$$$$
