No_392-gen_results/8p0m/2024-11-26-14-13-15/
     RDKit          3D

 27 29  0  0  0  0  0  0  0  0999 V2000
  -28.0162   -0.8135   28.8779 C   0  0  0  0  0  0  0  0  0  0  0  0
  -27.0636   -0.1189   28.6079 C   0  0  0  0  0  0  0  0  0  0  0  0
  -25.7647   -0.3897   29.0360 C   0  0  0  0  0  0  0  0  0  0  0  0
  -25.5296   -1.5302   29.9014 C   0  0  0  0  0  0  0  0  0  0  0  0
  -26.6577   -2.2915   30.2035 C   0  0  0  0  0  0  0  0  0  0  0  0
  -27.8548   -1.9555   29.7630 C   0  0  0  0  0  0  0  0  0  0  0  0
  -24.5349    0.4128   28.7431 C   0  0  0  0  0  0  0  0  0  0  0  0
  -24.4835    1.2431   27.7398 C   0  0  0  0  0  0  0  0  0  0  0  0
  -23.3130    1.8552   27.3514 C   0  0  0  0  0  0  0  0  0  0  0  0
  -22.0780    1.6190   27.9587 C   0  0  0  0  0  0  0  0  0  0  0  0
  -23.2686    0.0949   29.4170 C   0  0  0  0  0  0  0  0  0  0  0  0
  -22.0621    0.7484   29.0306 C   0  0  0  0  0  0  0  0  0  0  0  0
  -28.9244   -2.7292   30.1327 O   0  0  0  0  0  0  0  0  0  0  0  0
  -29.2775   -2.8169   31.4391 C   0  0  0  0  0  0  0  0  0  0  0  0
  -30.6653   -2.6971   31.6385 C   0  0  0  0  0  0  0  0  0  0  0  0
  -31.0634   -2.8397   32.8658 C   0  0  0  0  0  0  0  0  0  0  0  0
  -30.3360   -2.8111   33.7122 C   0  0  0  0  0  0  0  0  0  0  0  0
  -28.9168   -2.8856   33.7334 C   0  0  0  0  0  0  0  0  0  0  0  0
  -28.3639   -2.8796   32.4908 C   0  0  0  0  0  0  0  0  0  0  0  0
  -28.1291   -2.8450   34.7957 O   0  0  0  0  0  0  0  0  0  0  0  0
  -31.5273   -2.7154   30.4339 C   0  0  0  0  0  0  0  0  0  0  0  0
  -31.6788   -1.9102   29.7095 N   0  0  0  0  0  0  0  0  0  0  0  0
  -31.7059   -0.5843   30.0665 C   0  0  0  0  0  0  0  0  0  0  0  0
  -31.7764    0.4710   29.0139 C   0  0  0  0  0  0  0  0  0  0  0  0
  -31.8678   -1.9982   28.2731 C   0  0  0  0  0  0  0  0  0  0  0  0
  -31.7108   -3.2530   27.9291 F   0  0  0  0  0  0  0  0  0  0  0  0
  -31.8923   -0.8770   27.1533 Cl  0  0  0  0  0  0  0  0  0  0  0  0
  3  7  1  0
  6 13  1  0
 13 14  1  0
 18 20  1  0
 15 21  1  0
 21 22  1  0
 22 23  1  0
 23 24  2  0
 22 25  1  0
 25 26  1  0
 25 27  1  0
  7  8  2  0
  8  9  1  0
  9 10  2  0
 10 12  1  0
 12 11  2  0
 11  7  1  0
  1  2  2  0
  2  3  1  0
  3  4  2  0
  4  5  1  0
  5  6  2  0
  6  1  1  0
 14 15  2  0
 15 16  1  0
 16 17  2  0
 17 18  1  0
 18 19  2  0
 19 14  1  0
M  END

$$$$
