No_3158-gen_results/8p0m/2024-11-26-14-13-15/
     RDKit          3D

 20 20  0  0  0  0  0  0  0  0999 V2000
  -28.0162   -0.8135   28.8779 C   0  0  0  0  0  0  0  0  0  0  0  0
  -27.0636   -0.1189   28.6079 C   0  0  0  0  0  0  0  0  0  0  0  0
  -27.0010    0.6913   27.4910 C   0  0  0  0  0  0  0  0  0  0  0  0
  -28.1373    0.7363   26.6350 C   0  0  0  0  0  0  0  0  0  0  0  0
  -29.2360    0.0765   27.0690 C   0  0  0  0  0  0  0  0  0  0  0  0
  -30.3815    0.2048   26.2662 C   0  0  0  0  0  0  0  0  0  0  0  0
  -29.1803   -0.6422   28.1830 C   0  0  0  0  0  0  0  0  0  0  0  0
  -30.3650    0.0173   24.9969 N   0  0  0  0  0  0  0  0  0  0  0  0
  -31.5530    0.2684   26.8013 O   0  0  0  0  0  0  0  0  0  0  0  0
  -25.6945   -0.2105   29.4150 C   0  0  0  0  0  0  0  0  0  0  0  0
  -24.7331   -0.4555   28.7428 F   0  0  0  0  0  0  0  0  0  0  0  0
  -25.8078   -1.1759   30.3946 F   0  0  0  0  0  0  0  0  0  0  0  0
  -25.5061    0.9377   30.0678 F   0  0  0  0  0  0  0  0  0  0  0  0
  -29.1390   -0.2384   24.2403 C   0  0  0  0  0  0  0  0  0  0  0  0
  -31.5173    0.0766   24.0964 C   0  0  0  0  0  0  0  0  0  0  0  0
  -32.1479    1.1023   24.1020 C   0  0  0  0  0  0  0  0  0  0  0  0
  -33.3580    1.3739   23.4079 C   0  0  0  0  0  0  0  0  0  0  0  0
  -34.0241    2.6160   23.3630 C   0  0  0  0  0  0  0  0  0  0  0  0
  -33.4674    3.5385   24.0973 C   0  0  0  0  0  0  0  0  0  0  0  0
  -32.2945    3.4872   24.8437 C   0  0  0  0  0  0  0  0  0  0  0  0
  5  6  1  0
  6  8  1  0
  6  9  2  0
  2 10  1  0
 10 11  1  0
 10 12  1  0
 10 13  1  0
  8 14  1  0
  8 15  1  0
 15 16  2  3
 16 17  1  0
 17 18  2  3
 18 19  1  0
 19 20  2  0
  1  2  2  0
  2  3  1  0
  3  4  2  0
  4  5  1  0
  5  7  2  0
  7  1  1  0
M  END

$$$$
