No_3553-gen_results/8p0m/2024-11-26-14-13-15/
     RDKit          3D

 30 32  0  0  0  0  0  0  0  0999 V2000
  -28.0162   -0.8135   28.8779 C   0  0  0  0  0  0  0  0  0  0  0  0
  -27.0636   -0.1189   28.6079 C   0  0  0  0  0  0  0  0  0  0  0  0
  -25.7923   -0.4302   29.0761 C   0  0  0  0  0  0  0  0  0  0  0  0
  -24.5456    0.3494   28.8225 C   0  0  0  0  0  0  0  0  0  0  0  0
  -24.6586    1.4196   27.8878 C   0  0  0  0  0  0  0  0  0  0  0  0
  -25.9471    1.6811   27.3792 C   0  0  0  0  0  0  0  0  0  0  0  0
  -27.0439    0.9739   27.6871 C   0  0  0  0  0  0  0  0  0  0  0  0
  -29.1882   -0.1472   29.0918 N   0  0  0  0  0  0  0  0  0  0  0  0
  -29.6010    0.1626   30.3267 C   0  0  0  0  0  0  0  0  0  0  0  0
  -30.2668   -0.6190   28.1881 C   0  0  0  0  0  0  0  0  0  0  0  0
  -23.4591    2.1629   27.6048 C   0  0  0  0  0  0  0  0  0  0  0  0
  -22.3144    1.9058   28.0794 O   0  0  0  0  0  0  0  0  0  0  0  0
  -23.5478    3.0162   26.5548 O   0  0  0  0  0  0  0  0  0  0  0  0
  -27.9125   -1.9621   29.4629 O   0  0  0  0  0  0  0  0  0  0  0  0
  -31.3987    0.2842   27.9701 C   0  0  0  0  0  0  0  0  0  0  0  0
  -32.0813    0.1960   26.9186 C   0  0  0  0  0  0  0  0  0  0  0  0
  -31.9146   -0.9229   26.0303 C   0  0  0  0  0  0  0  0  0  0  0  0
  -30.8784   -1.6578   26.0544 C   0  0  0  0  0  0  0  0  0  0  0  0
  -29.9833   -1.3736   27.1367 N   0  0  0  0  0  0  0  0  0  0  0  0
  -29.6146    1.5997   30.5351 C   0  0  0  0  0  0  0  0  0  0  0  0
  -29.9322    2.1253   31.8108 C   0  0  0  0  0  0  0  0  0  0  0  0
  -30.3772    1.1768   32.7812 C   0  0  0  0  0  0  0  0  0  0  0  0
  -30.0251   -0.6854   31.2717 C   0  0  0  0  0  0  0  0  0  0  0  0
  -30.4354   -0.1824   32.5129 C   0  0  0  0  0  0  0  0  0  0  0  0
  -33.4095    0.9577   26.7745 C   0  0  0  0  0  0  0  0  0  0  0  0
  -33.7066    1.8034   27.6625 N   0  0  0  0  0  0  0  0  0  0  0  0
  -33.9315    1.0880   25.6696 O   0  0  0  0  0  0  0  0  0  0  0  0
  -34.6355    2.4275   27.9260 C   0  0  0  0  0  0  0  0  0  0  0  0
  -34.7009    3.2598   29.0141 C   0  0  0  0  0  0  0  0  0  0  0  0
  -35.7042    4.0375   29.5191 C   0  0  0  0  0  0  0  0  0  0  0  0
  1  2  1  0
  1  8  1  0
  8  9  1  0
  8 10  1  0
  5 11  1  0
 11 12  2  0
 11 13  1  0
  1 14  2  0
 16 25  1  0
 25 26  1  0
 25 27  2  0
 26 28  1  0
 28 29  2  3
 29 30  1  0
  2  3  2  0
  3  4  1  0
  4  5  2  0
  5  6  1  0
  6  7  2  0
  7  2  1  0
 10 15  2  0
 15 16  1  0
 16 17  2  0
 17 18  1  0
 18 19  2  0
 19 10  1  0
  9 20  2  0
 20 21  1  0
 21 22  2  0
 22 24  1  0
 24 23  2  0
 23  9  1  0
M  END

$$$$
