No_3442-gen_results/8p0m/2024-11-26-14-13-15/
     RDKit          3D

 23 26  0  0  0  0  0  0  0  0999 V2000
  -28.0162   -0.8135   28.8779 C   0  0  0  0  0  0  0  0  0  0  0  0
  -28.4690   -0.7850   29.8287 C   0  0  0  0  0  0  0  0  0  0  0  0
  -28.1816    0.4277   28.1134 C   0  0  0  0  0  0  0  0  0  0  0  0
  -28.9841    1.4155   28.5154 C   0  0  0  0  0  0  0  0  0  0  0  0
  -29.3802    0.1384   30.4612 C   0  0  0  0  0  0  0  0  0  0  0  0
  -29.5415    1.2736   29.7242 C   0  0  0  0  0  0  0  0  0  0  0  0
  -27.4586    0.4934   26.7701 C   0  0  0  0  0  0  0  0  0  0  0  0
  -27.8805    0.6637   25.7783 N   0  0  0  0  0  0  0  0  0  0  0  0
  -25.9360    0.3119   26.8304 C   0  0  0  0  0  0  0  0  0  0  0  0
  -25.3851    0.5394   25.5799 C   0  0  0  0  0  0  0  0  0  0  0  0
  -29.3366    0.8249   25.6888 C   0  0  0  0  0  0  0  0  0  0  0  0
  -23.9357    0.6791   25.6650 C   0  0  0  0  0  0  0  0  0  0  0  0
  -23.2689    0.8251   26.8363 C   0  0  0  0  0  0  0  0  0  0  0  0
  -23.9202    0.6612   28.0976 C   0  0  0  0  0  0  0  0  0  0  0  0
  -25.3078    0.5160   28.1199 C   0  0  0  0  0  0  0  0  0  0  0  0
  -29.9347    0.4978   24.7602 C   0  0  0  0  0  0  0  0  0  0  0  0
  -31.3513    0.5678   24.6006 C   0  0  0  0  0  0  0  0  0  0  0  0
  -32.0971    1.1596   25.6139 C   0  0  0  0  0  0  0  0  0  0  0  0
  -31.4247    1.5754   26.7208 C   0  0  0  0  0  0  0  0  0  0  0  0
  -30.0255    1.4379   26.8197 C   0  0  0  0  0  0  0  0  0  0  0  0
  -29.5037    3.0335   26.8417 C   0  0  0  0  0  0  0  0  0  0  0  0
  -28.3261    2.7191   28.4751 N   0  0  0  0  0  0  0  0  0  0  0  0
  -28.7667    3.6823   27.6558 C   0  0  0  0  0  0  0  0  0  0  0  0
  3  7  1  0
  7  8  2  3
  7  9  1  0
  8 11  1  0
 20 21  1  0
  4 22  1  0
 21 23  1  0
 22 23  1  0
  9 10  2  0
 10 12  1  0
 12 13  2  0
 13 14  1  0
 14 15  2  0
 15  9  1  0
 11 16  2  0
 16 17  1  0
 17 18  2  0
 18 19  1  0
 19 20  2  0
 20 11  1  0
  1  2  2  0
  2  5  1  0
  5  6  2  0
  6  4  1  0
  4  3  2  0
  3  1  1  0
M  END

$$$$
