No_3262-gen_results/8p0m/2024-11-26-14-13-15/
     RDKit          3D

 35 38  0  0  0  0  0  0  0  0999 V2000
  -28.1229   -1.3353   28.4874 O   0  0  0  0  0  0  0  0  0  0  0  0
  -27.4806   -0.4044   28.7094 C   0  0  0  0  0  0  0  0  0  0  0  0
  -26.3804   -0.0867   27.9394 C   0  0  0  0  0  0  0  0  0  0  0  0
  -27.8993    0.6459   29.6321 N   0  0  0  0  0  0  0  0  0  0  0  0
  -26.3190    0.9178   27.1016 C   0  0  0  0  0  0  0  0  0  0  0  0
  -25.2038    1.1966   26.2779 C   0  0  0  0  0  0  0  0  0  0  0  0
  -23.9447    0.6962   26.7050 C   0  0  0  0  0  0  0  0  0  0  0  0
  -23.9368   -0.1735   27.7893 C   0  0  0  0  0  0  0  0  0  0  0  0
  -25.0682   -0.5827   28.4384 C   0  0  0  0  0  0  0  0  0  0  0  0
  -29.0765    0.3969   30.4090 C   0  0  0  0  0  0  0  0  0  0  0  0
  -27.1168    1.7582   29.9063 C   0  0  0  0  0  0  0  0  0  0  0  0
  -26.6031    1.7943   31.2982 C   0  0  0  0  0  0  0  0  0  0  0  0
  -25.8795    1.1581   31.7228 C   0  0  0  0  0  0  0  0  0  0  0  0
  -25.4111    1.2546   33.1996 C   0  0  0  0  0  0  0  0  0  0  0  0
  -25.9854    2.2672   33.9246 C   0  0  0  0  0  0  0  0  0  0  0  0
  -27.2035    2.9307   32.1062 C   0  0  0  0  0  0  0  0  0  0  0  0
  -26.8496    3.1063   33.3738 C   0  0  0  0  0  0  0  0  0  0  0  0
  -29.0131   -0.3998   31.4797 C   0  0  0  0  0  0  0  0  0  0  0  0
  -28.3728   -1.1705   31.8514 C   0  0  0  0  0  0  0  0  0  0  0  0
  -28.4480   -2.0562   33.0713 C   0  0  0  0  0  0  0  0  0  0  0  0
  -29.6128   -1.8679   33.8392 C   0  0  0  0  0  0  0  0  0  0  0  0
  -30.5236   -0.8900   33.4395 C   0  0  0  0  0  0  0  0  0  0  0  0
  -30.3357   -0.1068   32.3353 C   0  0  0  0  0  0  0  0  0  0  0  0
  -30.0442    0.9876   29.8218 O   0  0  0  0  0  0  0  0  0  0  0  0
  -27.4921    4.2029   34.1971 C   0  0  0  0  0  0  0  0  0  0  0  0
  -28.5059    4.7476   33.8776 C   0  0  0  0  0  0  0  0  0  0  0  0
  -29.1858    5.4219   34.2379 C   0  0  0  0  0  0  0  0  0  0  0  0
  -28.7672    6.0930   35.5476 C   0  0  0  0  0  0  0  0  0  0  0  0
  -27.5913    5.6444   36.0805 C   0  0  0  0  0  0  0  0  0  0  0  0
  -26.9080    4.6834   35.4337 C   0  0  0  0  0  0  0  0  0  0  0  0
  -27.0180    6.1955   37.3482 C   0  0  0  0  0  0  0  0  0  0  0  0
  -26.2828    5.7099   37.9512 O   0  0  0  0  0  0  0  0  0  0  0  0
  -27.6828    7.3432   37.8175 O   0  0  0  0  0  0  0  0  0  0  0  0
  -27.5742    1.4814   26.4657 C   0  0  0  0  0  0  0  0  0  0  0  0
  -28.0707    1.3022   25.4716 C   0  0  0  0  0  0  0  0  0  0  0  0
  1  2  2  0
  2  3  1  0
  2  4  1  0
  4 10  1  0
  4 11  1  0
 11 12  1  0
 10 18  1  0
 10 24  2  0
 17 25  1  0
 29 31  1  0
 31 32  2  0
 31 33  1  0
  5 34  1  0
 34 35  2  0
 12 13  2  0
 13 14  1  0
 14 15  2  0
 15 17  1  0
 17 16  2  0
 16 12  1  0
  3  5  2  0
  5  6  1  0
  6  7  2  0
  7  8  1  0
  8  9  2  0
  9  3  1  0
 18 19  2  0
 19 20  1  0
 20 21  2  0
 21 22  1  0
 22 23  2  0
 23 18  1  0
 25 26  2  0
 26 27  1  0
 27 28  2  0
 28 29  1  0
 29 30  2  0
 30 25  1  0
M  END

$$$$
