No_3871-gen_results/8p0m/2024-11-26-14-13-15/
     RDKit          3D

 18 19  0  0  0  0  0  0  0  0999 V2000
  -28.0162   -0.8135   28.8779 C   0  0  0  0  0  0  0  0  0  0  0  0
  -28.4690   -0.7850   29.8287 C   0  0  0  0  0  0  0  0  0  0  0  0
  -27.0871    0.2903   28.6377 C   0  0  0  0  0  0  0  0  0  0  0  0
  -26.8317    1.2487   29.5869 C   0  0  0  0  0  0  0  0  0  0  0  0
  -29.4442   -1.9481   30.1840 C   0  0  0  0  0  0  0  0  0  0  0  0
  -27.4956    1.1303   30.8222 C   0  0  0  0  0  0  0  0  0  0  0  0
  -28.3376    0.0364   31.0331 C   0  0  0  0  0  0  0  0  0  0  0  0
  -29.1546   -3.1425   30.2218 O   0  0  0  0  0  0  0  0  0  0  0  0
  -30.7935   -1.6903   30.4822 N   0  0  0  0  0  0  0  0  0  0  0  0
  -31.7087   -2.7319   30.7124 C   0  0  0  0  0  0  0  0  0  0  0  0
  -26.3226    0.4249   27.3392 C   0  0  0  0  0  0  0  0  0  0  0  0
  -25.1533    0.8499   27.2138 C   0  0  0  0  0  0  0  0  0  0  0  0
  -24.1384    0.7114   28.1669 C   0  0  0  0  0  0  0  0  0  0  0  0
  -22.8773    1.3073   27.9756 C   0  0  0  0  0  0  0  0  0  0  0  0
  -22.6300    2.0264   26.8094 C   0  0  0  0  0  0  0  0  0  0  0  0
  -24.8019    1.6643   26.0543 C   0  0  0  0  0  0  0  0  0  0  0  0
  -23.5375    2.2062   25.8695 C   0  0  0  0  0  0  0  0  0  0  0  0
  -26.9899   -0.0615   26.2861 O   0  0  0  0  0  0  0  0  0  0  0  0
  2  5  1  0
  5  8  2  0
  5  9  1  0
  9 10  1  0
  3 11  1  0
 11 12  1  0
 11 18  2  0
 12 13  2  0
 13 14  1  0
 14 15  2  0
 15 17  1  0
 17 16  2  0
 16 12  1  0
  1  2  2  0
  2  7  1  0
  7  6  2  0
  6  4  1  0
  4  3  2  0
  3  1  1  0
M  END

$$$$
