No_317-gen_results/8p0m/2024-11-26-14-13-15/
     RDKit          3D

 25 28  0  0  0  0  0  0  0  0999 V2000
  -28.0162   -0.8135   28.8779 C   0  0  0  0  0  0  0  0  0  0  0  0
  -27.0636   -0.1189   28.6079 C   0  0  0  0  0  0  0  0  0  0  0  0
  -25.7923   -0.4302   29.0761 C   0  0  0  0  0  0  0  0  0  0  0  0
  -25.5756   -1.5654   29.9363 C   0  0  0  0  0  0  0  0  0  0  0  0
  -26.7354   -2.3004   30.2173 C   0  0  0  0  0  0  0  0  0  0  0  0
  -27.9184   -1.9537   29.7629 C   0  0  0  0  0  0  0  0  0  0  0  0
  -27.1057    1.1023   27.7593 C   0  0  0  0  0  0  0  0  0  0  0  0
  -26.7157    2.2350   27.9945 C   0  0  0  0  0  0  0  0  0  0  0  0
  -26.0688    2.4770   29.3567 C   0  0  0  0  0  0  0  0  0  0  0  0
  -26.2622    3.4491   30.0956 C   0  0  0  0  0  0  0  0  0  0  0  0
  -25.6340    3.5822   31.4192 C   0  0  0  0  0  0  0  0  0  0  0  0
  -24.6717    2.6589   31.7915 C   0  0  0  0  0  0  0  0  0  0  0  0
  -24.3736    1.6330   30.9475 C   0  0  0  0  0  0  0  0  0  0  0  0
  -25.0017    1.5279   29.7386 C   0  0  0  0  0  0  0  0  0  0  0  0
  -24.5362    0.5445   28.7942 C   0  0  0  0  0  0  0  0  0  0  0  0
  -27.1788    0.7559   26.4613 C   0  0  0  0  0  0  0  0  0  0  0  0
  -26.2332    0.2843   25.5806 C   0  0  0  0  0  0  0  0  0  0  0  0
  -28.5006    0.9007   25.8194 C   0  0  0  0  0  0  0  0  0  0  0  0
  -28.7475    0.4970   24.5474 C   0  0  0  0  0  0  0  0  0  0  0  0
  -26.4262   -0.0878   24.3326 N   0  0  0  0  0  0  0  0  0  0  0  0
  -27.6696    0.0117   23.8417 C   0  0  0  0  0  0  0  0  0  0  0  0
  -27.0544    3.3181   27.4048 F   0  0  0  0  0  0  0  0  0  0  0  0
  -25.8988    4.7732   32.3138 C   0  0  0  0  0  0  0  0  0  0  0  0
  -26.6339    5.4572   31.9632 O   0  0  0  0  0  0  0  0  0  0  0  0
  -25.1151    4.7901   33.3923 O   0  0  0  0  0  0  0  0  0  0  0  0
  2  7  1  0
  7  8  2  0
  8  9  1  0
  3 15  1  0
 14 15  1  0
  7 16  1  0
  8 22  1  0
 11 23  1  0
 23 24  2  0
 23 25  1  0
  1  2  2  0
  2  3  1  0
  3  4  2  0
  4  5  1  0
  5  6  2  0
  6  1  1  0
 16 17  2  0
 17 20  1  0
 20 21  2  0
 21 19  1  0
 19 18  2  0
 18 16  1  0
  9 10  2  0
 10 11  1  0
 11 12  2  0
 12 13  1  0
 13 14  2  0
 14  9  1  0
M  END

$$$$
