No_3008-gen_results/8p0m/2024-11-26-14-13-15/
     RDKit          3D

 35 38  0  0  0  0  0  0  0  0999 V2000
  -28.0162   -0.8135   28.8779 C   0  0  0  0  0  0  0  0  0  0  0  0
  -27.0636   -0.1189   28.6079 C   0  0  0  0  0  0  0  0  0  0  0  0
  -26.8756    1.1325   28.9134 C   0  0  0  0  0  0  0  0  0  0  0  0
  -27.9014    1.8066   29.6436 C   0  0  0  0  0  0  0  0  0  0  0  0
  -29.0458   -0.2316   29.7181 C   0  0  0  0  0  0  0  0  0  0  0  0
  -28.9402    1.0517   30.0597 C   0  0  0  0  0  0  0  0  0  0  0  0
  -30.0593   -1.0632   30.0946 O   0  0  0  0  0  0  0  0  0  0  0  0
  -25.6684    1.9363   28.4484 C   0  0  0  0  0  0  0  0  0  0  0  0
  -24.9348    1.7160   27.6796 C   0  0  0  0  0  0  0  0  0  0  0  0
  -23.7118    2.4802   27.3226 C   0  0  0  0  0  0  0  0  0  0  0  0
  -25.4691    3.2433   29.2044 C   0  0  0  0  0  0  0  0  0  0  0  0
  -24.4942    4.1043   28.7309 N   0  0  0  0  0  0  0  0  0  0  0  0
  -23.6023    3.7000   27.8476 C   0  0  0  0  0  0  0  0  0  0  0  0
  -29.8647   -2.1350   30.8644 C   0  0  0  0  0  0  0  0  0  0  0  0
  -30.1192   -3.3629   30.2203 C   0  0  0  0  0  0  0  0  0  0  0  0
  -30.6559   -3.4860   29.3472 O   0  0  0  0  0  0  0  0  0  0  0  0
  -29.4851   -4.4794   30.7934 O   0  0  0  0  0  0  0  0  0  0  0  0
  -29.3447   -1.9935   32.0606 O   0  0  0  0  0  0  0  0  0  0  0  0
  -30.0262    1.6921   30.8595 C   0  0  0  0  0  0  0  0  0  0  0  0
  -30.1973    2.8889   30.7995 C   0  0  0  0  0  0  0  0  0  0  0  0
  -31.2340    3.5693   31.5767 C   0  0  0  0  0  0  0  0  0  0  0  0
  -31.4379    4.9509   31.6050 C   0  0  0  0  0  0  0  0  0  0  0  0
  -30.5855    5.7280   30.8162 C   0  0  0  0  0  0  0  0  0  0  0  0
  -29.5653    5.1696   30.0539 C   0  0  0  0  0  0  0  0  0  0  0  0
  -29.3439    3.7916   30.0921 C   0  0  0  0  0  0  0  0  0  0  0  0
  -28.1655    3.1623   29.4819 C   0  0  0  0  0  0  0  0  0  0  0  0
  -32.1626    2.7501   32.3865 C   0  0  0  0  0  0  0  0  0  0  0  0
  -33.1053    3.3313   32.9309 N   0  0  0  0  0  0  0  0  0  0  0  0
  -32.1385    1.5189   32.1725 O   0  0  0  0  0  0  0  0  0  0  0  0
  -34.1271    2.6147   33.7029 C   0  0  0  0  0  0  0  0  0  0  0  0
  -35.2079    3.1924   33.9440 C   0  0  0  0  0  0  0  0  0  0  0  0
  -35.3511    4.5203   33.6788 C   0  0  0  0  0  0  0  0  0  0  0  0
  -36.5862    5.2438   33.9632 C   0  0  0  0  0  0  0  0  0  0  0  0
  -36.6568    6.6513   33.7604 C   0  0  0  0  0  0  0  0  0  0  0  0
  -35.5436    7.2895   33.1684 C   0  0  0  0  0  0  0  0  0  0  0  0
  5  7  1  0
  3  8  1  0
  7 14  1  0
 14 15  1  0
 15 16  2  0
 15 17  1  0
 14 18  2  0
 21 27  1  0
 27 28  1  0
 27 29  2  0
 28 30  1  0
 30 31  2  3
 31 32  1  0
 32 33  1  0
 33 34  2  3
 34 35  1  0
 20 21  1  0
 21 22  2  0
 22 23  1  0
 23 24  2  0
 24 25  1  0
  8  9  2  0
  9 10  1  0
 10 13  2  0
 13 12  1  0
 12 11  2  0
 11  8  1  0
  1  2  2  0
  2  3  1  0
  3  4  2  0
  6  5  2  0
  5  1  1  0
  4  6  1  0
  6 19  1  0
 19 20  2  0
 20 25  1  0
 25 26  2  0
 26  4  1  0
M  END

$$$$
