No_3489-gen_results/8p0m/2024-11-26-14-13-15/
     RDKit          3D

 28 30  0  0  0  0  0  0  0  0999 V2000
  -28.0162   -0.8135   28.8779 C   0  0  0  0  0  0  0  0  0  0  0  0
  -28.4690   -0.7850   29.8287 C   0  0  0  0  0  0  0  0  0  0  0  0
  -28.1816    0.4277   28.1134 C   0  0  0  0  0  0  0  0  0  0  0  0
  -28.9841    1.4155   28.5154 C   0  0  0  0  0  0  0  0  0  0  0  0
  -29.3802    0.1384   30.4612 C   0  0  0  0  0  0  0  0  0  0  0  0
  -29.9932   -0.0234   31.7370 C   0  0  0  0  0  0  0  0  0  0  0  0
  -29.5370    1.2619   29.7119 C   0  0  0  0  0  0  0  0  0  0  0  0
  -27.4269    0.4618   26.7350 C   0  0  0  0  0  0  0  0  0  0  0  0
  -25.9834    0.2870   26.7795 C   0  0  0  0  0  0  0  0  0  0  0  0
  -25.2194    1.0373   25.9252 C   0  0  0  0  0  0  0  0  0  0  0  0
  -23.8258    1.1007   26.0403 C   0  0  0  0  0  0  0  0  0  0  0  0
  -23.2048    0.6837   27.2628 C   0  0  0  0  0  0  0  0  0  0  0  0
  -21.8713    0.9411   27.6461 C   0  0  0  0  0  0  0  0  0  0  0  0
  -24.0601    0.1461   28.2962 C   0  0  0  0  0  0  0  0  0  0  0  0
  -25.4060    0.5023   28.2144 C   0  0  0  0  0  0  0  0  0  0  0  0
  -21.2617    2.0980   27.3700 N   0  0  0  0  0  0  0  0  0  0  0  0
  -21.3239    0.1997   28.6201 N   0  0  0  0  0  0  0  0  0  0  0  0
  -27.9810   -0.5177   25.7204 C   0  0  0  0  0  0  0  0  0  0  0  0
  -27.7276    1.9035   26.1431 C   0  0  0  0  0  0  0  0  0  0  0  0
  -27.7109   -0.1963   24.4889 C   0  0  0  0  0  0  0  0  0  0  0  0
  -30.1307   -1.0715   32.2932 C   0  0  0  0  0  0  0  0  0  0  0  0
  -30.8426   -1.2125   33.5349 C   0  0  0  0  0  0  0  0  0  0  0  0
  -31.3603   -0.0911   34.1552 C   0  0  0  0  0  0  0  0  0  0  0  0
  -31.1998    1.1026   33.5351 C   0  0  0  0  0  0  0  0  0  0  0  0
  -30.5470    1.2081   32.3362 C   0  0  0  0  0  0  0  0  0  0  0  0
  -31.7511    2.3504   34.1528 C   0  0  0  0  0  0  0  0  0  0  0  0
  -32.0050    3.3031   33.5969 N   0  0  0  0  0  0  0  0  0  0  0  0
  -32.4675    4.4773   34.1929 C   0  0  0  0  0  0  0  0  0  0  0  0
  5  6  1  0
  3  8  1  0
  8  9  1  0
 12 13  1  0
 13 16  1  0
 13 17  2  0
  8 18  1  0
  8 19  1  0
 18 20  1  0
 24 26  1  0
 26 27  2  3
 27 28  1  0
  9 10  2  0
 10 11  1  0
 11 12  2  0
 12 14  1  0
 14 15  2  0
 15  9  1  0
  6 21  2  0
 21 22  1  0
 22 23  2  0
 23 24  1  0
 24 25  2  0
 25  6  1  0
  1  2  2  0
  2  5  1  0
  5  7  2  0
  7  4  1  0
  4  3  2  0
  3  1  1  0
M  END

$$$$
