No_3324-gen_results/8p0m/2024-11-26-14-13-15/
     RDKit          3D

 17 18  0  0  0  0  0  0  0  0999 V2000
  -28.0162   -0.8135   28.8779 C   0  0  0  0  0  0  0  0  0  0  0  0
  -27.0636   -0.1189   28.6079 C   0  0  0  0  0  0  0  0  0  0  0  0
  -27.0010    0.6913   27.4910 C   0  0  0  0  0  0  0  0  0  0  0  0
  -28.1373    0.7363   26.6350 C   0  0  0  0  0  0  0  0  0  0  0  0
  -29.2360    0.0765   27.0690 C   0  0  0  0  0  0  0  0  0  0  0  0
  -29.2177   -0.6429   28.1747 C   0  0  0  0  0  0  0  0  0  0  0  0
  -28.0466   -1.5481   30.0087 F   0  0  0  0  0  0  0  0  0  0  0  0
  -30.6185    0.1643   26.0677 Cl  0  0  0  0  0  0  0  0  0  0  0  0
  -25.8799   -0.2881   29.6086 C   0  0  0  0  0  0  0  0  0  0  0  0
  -25.7292    0.5882   30.6168 C   0  0  0  0  0  0  0  0  0  0  0  0
  -26.3302    1.8186   30.6612 C   0  0  0  0  0  0  0  0  0  0  0  0
  -25.9883    2.6815   31.7552 C   0  0  0  0  0  0  0  0  0  0  0  0
  -25.1707    2.2520   32.7574 C   0  0  0  0  0  0  0  0  0  0  0  0
  -24.5610    1.0288   32.7038 C   0  0  0  0  0  0  0  0  0  0  0  0
  -24.7922    0.2057   31.6493 C   0  0  0  0  0  0  0  0  0  0  0  0
  -25.6771   -1.7575   29.9378 C   0  0  0  0  0  0  0  0  0  0  0  0
  -26.3992   -2.6984   29.4168 C   0  0  0  0  0  0  0  0  0  0  0  0
  1  7  1  0
  5  8  1  0
  2  9  1  0
  9 16  1  0
 16 17  1  0
  9 10  1  0
  1  2  2  0
  2  3  1  0
  3  4  2  0
  4  5  1  0
  5  6  2  0
  6  1  1  0
 10 11  2  0
 11 12  1  0
 12 13  2  0
 13 14  1  0
 14 15  2  0
 15 10  1  0
M  END

$$$$
