No_3053-gen_results/8p0m/2024-11-26-14-13-15/
     RDKit          3D

 20 23  0  0  0  0  0  0  0  0999 V2000
  -28.0162   -0.8135   28.8779 C   0  0  0  0  0  0  0  0  0  0  0  0
  -27.0636   -0.1190   28.6079 C   0  0  0  0  0  0  0  0  0  0  0  0
  -25.7923   -0.4302   29.0761 C   0  0  0  0  0  0  0  0  0  0  0  0
  -24.5456    0.3494   28.8225 C   0  0  0  0  0  0  0  0  0  0  0  0
  -24.6586    1.4196   27.8878 C   0  0  0  0  0  0  0  0  0  0  0  0
  -25.9471    1.6811   27.3792 C   0  0  0  0  0  0  0  0  0  0  0  0
  -27.0439    0.9739   27.6871 C   0  0  0  0  0  0  0  0  0  0  0  0
  -29.2364   -0.0611   29.2668 C   0  0  0  0  0  0  0  0  0  0  0  0
  -30.3061   -0.7528   29.8072 C   0  0  0  0  0  0  0  0  0  0  0  0
  -31.5322   -0.1475   29.9148 C   0  0  0  0  0  0  0  0  0  0  0  0
  -31.6092    1.2362   29.6071 C   0  0  0  0  0  0  0  0  0  0  0  0
  -30.5597    1.8969   29.0849 C   0  0  0  0  0  0  0  0  0  0  0  0
  -29.3516    1.2625   28.8439 C   0  0  0  0  0  0  0  0  0  0  0  0
  -28.1792    1.8569   28.1433 C   0  0  0  0  0  0  0  0  0  0  0  0
  -23.4230    2.1127   27.4996 C   0  0  0  0  0  0  0  0  0  0  0  0
  -23.5784    3.5210   26.8173 Cl  0  0  0  0  0  0  0  0  0  0  0  0
  -22.1180    1.6487   27.7993 C   0  0  0  0  0  0  0  0  0  0  0  0
  -21.1327    2.3963   27.5607 F   0  0  0  0  0  0  0  0  0  0  0  0
  -21.9574    0.4245   28.5112 C   0  0  0  0  0  0  0  0  0  0  0  0
  -23.2280   -0.2184   29.1105 C   0  0  0  0  0  0  0  0  0  0  0  0
 15 16  1  0
 17 18  1  0
  2  3  1  0
  3  4  2  0
  5  6  2  0
  6  7  1  0
  8  9  2  0
  9 10  1  0
 10 11  2  0
 11 12  1  0
 12 13  2  0
  1  2  2  0
  2  7  1  0
  7 14  2  0
 14 13  1  0
 13  8  1  0
  8  1  1  0
  4  5  1  0
  5 15  1  0
 15 17  2  0
 17 19  1  0
 19 20  2  0
 20  4  1  0
M  END

$$$$
