No_3069-gen_results/8p0m/2024-11-26-14-13-15/
     RDKit          3D

 22 23  0  0  0  0  0  0  0  0999 V2000
  -28.0162   -0.8135   28.8779 C   0  0  0  0  0  0  0  0  0  0  0  0
  -27.0636   -0.1189   28.6079 C   0  0  0  0  0  0  0  0  0  0  0  0
  -25.7923   -0.4302   29.0761 C   0  0  0  0  0  0  0  0  0  0  0  0
  -25.5756   -1.5654   29.9363 C   0  0  0  0  0  0  0  0  0  0  0  0
  -26.7354   -2.3004   30.2173 C   0  0  0  0  0  0  0  0  0  0  0  0
  -27.9184   -1.9537   29.7629 C   0  0  0  0  0  0  0  0  0  0  0  0
  -27.1057    1.1023   27.7593 C   0  0  0  0  0  0  0  0  0  0  0  0
  -26.3366    1.3955   26.9835 O   0  0  0  0  0  0  0  0  0  0  0  0
  -28.2625    1.8032   27.9135 O   0  0  0  0  0  0  0  0  0  0  0  0
  -29.0504   -2.7857   30.2222 C   0  0  0  0  0  0  0  0  0  0  0  0
  -28.9429   -4.0558   30.5472 N   0  0  0  0  0  0  0  0  0  0  0  0
  -30.1273   -2.2281   30.5790 O   0  0  0  0  0  0  0  0  0  0  0  0
  -29.9711   -4.9729   30.9034 C   0  0  0  0  0  0  0  0  0  0  0  0
  -30.8115   -5.2603   29.8591 C   0  0  0  0  0  0  0  0  0  0  0  0
  -30.6160   -5.0358   28.6427 C   0  0  0  0  0  0  0  0  0  0  0  0
  -31.3917   -5.4779   27.5381 C   0  0  0  0  0  0  0  0  0  0  0  0
  -32.5160   -6.2412   27.7825 C   0  0  0  0  0  0  0  0  0  0  0  0
  -32.7463   -6.6286   29.1270 C   0  0  0  0  0  0  0  0  0  0  0  0
  -31.9187   -6.1975   30.1607 C   0  0  0  0  0  0  0  0  0  0  0  0
  -33.4938   -6.7427   26.5259 Cl  0  0  0  0  0  0  0  0  0  0  0  0
  -29.9405   -5.3395   32.1236 O   0  0  0  0  0  0  0  0  0  0  0  0
  -24.6727    0.2407   28.7675 F   0  0  0  0  0  0  0  0  0  0  0  0
  2  7  1  0
  7  8  2  0
  7  9  1  0
  6 10  1  0
 10 11  1  0
 10 12  2  0
 11 13  1  0
 13 14  1  0
 17 20  1  0
 13 21  2  0
  3 22  1  0
  1  2  2  0
  2  3  1  0
  3  4  2  0
  4  5  1  0
  5  6  2  0
  6  1  1  0
 14 15  2  0
 15 16  1  0
 16 17  2  0
 17 18  1  0
 18 19  2  0
 19 14  1  0
M  END

$$$$
