No_3459-gen_results/8p0m/2024-11-26-14-13-15/
     RDKit          3D

  9  9  0  0  0  0  0  0  0  0999 V2000
  -28.0162   -0.8135   28.8779 C   0  0  0  0  0  0  0  0  0  0  0  0
  -27.0636   -0.1189   28.6079 C   0  0  0  0  0  0  0  0  0  0  0  0
  -26.9716    0.7139   27.5060 C   0  0  0  0  0  0  0  0  0  0  0  0
  -25.8206    1.4909   27.1160 C   0  0  0  0  0  0  0  0  0  0  0  0
  -24.8580    1.3421   27.6008 C   0  0  0  0  0  0  0  0  0  0  0  0
  -24.6224    0.5295   28.8144 C   0  0  0  0  0  0  0  0  0  0  0  0
  -25.7344   -0.1811   29.1908 C   0  0  0  0  0  0  0  0  0  0  0  0
  -27.9596   -1.4412   30.2523 C   0  0  0  0  0  0  0  0  0  0  0  0
  -29.0203   -2.1885   30.6818 N   0  0  0  0  0  0  0  0  0  0  0  0
  1  8  1  0
  8  9  1  0
  1  2  1  0
  2  3  2  0
  3  4  1  0
  4  5  2  0
  5  6  1  0
  6  7  2  0
  7  2  1  0
M  END

$$$$
