No_3930-gen_results/8p0m/2024-11-26-14-13-15/
     RDKit          3D

 16 17  0  0  0  0  0  0  0  0999 V2000
  -28.0162   -0.8135   28.8779 C   0  0  0  0  0  0  0  0  0  0  0  0
  -28.4690   -0.7850   29.8287 C   0  0  0  0  0  0  0  0  0  0  0  0
  -26.5455   -0.8762   28.8500 C   0  0  0  0  0  0  0  0  0  0  0  0
  -25.8041   -1.0324   30.0571 C   0  0  0  0  0  0  0  0  0  0  0  0
  -27.9437   -0.9869   31.2075 C   0  0  0  0  0  0  0  0  0  0  0  0
  -24.4008   -1.0969   30.0965 C   0  0  0  0  0  0  0  0  0  0  0  0
  -26.5612   -1.0746   31.2270 C   0  0  0  0  0  0  0  0  0  0  0  0
  -23.7342    0.1405   29.9379 C   0  0  0  0  0  0  0  0  0  0  0  0
  -22.4073    0.1808   29.4004 C   0  0  0  0  0  0  0  0  0  0  0  0
  -21.7602    1.3934   29.1245 C   0  0  0  0  0  0  0  0  0  0  0  0
  -24.2961    1.3975   30.3719 C   0  0  0  0  0  0  0  0  0  0  0  0
  -23.7049    2.6193   30.0040 C   0  0  0  0  0  0  0  0  0  0  0  0
  -22.4340    2.6024   29.4166 C   0  0  0  0  0  0  0  0  0  0  0  0
  -30.3146   -0.6925   29.8679 Cl  0  0  0  0  0  0  0  0  0  0  0  0
  -23.8342   -2.1619   29.1833 C   0  0  0  0  0  0  0  0  0  0  0  0
  -24.0032   -1.5600   31.6527 C   0  0  0  0  0  0  0  0  0  0  0  0
  4  6  1  0
  6  8  1  0
  2 14  1  0
  6 15  1  0
  6 16  1  0
  8  9  2  0
  9 10  1  0
 10 13  2  0
 13 12  1  0
 12 11  2  0
 11  8  1  0
  1  2  2  0
  2  5  1  0
  5  7  2  0
  7  4  1  0
  4  3  2  0
  3  1  1  0
M  END

$$$$
