No_3077-gen_results/8p0m/2024-11-26-14-13-15/
     RDKit          3D

 17 18  0  0  0  0  0  0  0  0999 V2000
  -28.0162   -0.8135   28.8779 C   0  0  0  0  0  0  0  0  0  0  0  0
  -28.4690   -0.7850   29.8287 C   0  0  0  0  0  0  0  0  0  0  0  0
  -26.5042   -0.7777   28.8766 C   0  0  0  0  0  0  0  0  0  0  0  0
  -25.6540   -0.6597   27.7191 C   0  0  0  0  0  0  0  0  0  0  0  0
  -27.9180   -0.9374   31.1824 C   0  0  0  0  0  0  0  0  0  0  0  0
  -26.5423   -0.9399   31.2606 C   0  0  0  0  0  0  0  0  0  0  0  0
  -25.7832   -0.8935   30.1201 C   0  0  0  0  0  0  0  0  0  0  0  0
  -24.5266    0.5319   27.6708 Br  0  0  0  0  0  0  0  0  0  0  0  0
  -29.9145   -0.7533   29.7306 O   0  0  0  0  0  0  0  0  0  0  0  0
  -30.5831    0.3384   30.1495 C   0  0  0  0  0  0  0  0  0  0  0  0
  -31.4103    0.8212   29.3762 C   0  0  0  0  0  0  0  0  0  0  0  0
  -31.7782    0.2292   28.1627 C   0  0  0  0  0  0  0  0  0  0  0  0
  -32.6235    0.8169   27.1705 C   0  0  0  0  0  0  0  0  0  0  0  0
  -33.1821    2.0748   27.5250 C   0  0  0  0  0  0  0  0  0  0  0  0
  -32.9030    2.7413   28.6399 C   0  0  0  0  0  0  0  0  0  0  0  0
  -31.9923    2.1654   29.5624 C   0  0  0  0  0  0  0  0  0  0  0  0
  -31.6477    2.8795   30.8020 C   0  0  0  0  0  0  0  0  0  0  0  0
  3  4  1  0
  4  8  1  0
  2  9  1  0
  9 10  1  0
 16 17  1  0
 10 11  1  0
 11 12  2  0
 12 13  1  0
 13 14  2  0
 14 15  1  0
 15 16  2  0
 16 11  1  0
  1  2  2  0
  2  5  1  0
  5  6  2  0
  6  7  1  0
  7  3  2  0
  3  1  1  0
M  END

$$$$
