No_376-gen_results/8p0m/2024-11-26-14-13-15/
     RDKit          3D

 16 17  0  0  0  0  0  0  0  0999 V2000
  -28.0162   -0.8135   28.8779 C   0  0  0  0  0  0  0  0  0  0  0  0
  -28.4690   -0.7850   29.8287 C   0  0  0  0  0  0  0  0  0  0  0  0
  -26.5042   -0.7777   28.8766 C   0  0  0  0  0  0  0  0  0  0  0  0
  -25.8103   -0.8531   30.1028 C   0  0  0  0  0  0  0  0  0  0  0  0
  -27.9906   -0.8916   31.2257 C   0  0  0  0  0  0  0  0  0  0  0  0
  -26.6042   -0.8676   31.2652 C   0  0  0  0  0  0  0  0  0  0  0  0
  -30.0773   -0.8857   30.0240 C   0  0  0  0  0  0  0  0  0  0  0  0
  -30.6567   -1.8894   30.1850 N   0  0  0  0  0  0  0  0  0  0  0  0
  -30.8057    0.3444   29.6739 C   0  0  0  0  0  0  0  0  0  0  0  0
  -30.2862    1.5022   29.5915 C   0  0  0  0  0  0  0  0  0  0  0  0
  -31.0729    2.6388   29.2116 C   0  0  0  0  0  0  0  0  0  0  0  0
  -30.5614    3.9555   29.1012 C   0  0  0  0  0  0  0  0  0  0  0  0
  -29.1670    4.1240   29.3298 C   0  0  0  0  0  0  0  0  0  0  0  0
  -28.3507    3.0219   29.6516 C   0  0  0  0  0  0  0  0  0  0  0  0
  -28.8988    1.7754   29.7659 C   0  0  0  0  0  0  0  0  0  0  0  0
  -31.9042   -2.1732   29.9103 C   0  0  0  0  0  0  0  0  0  0  0  0
  2  7  1  0
  7  8  1  0
  7  9  1  0
  9 10  1  0
  8 16  1  0
  1  2  2  0
  2  5  1  0
  5  6  2  0
  6  4  1  0
  4  3  2  0
  3  1  1  0
 10 11  2  0
 11 12  1  0
 12 13  2  0
 13 14  1  0
 14 15  2  0
 15 10  1  0
M  END

$$$$
