No_3136-gen_results/8p0m/2024-11-26-14-13-15/
     RDKit          3D

 22 24  0  0  0  0  0  0  0  0999 V2000
  -28.0162   -0.8135   28.8779 C   0  0  0  0  0  0  0  0  0  0  0  0
  -28.4690   -0.7850   29.8287 C   0  0  0  0  0  0  0  0  0  0  0  0
  -26.5042   -0.7777   28.8766 C   0  0  0  0  0  0  0  0  0  0  0  0
  -25.8103   -0.8531   30.1028 C   0  0  0  0  0  0  0  0  0  0  0  0
  -27.9906   -0.8916   31.2257 C   0  0  0  0  0  0  0  0  0  0  0  0
  -26.6042   -0.8676   31.2652 C   0  0  0  0  0  0  0  0  0  0  0  0
  -30.0739   -0.8360   29.8615 C   0  0  0  0  0  0  0  0  0  0  0  0
  -30.6891   -1.6554   30.2229 O   0  0  0  0  0  0  0  0  0  0  0  0
  -30.6139    0.2846   29.2227 N   0  0  0  0  0  0  0  0  0  0  0  0
  -32.0200    0.3382   29.0215 C   0  0  0  0  0  0  0  0  0  0  0  0
  -29.8434    1.4262   28.7504 C   0  0  0  0  0  0  0  0  0  0  0  0
  -30.0266    2.0167   27.9025 C   0  0  0  0  0  0  0  0  0  0  0  0
  -32.3490    1.2027   27.8851 C   0  0  0  0  0  0  0  0  0  0  0  0
  -31.4223    2.1778   27.4225 C   0  0  0  0  0  0  0  0  0  0  0  0
  -25.6573   -0.6799   27.6677 C   0  0  0  0  0  0  0  0  0  0  0  0
  -25.2397    0.6912   27.3335 C   0  0  0  0  0  0  0  0  0  0  0  0
  -25.7342    1.7351   27.5219 C   0  0  0  0  0  0  0  0  0  0  0  0
  -25.2319    2.9672   27.1559 C   0  0  0  0  0  0  0  0  0  0  0  0
  -23.9511    2.9838   26.4984 C   0  0  0  0  0  0  0  0  0  0  0  0
  -23.8880    0.7898   26.6636 C   0  0  0  0  0  0  0  0  0  0  0  0
  -23.3535    1.8975   26.2701 C   0  0  0  0  0  0  0  0  0  0  0  0
  -31.9246    3.2348   26.2072 Cl  0  0  0  0  0  0  0  0  0  0  0  0
  2  7  1  0
  7  8  2  0
  7  9  1  0
  9 10  1  0
  9 11  1  0
 12 14  1  0
 13 14  1  0
  3 15  1  0
 15 16  1  0
 14 22  1  0
 10 13  1  0
 12 11  1  0
  1  2  2  0
  2  5  1  0
  5  6  2  0
  6  4  1  0
  4  3  2  0
  3  1  1  0
 16 17  2  0
 17 18  1  0
 18 19  2  0
 19 21  1  0
 21 20  2  0
 20 16  1  0
M  END

$$$$
