No_3715-gen_results/8p0m/2024-11-26-14-13-15/
     RDKit          3D

 12 12  0  0  0  0  0  0  0  0999 V2000
  -28.1493   -0.8198   28.9079 Cl  0  0  0  0  0  0  0  0  0  0  0  0
  -26.9116   -0.0797   28.9452 C   0  0  0  0  0  0  0  0  0  0  0  0
  -26.0490   -0.0718   27.8591 C   0  0  0  0  0  0  0  0  0  0  0  0
  -25.2289    1.0128   27.6200 C   0  0  0  0  0  0  0  0  0  0  0  0
  -24.8267    1.6703   28.4074 C   0  0  0  0  0  0  0  0  0  0  0  0
  -25.3937    1.6805   29.7316 C   0  0  0  0  0  0  0  0  0  0  0  0
  -26.4014    0.8232   29.9164 C   0  0  0  0  0  0  0  0  0  0  0  0
  -23.6408    2.6609   28.2043 C   0  0  0  0  0  0  0  0  0  0  0  0
  -22.4599    2.0847   27.8531 N   0  0  0  0  0  0  0  0  0  0  0  0
  -21.8089    1.2027   28.6796 C   0  0  0  0  0  0  0  0  0  0  0  0
  -22.1324    0.9605   29.7668 F   0  0  0  0  0  0  0  0  0  0  0  0
  -20.7735    0.6096   28.1310 O   0  0  0  0  0  0  0  0  0  0  0  0
  1  2  1  0
  5  8  1  0
  8  9  1  0
  9 10  1  0
 10 11  1  0
 10 12  2  0
  2  3  2  0
  3  4  1  0
  4  5  2  0
  5  6  1  0
  6  7  2  0
  7  2  1  0
M  END

$$$$
