No_3791-gen_results/8p0m/2024-11-26-14-13-15/
     RDKit          3D

 17 18  0  0  0  0  0  0  0  0999 V2000
  -28.0162   -0.8135   28.8779 C   0  0  0  0  0  0  0  0  0  0  0  0
  -27.0636   -0.1189   28.6079 C   0  0  0  0  0  0  0  0  0  0  0  0
  -26.9287    1.1713   29.0083 C   0  0  0  0  0  0  0  0  0  0  0  0
  -25.7702    2.0341   28.6884 C   0  0  0  0  0  0  0  0  0  0  0  0
  -24.7141    1.4431   27.9188 C   0  0  0  0  0  0  0  0  0  0  0  0
  -24.8590    0.0783   27.5836 C   0  0  0  0  0  0  0  0  0  0  0  0
  -25.9647   -0.6606   27.9164 C   0  0  0  0  0  0  0  0  0  0  0  0
  -29.1701   -0.2984   28.9471 N   0  0  0  0  0  0  0  0  0  0  0  0
  -29.7216    0.3727   28.0429 C   0  0  0  0  0  0  0  0  0  0  0  0
  -29.5072    0.7748   27.1519 C   0  0  0  0  0  0  0  0  0  0  0  0
  -30.2809    1.4989   26.1225 C   0  0  0  0  0  0  0  0  0  0  0  0
  -31.2160    0.2413   28.2787 C   0  0  0  0  0  0  0  0  0  0  0  0
  -32.0934    0.9039   27.4145 C   0  0  0  0  0  0  0  0  0  0  0  0
  -31.5874    1.5319   26.3431 C   0  0  0  0  0  0  0  0  0  0  0  0
  -23.4786    2.1098   27.6295 C   0  0  0  0  0  0  0  0  0  0  0  0
  -23.0672    2.7036   26.8686 N   0  0  0  0  0  0  0  0  0  0  0  0
  -27.9160   -2.0029   29.3404 O   0  0  0  0  0  0  0  0  0  0  0  0
  1  2  1  0
  1  8  1  0
  8  9  1  0
  5 15  1  0
 15 16  3  0
  1 17  2  0
  2  3  2  0
  3  4  1  0
  4  5  2  0
  5  6  1  0
  6  7  2  0
  7  2  1  0
  9 10  2  0
 10 11  1  0
 11 14  2  0
 14 13  1  0
 13 12  2  0
 12  9  1  0
M  END

$$$$
