No_3546-gen_results/8p0m/2024-11-26-14-13-15/
     RDKit          3D

 18 19  0  0  0  0  0  0  0  0999 V2000
  -28.0162   -0.8135   28.8779 C   0  0  0  0  0  0  0  0  0  0  0  0
  -28.4690   -0.7850   29.8287 C   0  0  0  0  0  0  0  0  0  0  0  0
  -27.1356    0.2359   28.5352 C   0  0  0  0  0  0  0  0  0  0  0  0
  -26.3351    0.2900   27.2835 C   0  0  0  0  0  0  0  0  0  0  0  0
  -29.3807   -1.9134   30.3549 C   0  0  0  0  0  0  0  0  0  0  0  0
  -28.2295    0.3010   30.9036 C   0  0  0  0  0  0  0  0  0  0  0  0
  -25.3800    1.2740   27.0672 C   0  0  0  0  0  0  0  0  0  0  0  0
  -27.4150    1.3108   30.6139 C   0  0  0  0  0  0  0  0  0  0  0  0
  -26.7451    1.3177   29.4039 C   0  0  0  0  0  0  0  0  0  0  0  0
  -25.1639    2.3202   27.9821 C   0  0  0  0  0  0  0  0  0  0  0  0
  -25.8103    2.3449   29.1044 C   0  0  0  0  0  0  0  0  0  0  0  0
  -30.4697   -2.0580   30.0703 O   0  0  0  0  0  0  0  0  0  0  0  0
  -28.7984   -2.8826   31.1654 O   0  0  0  0  0  0  0  0  0  0  0  0
  -24.1341    3.3384   27.5398 C   0  0  0  0  0  0  0  0  0  0  0  0
  -23.4008    3.1029   26.5637 F   0  0  0  0  0  0  0  0  0  0  0  0
  -23.2344    3.7032   28.4126 F   0  0  0  0  0  0  0  0  0  0  0  0
  -24.8031    4.5666   27.4136 F   0  0  0  0  0  0  0  0  0  0  0  0
  -25.6134    3.3171   30.0692 O   0  0  0  0  0  0  0  0  0  0  0  0
  3  4  1  0
  2  5  1  0
  7 10  1  0
  9 11  1  0
 10 11  1  0
  5 12  2  0
  5 13  1  0
 10 14  1  0
 14 15  1  0
 14 16  1  0
 14 17  1  0
 11 18  2  0
  4  7  1  0
  1  2  2  0
  2  6  1  0
  6  8  2  0
  8  9  1  0
  9  3  2  0
  3  1  1  0
M  END

$$$$
