No_3593-gen_results/8p0m/2024-11-26-14-13-15/
     RDKit          3D

 22 24  0  0  0  0  0  0  0  0999 V2000
  -28.0162   -0.8135   28.8779 C   0  0  0  0  0  0  0  0  0  0  0  0
  -28.4690   -0.7850   29.8287 C   0  0  0  0  0  0  0  0  0  0  0  0
  -28.1960    0.3478   28.0550 C   0  0  0  0  0  0  0  0  0  0  0  0
  -29.0191    1.3501   28.3782 C   0  0  0  0  0  0  0  0  0  0  0  0
  -29.4107    0.1803   30.3782 C   0  0  0  0  0  0  0  0  0  0  0  0
  -29.6059    1.2495   29.6193 C   0  0  0  0  0  0  0  0  0  0  0  0
  -27.5003    0.3576   26.8164 O   0  0  0  0  0  0  0  0  0  0  0  0
  -27.6192    0.9023   25.9108 C   0  0  0  0  0  0  0  0  0  0  0  0
  -26.7293    0.5573   24.7734 C   0  0  0  0  0  0  0  0  0  0  0  0
  -28.5017    1.8438   25.5902 N   0  0  0  0  0  0  0  0  0  0  0  0
  -28.6252    2.3555   24.3205 C   0  0  0  0  0  0  0  0  0  0  0  0
  -25.6295   -0.3550   24.9517 C   0  0  0  0  0  0  0  0  0  0  0  0
  -29.7251    2.1458   23.7740 C   0  0  0  0  0  0  0  0  0  0  0  0
  -30.7580    3.1093   23.5017 C   0  0  0  0  0  0  0  0  0  0  0  0
  -31.9764    2.7557   22.8852 C   0  0  0  0  0  0  0  0  0  0  0  0
  -32.9337    3.6739   22.5142 C   0  0  0  0  0  0  0  0  0  0  0  0
  -33.8677    3.4473   21.5394 C   0  0  0  0  0  0  0  0  0  0  0  0
  -33.9333    2.1395   20.9722 C   0  0  0  0  0  0  0  0  0  0  0  0
  -33.0330    1.1595   21.3035 C   0  0  0  0  0  0  0  0  0  0  0  0
  -31.9911    1.4743   22.1319 C   0  0  0  0  0  0  0  0  0  0  0  0
  -30.0489    0.7731   23.4329 C   0  0  0  0  0  0  0  0  0  0  0  0
  -31.1091    0.5124   22.5490 N   0  0  0  0  0  0  0  0  0  0  0  0
  3  7  1  0
  7  8  1  0
  8  9  2  3
  8 10  1  0
 10 11  1  0
  9 12  1  0
 11 13  1  0
 13 14  2  0
 14 15  1  0
 20 22  1  0
 22 21  2  0
 21 13  1  0
 15 16  2  0
 16 17  1  0
 17 18  2  0
 18 19  1  0
 19 20  2  0
 20 15  1  0
  1  2  2  0
  2  5  1  0
  5  6  2  0
  6  4  1  0
  4  3  2  0
  3  1  1  0
M  END

$$$$
