No_3447-gen_results/8p0m/2024-11-26-14-13-15/
     RDKit          3D

 35 37  0  0  0  0  0  0  0  0999 V2000
  -28.0162   -0.8135   28.8779 C   0  0  0  0  0  0  0  0  0  0  0  0
  -27.0636   -0.1190   28.6079 C   0  0  0  0  0  0  0  0  0  0  0  0
  -25.7647   -0.3897   29.0360 C   0  0  0  0  0  0  0  0  0  0  0  0
  -25.5296   -1.5302   29.9014 C   0  0  0  0  0  0  0  0  0  0  0  0
  -26.6577   -2.2915   30.2035 C   0  0  0  0  0  0  0  0  0  0  0  0
  -27.8548   -1.9555   29.7630 C   0  0  0  0  0  0  0  0  0  0  0  0
  -24.5441    0.4126   28.7379 C   0  0  0  0  0  0  0  0  0  0  0  0
  -24.4731    1.2064   27.7114 C   0  0  0  0  0  0  0  0  0  0  0  0
  -23.2632    1.9110   27.3928 C   0  0  0  0  0  0  0  0  0  0  0  0
  -22.0960    1.7116   28.0459 C   0  0  0  0  0  0  0  0  0  0  0  0
  -23.3012    0.1559   29.4817 C   0  0  0  0  0  0  0  0  0  0  0  0
  -22.1018    0.8312   29.1085 C   0  0  0  0  0  0  0  0  0  0  0  0
  -29.0138   -2.7978   30.1831 C   0  0  0  0  0  0  0  0  0  0  0  0
  -28.9303   -4.0297   30.2736 O   0  0  0  0  0  0  0  0  0  0  0  0
  -29.9621   -2.2414   30.8738 O   0  0  0  0  0  0  0  0  0  0  0  0
  -23.3167    2.7910   26.3306 O   0  0  0  0  0  0  0  0  0  0  0  0
  -31.0309   -2.6832   31.1714 C   0  0  0  0  0  0  0  0  0  0  0  0
  -32.2398   -1.8710   31.1685 C   0  0  0  0  0  0  0  0  0  0  0  0
  -32.1157   -0.6786   31.2914 F   0  0  0  0  0  0  0  0  0  0  0  0
  -33.1409   -2.3123   32.1048 F   0  0  0  0  0  0  0  0  0  0  0  0
  -32.7837   -2.1098   29.9241 F   0  0  0  0  0  0  0  0  0  0  0  0
  -31.2156   -3.8739   30.5889 F   0  0  0  0  0  0  0  0  0  0  0  0
  -30.7323   -3.0972   32.5736 F   0  0  0  0  0  0  0  0  0  0  0  0
  -24.5947    3.2340   25.9506 C   0  0  0  0  0  0  0  0  0  0  0  0
  -27.2233    1.1091   27.6912 C   0  0  0  0  0  0  0  0  0  0  0  0
  -28.3796    1.7159   27.5981 C   0  0  0  0  0  0  0  0  0  0  0  0
  -28.7051    2.5775   27.0661 C   0  0  0  0  0  0  0  0  0  0  0  0
  -27.7329    3.2194   26.1516 C   0  0  0  0  0  0  0  0  0  0  0  0
  -26.5145    2.7377   26.0536 C   0  0  0  0  0  0  0  0  0  0  0  0
  -24.7784    4.5078   25.4216 O   0  0  0  0  0  0  0  0  0  0  0  0
  -26.2467    1.6101   26.7756 C   0  0  0  0  0  0  0  0  0  0  0  0
  -24.3864    0.5259   26.7902 F   0  0  0  0  0  0  0  0  0  0  0  0
  -24.4427    2.6640   24.8587 O   0  0  0  0  0  0  0  0  0  0  0  0
  -26.1520    0.4343   25.7462 C   0  0  0  0  0  0  0  0  0  0  0  0
  -26.4925    2.5355   24.6179 O   0  0  0  0  0  0  0  0  0  0  0  0
  3  7  1  0
  6 13  1  0
 13 14  2  0
 13 15  1  0
  9 16  1  0
 15 17  1  0
 17 18  1  0
 18 19  1  0
 18 20  1  0
 18 21  1  0
 17 22  1  0
 17 23  1  0
 16 24  1  0
  2 25  1  0
 24 30  2  0
  8 32  1  0
 24 33  1  0
 31 34  1  0
 29 35  1  0
  7  8  2  0
  8  9  1  0
  9 10  2  0
 10 12  1  0
 12 11  2  0
 11  7  1  0
  1  2  2  0
  2  3  1  0
  3  4  2  0
  4  5  1  0
  5  6  2  0
  6  1  1  0
 25 26  2  0
 26 27  1  0
 27 28  2  0
 28 29  1  0
 29 31  2  0
 31 25  1  0
M  END

$$$$
