No_3951-gen_results/8p0m/2024-11-26-14-13-15/
     RDKit          3D

 22 23  0  0  0  0  0  0  0  0999 V2000
  -28.0162   -0.8135   28.8779 C   0  0  0  0  0  0  0  0  0  0  0  0
  -27.0636   -0.1189   28.6079 C   0  0  0  0  0  0  0  0  0  0  0  0
  -27.0010    0.6913   27.4910 C   0  0  0  0  0  0  0  0  0  0  0  0
  -28.1373    0.7363   26.6350 C   0  0  0  0  0  0  0  0  0  0  0  0
  -29.2360    0.0765   27.0690 C   0  0  0  0  0  0  0  0  0  0  0  0
  -29.2177   -0.6429   28.1747 C   0  0  0  0  0  0  0  0  0  0  0  0
  -30.3423    0.1617   26.2790 O   0  0  0  0  0  0  0  0  0  0  0  0
  -25.7291   -0.2038   29.3995 C   0  0  0  0  0  0  0  0  0  0  0  0
  -25.2367    1.0088   30.0520 C   0  0  0  0  0  0  0  0  0  0  0  0
  -25.5019    1.2962   31.0060 C   0  0  0  0  0  0  0  0  0  0  0  0
  -25.0141    2.6029   31.6842 C   0  0  0  0  0  0  0  0  0  0  0  0
  -24.4825    1.9395   29.1296 C   0  0  0  0  0  0  0  0  0  0  0  0
  -23.8582    1.5089   27.9105 C   0  0  0  0  0  0  0  0  0  0  0  0
  -25.8043    3.5830   31.7927 C   0  0  0  0  0  0  0  0  0  0  0  0
  -25.2966    4.9062   32.2360 C   0  0  0  0  0  0  0  0  0  0  0  0
  -25.9785    6.0731   32.1479 N   0  0  0  0  0  0  0  0  0  0  0  0
  -26.5815    6.4800   31.1834 C   0  0  0  0  0  0  0  0  0  0  0  0
  -27.1695    5.3570   30.4174 C   0  0  0  0  0  0  0  0  0  0  0  0
  -26.5104    4.0753   30.4854 C   0  0  0  0  0  0  0  0  0  0  0  0
  -22.6210    0.8398   28.1453 C   0  0  0  0  0  0  0  0  0  0  0  0
  -24.2098    1.8783   26.6744 C   0  0  0  0  0  0  0  0  0  0  0  0
  -25.3139    7.2852   33.0120 C   0  0  0  0  0  0  0  0  0  0  0  0
  5  7  1  0
  2  8  1  0
  8  9  1  0
  9 10  2  3
 10 11  1  0
  9 12  1  0
 12 13  1  0
 14 15  1  0
 15 16  1  0
 16 17  1  0
 17 18  1  0
 14 19  1  0
 13 20  1  0
 13 21  1  0
 16 22  1  0
 11 14  1  0
 19 18  1  0
  1  2  2  0
  2  3  1  0
  3  4  2  0
  4  5  1  0
  5  6  2  0
  6  1  1  0
M  END

$$$$
