No_3125-gen_results/8p0m/2024-11-26-14-13-15/
     RDKit          3D

 14 14  0  0  0  0  0  0  0  0999 V2000
  -28.0162   -0.8135   28.8779 C   0  0  0  0  0  0  0  0  0  0  0  0
  -28.4690   -0.7850   29.8287 C   0  0  0  0  0  0  0  0  0  0  0  0
  -27.0871    0.2903   28.6377 C   0  0  0  0  0  0  0  0  0  0  0  0
  -26.0238    0.3644   29.2526 C   0  0  0  0  0  0  0  0  0  0  0  0
  -26.2460    0.4334   30.7986 C   0  0  0  0  0  0  0  0  0  0  0  0
  -29.5736   -1.6268   30.3318 C   0  0  0  0  0  0  0  0  0  0  0  0
  -27.2885   -0.6712   31.0920 C   0  0  0  0  0  0  0  0  0  0  0  0
  -30.1074   -1.3621   31.4527 O   0  0  0  0  0  0  0  0  0  0  0  0
  -30.2441   -2.2636   29.5044 O   0  0  0  0  0  0  0  0  0  0  0  0
  -24.6338    0.7219   28.9211 C   0  0  0  0  0  0  0  0  0  0  0  0
  -24.0143    1.9040   29.3058 C   0  0  0  0  0  0  0  0  0  0  0  0
  -22.7976    2.1692   28.9376 O   0  0  0  0  0  0  0  0  0  0  0  0
  -24.7194    2.9318   29.7397 O   0  0  0  0  0  0  0  0  0  0  0  0
  -23.6692   -0.4333   29.3583 C   0  0  0  0  0  0  0  0  0  0  0  0
  1  2  1  0
  1  3  1  0
  3  4  1  0
  4  5  1  0
  2  6  1  0
  2  7  1  0
  5  7  1  0
  6  8  2  0
  6  9  1  0
  4 10  1  0
 10 11  1  0
 11 12  2  0
 11 13  1  0
 10 14  1  0
M  END

$$$$
