No_3161-gen_results/8p0m/2024-11-26-14-13-15/
     RDKit          3D

 11 11  0  0  0  0  0  0  0  0999 V2000
  -28.0162   -0.8135   28.8779 C   0  0  0  0  0  0  0  0  0  0  0  0
  -27.0636   -0.1189   28.6079 C   0  0  0  0  0  0  0  0  0  0  0  0
  -25.8176   -0.3427   29.0488 N   0  0  0  0  0  0  0  0  0  0  0  0
  -25.5552   -1.4726   29.7295 C   0  0  0  0  0  0  0  0  0  0  0  0
  -26.6210   -2.2986   30.1049 C   0  0  0  0  0  0  0  0  0  0  0  0
  -27.8348   -1.9700   29.6762 C   0  0  0  0  0  0  0  0  0  0  0  0
  -27.3684    1.0615   27.9342 N   0  0  0  0  0  0  0  0  0  0  0  0
  -28.1058    1.2582   26.9834 C   0  0  0  0  0  0  0  0  0  0  0  0
  -28.2281    2.5174   26.2327 C   0  0  0  0  0  0  0  0  0  0  0  0
  -27.3683    3.5827   26.6476 C   0  0  0  0  0  0  0  0  0  0  0  0
  -26.4041    3.3675   27.5999 C   0  0  0  0  0  0  0  0  0  0  0  0
  2  7  1  0
  7  8  2  3
  8  9  1  0
  9 10  2  3
 10 11  1  0
  1  2  2  0
  2  3  1  0
  3  4  2  0
  4  5  1  0
  5  6  2  0
  6  1  1  0
M  END

$$$$
