No_3374-gen_results/8p0m/2024-11-26-14-13-15/
     RDKit          3D

 35 38  0  0  0  0  0  0  0  0999 V2000
  -28.0162   -0.8135   28.8779 C   0  0  0  0  0  0  0  0  0  0  0  0
  -27.0636   -0.1189   28.6079 C   0  0  0  0  0  0  0  0  0  0  0  0
  -26.9716    0.7139   27.5060 C   0  0  0  0  0  0  0  0  0  0  0  0
  -28.1053    0.7744   26.6421 C   0  0  0  0  0  0  0  0  0  0  0  0
  -29.2041    0.1179   27.0477 C   0  0  0  0  0  0  0  0  0  0  0  0
  -29.2127   -0.6088   28.1281 C   0  0  0  0  0  0  0  0  0  0  0  0
  -25.8738    1.4073   27.1728 F   0  0  0  0  0  0  0  0  0  0  0  0
  -30.4915    0.1430   26.3342 C   0  0  0  0  0  0  0  0  0  0  0  0
  -31.1648    1.1846   26.3946 O   0  0  0  0  0  0  0  0  0  0  0  0
  -30.7824   -0.8201   25.5140 O   0  0  0  0  0  0  0  0  0  0  0  0
  -27.9905   -1.6724   30.1369 C   0  0  0  0  0  0  0  0  0  0  0  0
  -27.0928   -2.4724   30.3604 O   0  0  0  0  0  0  0  0  0  0  0  0
  -29.0190   -1.6679   30.8908 O   0  0  0  0  0  0  0  0  0  0  0  0
  -28.0283    1.6541   25.4573 C   0  0  0  0  0  0  0  0  0  0  0  0
  -29.3216   -0.8106   31.6772 C   0  0  0  0  0  0  0  0  0  0  0  0
  -30.5610   -0.2312   31.5559 C   0  0  0  0  0  0  0  0  0  0  0  0
  -30.9196    0.9204   32.3326 C   0  0  0  0  0  0  0  0  0  0  0  0
  -32.1129    1.6232   32.1250 C   0  0  0  0  0  0  0  0  0  0  0  0
  -32.4353    2.7698   32.8350 C   0  0  0  0  0  0  0  0  0  0  0  0
  -31.5330    3.1935   33.8054 C   0  0  0  0  0  0  0  0  0  0  0  0
  -30.3716    2.5537   34.0491 C   0  0  0  0  0  0  0  0  0  0  0  0
  -30.0082    1.3947   33.2410 C   0  0  0  0  0  0  0  0  0  0  0  0
  -29.4054    3.0308   35.0621 C   0  0  0  0  0  0  0  0  0  0  0  0
  -28.3742    2.4276   35.3292 C   0  0  0  0  0  0  0  0  0  0  0  0
  -28.0257    1.2326   34.4542 C   0  0  0  0  0  0  0  0  0  0  0  0
  -28.8239    0.7837   33.5280 C   0  0  0  0  0  0  0  0  0  0  0  0
  -28.4912   -0.3759   32.6536 C   0  0  0  0  0  0  0  0  0  0  0  0
  -33.0499    1.1408   31.0718 C   0  0  0  0  0  0  0  0  0  0  0  0
  -32.9966    1.2845   29.9895 N   0  0  0  0  0  0  0  0  0  0  0  0
  -33.5610    1.7717   29.1349 C   0  0  0  0  0  0  0  0  0  0  0  0
  -34.4516    2.7070   29.5659 C   0  0  0  0  0  0  0  0  0  0  0  0
  -35.5313    2.1379   30.2382 C   0  0  0  0  0  0  0  0  0  0  0  0
  -34.4510    0.2811   31.7883 Cl  0  0  0  0  0  0  0  0  0  0  0  0
  -36.6752    2.9248   30.5928 C   0  0  0  0  0  0  0  0  0  0  0  0
  -36.7278    4.2507   30.0527 C   0  0  0  0  0  0  0  0  0  0  0  0
  1  2  2  0
  2  3  1  0
  3  4  1  0
  4  5  1  0
  1  6  1  0
  5  6  2  0
  3  7  1  0
  5  8  1  0
  8  9  2  0
  8 10  1  0
  1 11  1  0
 11 12  2  0
 11 13  1  0
  4 14  1  0
 13 15  1  0
 15 16  2  0
 16 17  1  0
 17 18  2  0
 18 19  1  0
 19 20  2  0
 20 21  1  0
 17 22  1  0
 21 22  1  0
 21 23  1  0
 23 24  2  0
 24 25  1  0
 22 26  1  0
 25 26  1  0
 15 27  1  0
 26 27  1  0
 18 28  1  0
 28 29  1  0
 29 30  2  3
 30 31  1  0
 31 32  2  3
 28 33  1  0
 32 34  1  0
 34 35  2  0
M  END

$$$$
