No_3549-gen_results/8p0m/2024-11-26-14-13-15/
     RDKit          3D

 21 23  0  0  0  0  0  0  0  0999 V2000
  -28.0162   -0.8135   28.8779 C   0  0  0  0  0  0  0  0  0  0  0  0
  -28.4690   -0.7850   29.8287 C   0  0  0  0  0  0  0  0  0  0  0  0
  -27.1356    0.2359   28.5352 C   0  0  0  0  0  0  0  0  0  0  0  0
  -26.8745    1.2825   29.3982 C   0  0  0  0  0  0  0  0  0  0  0  0
  -28.3613    0.1987   30.9244 C   0  0  0  0  0  0  0  0  0  0  0  0
  -27.5277    1.2234   30.6356 C   0  0  0  0  0  0  0  0  0  0  0  0
  -26.3987    0.2949   27.2279 C   0  0  0  0  0  0  0  0  0  0  0  0
  -26.9022    0.7280   26.2134 C   0  0  0  0  0  0  0  0  0  0  0  0
  -28.2290    1.2592   26.1972 C   0  0  0  0  0  0  0  0  0  0  0  0
  -28.8635    1.6435   27.2292 C   0  0  0  0  0  0  0  0  0  0  0  0
  -30.1847    2.3713   26.9598 C   0  0  0  0  0  0  0  0  0  0  0  0
  -30.5969    2.4773   25.6524 C   0  0  0  0  0  0  0  0  0  0  0  0
  -28.6567    1.6903   24.8535 C   0  0  0  0  0  0  0  0  0  0  0  0
  -29.8414    2.2292   24.6172 C   0  0  0  0  0  0  0  0  0  0  0  0
  -25.0878   -0.3383   27.3889 C   0  0  0  0  0  0  0  0  0  0  0  0
  -24.7252   -1.1580   28.4015 C   0  0  0  0  0  0  0  0  0  0  0  0
  -23.5764   -1.1064   29.1587 C   0  0  0  0  0  0  0  0  0  0  0  0
  -22.6009   -0.1799   28.5971 C   0  0  0  0  0  0  0  0  0  0  0  0
  -22.8845    0.7219   27.5975 C   0  0  0  0  0  0  0  0  0  0  0  0
  -24.1194    0.7804   27.0503 C   0  0  0  0  0  0  0  0  0  0  0  0
  -26.5217   -0.0282   24.9533 C   0  0  0  0  0  0  0  0  0  0  0  0
  3  7  1  0
  7  8  2  3
  8  9  1  0
  7 15  1  0
  8 21  1  0
 15 16  2  0
 16 17  1  0
 17 18  2  0
 18 19  1  0
 19 20  2  0
 20 15  1  0
  1  2  2  0
  2  5  1  0
  5  6  2  0
  6  4  1  0
  4  3  2  0
  3  1  1  0
  9 10  2  0
 10 11  1  0
 11 12  2  0
 12 14  1  0
 14 13  2  0
 13  9  1  0
M  END

$$$$
