No_3679-gen_results/8p0m/2024-11-26-14-13-15/
     RDKit          3D

 22 22  0  0  0  0  0  0  0  0999 V2000
  -28.0162   -0.8135   28.8779 C   0  0  0  0  0  0  0  0  0  0  0  0
  -27.0636   -0.1189   28.6079 C   0  0  0  0  0  0  0  0  0  0  0  0
  -26.9287    1.1713   29.0083 C   0  0  0  0  0  0  0  0  0  0  0  0
  -25.7702    2.0341   28.6884 C   0  0  0  0  0  0  0  0  0  0  0  0
  -24.7141    1.4431   27.9188 C   0  0  0  0  0  0  0  0  0  0  0  0
  -24.8590    0.0783   27.5836 C   0  0  0  0  0  0  0  0  0  0  0  0
  -25.9647   -0.6606   27.9164 C   0  0  0  0  0  0  0  0  0  0  0  0
  -27.9821   -1.6367   30.0748 N   0  0  0  0  0  0  0  0  0  0  0  0
  -29.0318   -0.7819   28.3705 O   0  0  0  0  0  0  0  0  0  0  0  0
  -26.7801   -1.8128   30.9272 C   0  0  0  0  0  0  0  0  0  0  0  0
  -29.0920   -2.4628   30.4942 C   0  0  0  0  0  0  0  0  0  0  0  0
  -23.5119    2.1523   27.5469 C   0  0  0  0  0  0  0  0  0  0  0  0
  -23.2669    2.8961   28.1817 F   0  0  0  0  0  0  0  0  0  0  0  0
  -23.6728    2.6178   26.2259 F   0  0  0  0  0  0  0  0  0  0  0  0
  -22.4493    1.2595   27.3559 F   0  0  0  0  0  0  0  0  0  0  0  0
  -29.6526   -2.2011   31.7245 C   0  0  0  0  0  0  0  0  0  0  0  0
  -29.0724   -1.2852   32.2405 O   0  0  0  0  0  0  0  0  0  0  0  0
  -30.6323   -2.8804   32.0432 O   0  0  0  0  0  0  0  0  0  0  0  0
  -29.2569   -3.5054   29.7991 O   0  0  0  0  0  0  0  0  0  0  0  0
  -27.9146    1.9730   29.8176 C   0  0  0  0  0  0  0  0  0  0  0  0
  -27.8306    2.3495   30.7402 O   0  0  0  0  0  0  0  0  0  0  0  0
  -29.0690    2.0770   29.0486 O   0  0  0  0  0  0  0  0  0  0  0  0
  1  2  1  0
  1  8  1  0
  1  9  2  0
  8 10  1  0
  8 11  1  0
  5 12  1  0
 12 13  1  0
 12 14  1  0
 12 15  1  0
 11 16  1  0
 16 17  1  0
 16 18  2  0
 11 19  2  0
  3 20  1  0
 20 21  2  0
 20 22  1  0
  2  3  2  0
  3  4  1  0
  4  5  2  0
  5  6  1  0
  6  7  2  0
  7  2  1  0
M  END

$$$$
