No_3451-gen_results/8p0m/2024-11-26-14-13-15/
     RDKit          3D

 26 28  0  0  0  0  0  0  0  0999 V2000
  -28.0162   -0.8135   28.8779 C   0  0  0  0  0  0  0  0  0  0  0  0
  -27.0636   -0.1190   28.6079 C   0  0  0  0  0  0  0  0  0  0  0  0
  -25.7647   -0.3897   29.0360 C   0  0  0  0  0  0  0  0  0  0  0  0
  -24.5516    0.4058   28.7646 C   0  0  0  0  0  0  0  0  0  0  0  0
  -23.2300    0.1178   29.2575 C   0  0  0  0  0  0  0  0  0  0  0  0
  -23.0942   -1.1309   29.8730 C   0  0  0  0  0  0  0  0  0  0  0  0
  -27.7981   -1.9341   29.8560 C   0  0  0  0  0  0  0  0  0  0  0  0
  -26.5420   -2.3269   30.2580 C   0  0  0  0  0  0  0  0  0  0  0  0
  -25.4514   -1.5516   29.9079 C   0  0  0  0  0  0  0  0  0  0  0  0
  -24.1562   -1.9097   30.2809 C   0  0  0  0  0  0  0  0  0  0  0  0
  -24.6450    1.6582   27.9464 C   0  0  0  0  0  0  0  0  0  0  0  0
  -23.7227    1.8820   27.0720 N   0  0  0  0  0  0  0  0  0  0  0  0
  -23.8889    2.5959   25.9297 C   0  0  0  0  0  0  0  0  0  0  0  0
  -25.5326    2.4164   28.1659 O   0  0  0  0  0  0  0  0  0  0  0  0
  -28.9272   -2.6444   30.1858 O   0  0  0  0  0  0  0  0  0  0  0  0
  -29.2213   -2.8361   31.5366 C   0  0  0  0  0  0  0  0  0  0  0  0
  -29.7508   -4.1617   31.7852 C   0  0  0  0  0  0  0  0  0  0  0  0
  -29.8438   -5.0286   30.8020 C   0  0  0  0  0  0  0  0  0  0  0  0
  -29.0784   -4.8850   32.9265 N   0  0  0  0  0  0  0  0  0  0  0  0
  -31.1743   -5.2681   30.1866 C   0  0  0  0  0  0  0  0  0  0  0  0
  -31.4185   -4.9481   29.2626 C   0  0  0  0  0  0  0  0  0  0  0  0
  -32.7413   -4.9412   28.7419 C   0  0  0  0  0  0  0  0  0  0  0  0
  -33.6645   -5.6817   29.3982 C   0  0  0  0  0  0  0  0  0  0  0  0
  -32.2740   -5.7643   30.9347 C   0  0  0  0  0  0  0  0  0  0  0  0
  -33.4537   -6.0278   30.5718 C   0  0  0  0  0  0  0  0  0  0  0  0
  -22.2686    2.3596   27.5514 C   0  0  0  0  0  0  0  0  0  0  0  0
  4 11  1  0
 11 12  1  0
 12 13  1  0
 11 14  2  0
  7 15  1  0
 15 16  1  0
 16 17  1  0
 17 18  1  0
 17 19  1  0
 18 20  1  0
 12 26  1  0
  1  2  2  0
  2  3  1  0
  9  8  1  0
  8  7  2  0
  7  1  1  0
 20 21  2  0
 21 22  1  0
 22 23  2  0
 23 25  1  0
 25 24  2  0
 24 20  1  0
  3  4  2  0
  4  5  1  0
  5  6  2  0
  6 10  1  0
 10  9  2  0
  9  3  1  0
M  END

$$$$
