No_3517-gen_results/8p0m/2024-11-26-14-13-15/
     RDKit          3D

 31 32  0  0  0  0  0  0  0  0999 V2000
  -28.0162   -0.8135   28.8779 C   0  0  0  0  0  0  0  0  0  0  0  0
  -27.0636   -0.1189   28.6079 C   0  0  0  0  0  0  0  0  0  0  0  0
  -26.9716    0.7139   27.5060 C   0  0  0  0  0  0  0  0  0  0  0  0
  -28.1053    0.7744   26.6421 C   0  0  0  0  0  0  0  0  0  0  0  0
  -29.2008    0.1044   27.0527 C   0  0  0  0  0  0  0  0  0  0  0  0
  -29.2096   -0.6029   28.1853 C   0  0  0  0  0  0  0  0  0  0  0  0
  -30.5651    0.2430   26.0493 Cl  0  0  0  0  0  0  0  0  0  0  0  0
  -25.7033   -0.2337   29.4132 C   0  0  0  0  0  0  0  0  0  0  0  0
  -25.6092   -0.9835   30.2237 O   0  0  0  0  0  0  0  0  0  0  0  0
  -24.6560    0.6447   29.0727 N   0  0  0  0  0  0  0  0  0  0  0  0
  -23.3936    0.4866   29.7652 C   0  0  0  0  0  0  0  0  0  0  0  0
  -22.2715    0.7370   28.8755 C   0  0  0  0  0  0  0  0  0  0  0  0
  -22.4091    1.6901   27.8604 C   0  0  0  0  0  0  0  0  0  0  0  0
  -23.7101    1.9880   27.3377 C   0  0  0  0  0  0  0  0  0  0  0  0
  -24.6949    1.7309   28.2253 C   0  0  0  0  0  0  0  0  0  0  0  0
  -23.7510    3.3378   26.7018 C   0  0  0  0  0  0  0  0  0  0  0  0
  -28.0732    1.6639   25.4586 C   0  0  0  0  0  0  0  0  0  0  0  0
  -27.9372    1.0119   24.2521 C   0  0  0  0  0  0  0  0  0  0  0  0
  -23.8653    0.9654   26.1677 C   0  0  0  0  0  0  0  0  0  0  0  0
  -27.9806    3.0444   25.5872 C   0  0  0  0  0  0  0  0  0  0  0  0
  -27.9362   -0.2900   24.2441 N   0  0  0  0  0  0  0  0  0  0  0  0
  -27.3142    3.7068   26.5718 C   0  0  0  0  0  0  0  0  0  0  0  0
  -27.4460    5.0798   26.8109 C   0  0  0  0  0  0  0  0  0  0  0  0
  -26.5997    5.7823   27.6393 C   0  0  0  0  0  0  0  0  0  0  0  0
  -26.8376    6.2451   28.7224 C   0  0  0  0  0  0  0  0  0  0  0  0
  -25.8196    6.8810   29.6330 C   0  0  0  0  0  0  0  0  0  0  0  0
  -25.8610    6.7609   30.9839 C   0  0  0  0  0  0  0  0  0  0  0  0
  -24.7647    7.1490   31.8007 C   0  0  0  0  0  0  0  0  0  0  0  0
  -24.4748    6.5015   32.9960 C   0  0  0  0  0  0  0  0  0  0  0  0
  -25.3821    5.4916   33.4543 C   0  0  0  0  0  0  0  0  0  0  0  0
  -26.4043    5.1009   32.6497 C   0  0  0  0  0  0  0  0  0  0  0  0
  5  7  1  0
  2  8  1  0
  8  9  2  0
  8 10  1  0
 10 11  1  0
 11 12  1  0
 12 13  1  0
 13 14  1  0
 10 15  1  0
 14 15  1  0
 14 16  1  0
  4 17  1  0
 17 18  1  0
 14 19  1  0
 17 20  1  0
 18 21  1  0
 20 22  1  0
 22 23  2  3
 23 24  1  0
 24 25  2  3
 25 26  1  0
 26 27  2  3
 27 28  1  0
 28 29  2  3
 29 30  1  0
 30 31  2  0
  1  2  2  0
  2  3  1  0
  3  4  2  0
  4  5  1  0
  5  6  2  0
  6  1  1  0
M  END

$$$$
