No_3398-gen_results/8p0m/2024-11-26-14-13-15/
     RDKit          3D

 20 20  0  0  0  0  0  0  0  0999 V2000
  -28.0162   -0.8135   28.8779 C   0  0  0  0  0  0  0  0  0  0  0  0
  -27.0636   -0.1190   28.6079 C   0  0  0  0  0  0  0  0  0  0  0  0
  -25.7923   -0.4302   29.0761 C   0  0  0  0  0  0  0  0  0  0  0  0
  -24.5456    0.3494   28.8225 C   0  0  0  0  0  0  0  0  0  0  0  0
  -24.6586    1.4196   27.8878 C   0  0  0  0  0  0  0  0  0  0  0  0
  -25.9471    1.6811   27.3792 C   0  0  0  0  0  0  0  0  0  0  0  0
  -27.0439    0.9739   27.6871 C   0  0  0  0  0  0  0  0  0  0  0  0
  -27.9517   -1.7518   29.9375 N   0  0  0  0  0  0  0  0  0  0  0  0
  -29.2110   -0.3383   28.7434 O   0  0  0  0  0  0  0  0  0  0  0  0
  -29.0271   -2.5366   30.4973 C   0  0  0  0  0  0  0  0  0  0  0  0
  -23.4605    2.1651   27.5966 C   0  0  0  0  0  0  0  0  0  0  0  0
  -22.5463    2.0253   28.2745 F   0  0  0  0  0  0  0  0  0  0  0  0
  -23.0820    1.8776   26.2232 F   0  0  0  0  0  0  0  0  0  0  0  0
  -23.8508    3.5053   27.4881 F   0  0  0  0  0  0  0  0  0  0  0  0
  -28.8507   -3.9313   30.3692 C   0  0  0  0  0  0  0  0  0  0  0  0
  -30.0579   -4.6788   30.0563 C   0  0  0  0  0  0  0  0  0  0  0  0
  -30.9795   -3.8917   29.4883 C   0  0  0  0  0  0  0  0  0  0  0  0
  -32.0499   -4.6088   29.0290 N   0  0  0  0  0  0  0  0  0  0  0  0
  -32.6057   -4.3904   27.8421 C   0  0  0  0  0  0  0  0  0  0  0  0
  -33.5332   -5.2595   27.2403 C   0  0  0  0  0  0  0  0  0  0  0  0
  1  2  1  0
  1  8  1  0
  1  9  2  0
  8 10  1  0
  5 11  1  0
 11 12  1  0
 11 13  1  0
 11 14  1  0
 10 15  1  0
 15 16  1  0
 16 17  1  0
 17 18  1  0
 18 19  1  0
 19 20  2  0
  2  3  2  0
  3  4  1  0
  4  5  2  0
  5  6  1  0
  6  7  2  0
  7  2  1  0
M  END

$$$$
