No_3228-gen_results/8p0m/2024-11-26-14-13-15/
     RDKit          3D

 12 12  0  0  0  0  0  0  0  0999 V2000
  -28.1229   -1.3353   28.4874 O   0  0  0  0  0  0  0  0  0  0  0  0
  -28.5208   -0.4363   29.0779 C   0  0  0  0  0  0  0  0  0  0  0  0
  -29.6977    0.0507   28.9764 C   0  0  0  0  0  0  0  0  0  0  0  0
  -27.5405    0.1756   30.0054 N   0  0  0  0  0  0  0  0  0  0  0  0
  -27.8890    1.2664   30.8176 C   0  0  0  0  0  0  0  0  0  0  0  0
  -30.5762   -0.3342   28.1128 C   0  0  0  0  0  0  0  0  0  0  0  0
  -29.1696    1.7014   30.6378 C   0  0  0  0  0  0  0  0  0  0  0  0
  -30.0587    1.2412   29.8063 C   0  0  0  0  0  0  0  0  0  0  0  0
  -31.7014    0.4774   27.6627 C   0  0  0  0  0  0  0  0  0  0  0  0
  -32.5424    0.0696   26.7949 C   0  0  0  0  0  0  0  0  0  0  0  0
  -32.3940   -1.2226   26.1374 C   0  0  0  0  0  0  0  0  0  0  0  0
  -31.3961   -2.0737   26.5004 C   0  0  0  0  0  0  0  0  0  0  0  0
  1  2  2  0
  2  3  1  0
  2  4  1  0
  4  5  1  0
  3  6  2  3
  5  7  1  0
  3  8  1  0
  7  8  1  0
  6  9  1  0
  9 10  2  3
 10 11  1  0
 11 12  2  0
M  END

$$$$
