No_3862-gen_results/8p0m/2024-11-26-14-13-15/
     RDKit          3D

 13 13  0  0  0  0  0  0  0  0999 V2000
  -28.0162   -0.8135   28.8779 C   0  0  0  0  0  0  0  0  0  0  0  0
  -27.0636   -0.1190   28.6079 C   0  0  0  0  0  0  0  0  0  0  0  0
  -25.7647   -0.3897   29.0360 C   0  0  0  0  0  0  0  0  0  0  0  0
  -24.5516    0.4058   28.7646 C   0  0  0  0  0  0  0  0  0  0  0  0
  -24.6957    1.4480   27.7988 C   0  0  0  0  0  0  0  0  0  0  0  0
  -25.9755    1.7250   27.3077 C   0  0  0  0  0  0  0  0  0  0  0  0
  -27.0718    1.0134   27.6535 C   0  0  0  0  0  0  0  0  0  0  0  0
  -28.6178   -0.4695   30.2207 C   0  0  0  0  0  0  0  0  0  0  0  0
  -28.3380    0.4496   30.8246 N   0  0  0  0  0  0  0  0  0  0  0  0
  -29.7431   -1.2676   30.5704 N   0  0  0  0  0  0  0  0  0  0  0  0
  -28.9240    0.7858   32.1021 C   0  0  0  0  0  0  0  0  0  0  0  0
  -23.5207    2.2513   27.4943 C   0  0  0  0  0  0  0  0  0  0  0  0
  -22.4958    2.0026   27.1792 N   0  0  0  0  0  0  0  0  0  0  0  0
  1  8  1  0
  8  9  2  3
  8 10  1  0
  9 11  1  0
  5 12  1  0
 12 13  2  0
  1  2  1  0
  2  3  2  0
  3  4  1  0
  4  5  2  0
  5  6  1  0
  6  7  2  0
  7  2  1  0
M  END

$$$$
