No_366-gen_results/8p0m/2024-11-26-14-13-15/
     RDKit          3D

 34 39  0  0  0  0  0  0  0  0999 V2000
  -28.0162   -0.8135   28.8779 C   0  0  0  0  0  0  0  0  0  0  0  0
  -27.0636   -0.1189   28.6079 C   0  0  0  0  0  0  0  0  0  0  0  0
  -25.7647   -0.3897   29.0360 C   0  0  0  0  0  0  0  0  0  0  0  0
  -24.5516    0.4058   28.7646 C   0  0  0  0  0  0  0  0  0  0  0  0
  -23.2300    0.1178   29.2575 C   0  0  0  0  0  0  0  0  0  0  0  0
  -27.8275   -1.9081   29.8661 C   0  0  0  0  0  0  0  0  0  0  0  0
  -26.5727   -2.3160   30.2643 C   0  0  0  0  0  0  0  0  0  0  0  0
  -25.4305   -1.5200   29.9226 C   0  0  0  0  0  0  0  0  0  0  0  0
  -23.1525   -1.1087   29.9673 C   0  0  0  0  0  0  0  0  0  0  0  0
  -24.1863   -1.8860   30.3270 C   0  0  0  0  0  0  0  0  0  0  0  0
  -24.6420    1.6131   27.8853 C   0  0  0  0  0  0  0  0  0  0  0  0
  -24.8756    2.7342   28.4772 C   0  0  0  0  0  0  0  0  0  0  0  0
  -25.0629    3.9288   27.7022 C   0  0  0  0  0  0  0  0  0  0  0  0
  -24.8630    3.8236   26.2898 C   0  0  0  0  0  0  0  0  0  0  0  0
  -24.6114    1.6888   26.5020 C   0  0  0  0  0  0  0  0  0  0  0  0
  -24.6254    2.6788   25.7383 C   0  0  0  0  0  0  0  0  0  0  0  0
  -28.9207   -2.6702   30.1842 O   0  0  0  0  0  0  0  0  0  0  0  0
  -29.2586   -2.8301   31.5340 C   0  0  0  0  0  0  0  0  0  0  0  0
  -29.7835   -1.7719   32.1432 C   0  0  0  0  0  0  0  0  0  0  0  0
  -30.1135   -0.7561   31.5114 C   0  0  0  0  0  0  0  0  0  0  0  0
  -30.3569   -0.6370   30.2208 C   0  0  0  0  0  0  0  0  0  0  0  0
  -30.1532   -0.8362   29.1757 C   0  0  0  0  0  0  0  0  0  0  0  0
  -29.2331   -0.3423   28.6896 N   0  0  0  0  0  0  0  0  0  0  0  0
  -29.2525    0.7144   27.7589 C   0  0  0  0  0  0  0  0  0  0  0  0
  -28.1068    0.9882   27.2881 C   0  0  0  0  0  0  0  0  0  0  0  0
  -27.0358    0.9095   27.6223 C   0  0  0  0  0  0  0  0  0  0  0  0
  -31.4083    0.1134   30.5686 O   0  0  0  0  0  0  0  0  0  0  0  0
  -29.5000    0.5715   32.0828 C   0  0  0  0  0  0  0  0  0  0  0  0
  -32.5365   -0.1571   30.5812 C   0  0  0  0  0  0  0  0  0  0  0  0
  -29.0116    0.5821   33.3128 C   0  0  0  0  0  0  0  0  0  0  0  0
  -28.6521    1.7795   33.9595 C   0  0  0  0  0  0  0  0  0  0  0  0
  -28.6508    2.9649   33.2558 C   0  0  0  0  0  0  0  0  0  0  0  0
  -29.1842    2.9857   31.9601 C   0  0  0  0  0  0  0  0  0  0  0  0
  -29.6283    1.8226   31.4255 C   0  0  0  0  0  0  0  0  0  0  0  0
  4 11  1  0
  6 17  1  0
 17 18  1  0
 18 19  1  0
 19 20  2  3
 20 21  1  0
 21 22  2  3
  1 23  1  0
 22 23  1  0
 23 24  1  0
  2 26  1  0
 25 26  1  0
 21 27  1  0
 20 28  1  0
 27 29  1  0
 25 24  1  0
  3  4  1  0
  4  5  2  0
  5  9  1  0
  9 10  2  0
 10  8  1  0
 28 30  2  0
 30 31  1  0
 31 32  2  0
 32 33  1  0
 33 34  2  0
 34 28  1  0
 11 12  2  0
 12 13  1  0
 13 14  2  0
 14 16  1  0
 16 15  2  0
 15 11  1  0
  1  6  1  0
  6  7  2  0
  7  8  1  0
  8  3  2  0
  3  2  1  0
  2  1  2  0
M  END

$$$$
