No_3983-gen_results/8p0m/2024-11-26-14-13-15/
     RDKit          3D

 14 14  0  0  0  0  0  0  0  0999 V2000
  -28.0162   -0.8135   28.8779 C   0  0  0  0  0  0  0  0  0  0  0  0
  -27.0636   -0.1189   28.6079 C   0  0  0  0  0  0  0  0  0  0  0  0
  -25.7923   -0.4302   29.0761 C   0  0  0  0  0  0  0  0  0  0  0  0
  -25.2700   -0.0487   30.0123 C   0  0  0  0  0  0  0  0  0  0  0  0
  -27.8851   -1.6683   30.1122 C   0  0  0  0  0  0  0  0  0  0  0  0
  -26.9250   -1.6038   31.1803 C   0  0  0  0  0  0  0  0  0  0  0  0
  -25.6359   -1.0991   31.0559 C   0  0  0  0  0  0  0  0  0  0  0  0
  -27.1491    0.5617   27.2655 C   0  0  0  0  0  0  0  0  0  0  0  0
  -26.1231    1.5500   26.9660 Br  0  0  0  0  0  0  0  0  0  0  0  0
  -28.2667    0.3215   26.3764 C   0  0  0  0  0  0  0  0  0  0  0  0
  -28.1744    0.3915   25.1465 C   0  0  0  0  0  0  0  0  0  0  0  0
  -29.2627    0.0692   24.2043 C   0  0  0  0  0  0  0  0  0  0  0  0
  -30.3670   -0.5604   24.7634 C   0  0  0  0  0  0  0  0  0  0  0  0
  -30.5115   -0.5547   26.1779 C   0  0  0  0  0  0  0  0  0  0  0  0
  1  2  1  0
  2  3  1  0
  3  4  2  0
  1  5  1  0
  5  6  2  0
  4  7  1  0
  6  7  1  0
  2  8  1  0
  8  9  1  0
  8 10  1  0
 10 11  2  3
 11 12  1  0
 12 13  2  3
 13 14  1  0
M  END

$$$$
