No_3946-gen_results/8p0m/2024-11-26-14-13-15/
     RDKit          3D

 24 25  0  0  0  0  0  0  0  0999 V2000
  -28.0162   -0.8135   28.8779 C   0  0  0  0  0  0  0  0  0  0  0  0
  -27.0636   -0.1189   28.6079 C   0  0  0  0  0  0  0  0  0  0  0  0
  -25.8837   -0.5253   28.7835 F   0  0  0  0  0  0  0  0  0  0  0  0
  -27.1010    1.1562   27.8909 C   0  0  0  0  0  0  0  0  0  0  0  0
  -27.8551   -1.7809   29.9423 C   0  0  0  0  0  0  0  0  0  0  0  0
  -26.2177    1.4517   27.0140 N   0  0  0  0  0  0  0  0  0  0  0  0
  -27.4511   -1.5511   30.9409 O   0  0  0  0  0  0  0  0  0  0  0  0
  -25.1166    1.4336   27.0379 C   0  0  0  0  0  0  0  0  0  0  0  0
  -24.1863    1.8549   25.9484 C   0  0  0  0  0  0  0  0  0  0  0  0
  -22.8253    2.0577   26.2465 C   0  0  0  0  0  0  0  0  0  0  0  0
  -22.2549    1.5648   27.4287 C   0  0  0  0  0  0  0  0  0  0  0  0
  -23.1152    1.0229   28.4163 C   0  0  0  0  0  0  0  0  0  0  0  0
  -24.3625    1.0030   28.2325 C   0  0  0  0  0  0  0  0  0  0  0  0
  -29.1830   -0.7139   28.4743 F   0  0  0  0  0  0  0  0  0  0  0  0
  -28.1331   -3.0668   29.7035 F   0  0  0  0  0  0  0  0  0  0  0  0
  -26.9534    1.9438   25.7176 C   0  0  0  0  0  0  0  0  0  0  0  0
  -22.4257    0.5095   29.6417 C   0  0  0  0  0  0  0  0  0  0  0  0
  -23.2220    0.2178   30.7691 N   0  0  0  0  0  0  0  0  0  0  0  0
  -23.3559   -0.9087   31.4360 C   0  0  0  0  0  0  0  0  0  0  0  0
  -24.2633   -0.9596   32.4565 N   0  0  0  0  0  0  0  0  0  0  0  0
  -24.0774    1.2181   31.2408 C   0  0  0  0  0  0  0  0  0  0  0  0
  -25.1168   -0.0072   32.7590 C   0  0  0  0  0  0  0  0  0  0  0  0
  -25.9545   -0.1179   33.7026 F   0  0  0  0  0  0  0  0  0  0  0  0
  -24.9397    1.2080   32.1102 C   0  0  0  0  0  0  0  0  0  0  0  0
  1  2  1  0
  2  3  1  0
  2  4  1  0
  1  5  1  0
  4  6  1  0
  5  7  2  0
  6  8  1  0
  1 14  1  0
  5 15  1  0
  6 16  1  0
 12 17  1  0
 17 18  1  0
 18 19  1  0
 19 20  1  0
 18 21  1  0
 20 22  1  0
 22 23  1  0
 22 24  1  0
 24 21  1  0
  8  9  2  0
  9 10  1  0
 10 11  2  0
 11 12  1  0
 12 13  2  0
 13  8  1  0
M  END

$$$$
