No_3407-gen_results/8p0m/2024-11-26-14-13-15/
     RDKit          3D

 35 38  0  0  0  0  0  0  0  0999 V2000
  -28.1229   -1.3353   28.4874 O   0  0  0  0  0  0  0  0  0  0  0  0
  -27.4806   -0.4044   28.7094 C   0  0  0  0  0  0  0  0  0  0  0  0
  -26.4599   -0.1104   28.0051 N   0  0  0  0  0  0  0  0  0  0  0  0
  -25.4297    0.8788   28.3572 C   0  0  0  0  0  0  0  0  0  0  0  0
  -24.3600    1.0559   27.5650 C   0  0  0  0  0  0  0  0  0  0  0  0
  -27.9530    0.7132   29.7121 C   0  0  0  0  0  0  0  0  0  0  0  0
  -24.3231    1.5865   26.4295 C   0  0  0  0  0  0  0  0  0  0  0  0
  -23.0906    1.8510   25.6405 C   0  0  0  0  0  0  0  0  0  0  0  0
  -21.9093    1.8335   26.4155 C   0  0  0  0  0  0  0  0  0  0  0  0
  -21.8778    1.4393   27.7371 C   0  0  0  0  0  0  0  0  0  0  0  0
  -23.0626    1.1569   28.3573 C   0  0  0  0  0  0  0  0  0  0  0  0
  -25.7666    1.6704   29.4984 C   0  0  0  0  0  0  0  0  0  0  0  0
  -27.0054    1.6190   30.1599 C   0  0  0  0  0  0  0  0  0  0  0  0
  -29.1810    0.4055   30.4149 C   0  0  0  0  0  0  0  0  0  0  0  0
  -29.9974    1.2580   30.4033 C   0  0  0  0  0  0  0  0  0  0  0  0
  -31.2798    1.0881   31.1092 C   0  0  0  0  0  0  0  0  0  0  0  0
  -32.2432    2.0806   31.1728 C   0  0  0  0  0  0  0  0  0  0  0  0
  -31.9768    3.2859   30.5021 C   0  0  0  0  0  0  0  0  0  0  0  0
  -30.8053    3.4802   29.8039 C   0  0  0  0  0  0  0  0  0  0  0  0
  -29.8371    2.5469   29.7553 C   0  0  0  0  0  0  0  0  0  0  0  0
  -28.8220   -0.1385   31.7817 C   0  0  0  0  0  0  0  0  0  0  0  0
  -28.8227   -1.5410   32.0625 C   0  0  0  0  0  0  0  0  0  0  0  0
  -28.5463    0.7056   32.8858 C   0  0  0  0  0  0  0  0  0  0  0  0
  -28.2856    0.2010   34.1382 C   0  0  0  0  0  0  0  0  0  0  0  0
  -28.5993   -2.0183   33.3209 C   0  0  0  0  0  0  0  0  0  0  0  0
  -28.3214   -1.1550   34.3524 C   0  0  0  0  0  0  0  0  0  0  0  0
  -29.0825   -2.3976   30.9714 C   0  0  0  0  0  0  0  0  0  0  0  0
  -30.2535   -3.2612   31.2353 C   0  0  0  0  0  0  0  0  0  0  0  0
  -30.6035   -4.0649   30.2347 C   0  0  0  0  0  0  0  0  0  0  0  0
  -29.7275   -4.8978   29.8604 O   0  0  0  0  0  0  0  0  0  0  0  0
  -31.6200   -3.9673   29.4763 O   0  0  0  0  0  0  0  0  0  0  0  0
  -28.0532   -1.7178   35.7181 C   0  0  0  0  0  0  0  0  0  0  0  0
  -26.9447   -1.5218   36.1966 O   0  0  0  0  0  0  0  0  0  0  0  0
  -28.8864   -2.5137   36.2042 O   0  0  0  0  0  0  0  0  0  0  0  0
  -33.4745    1.8437   31.9220 C   0  0  0  0  0  0  0  0  0  0  0  0
  1  2  2  0
  2  3  1  0
  3  4  1  0
  4  5  1  0
  2  6  1  0
  4 12  1  0
  6 14  1  0
 14 15  1  0
 14 21  1  0
 22 27  1  0
 27 28  1  0
 28 29  1  0
 29 30  2  0
 29 31  1  0
 26 32  1  0
 32 33  2  0
 32 34  1  0
 17 35  1  0
 12 13  1  0
 13  6  1  0
 15 16  2  0
 16 17  1  0
 17 18  2  0
 18 19  1  0
 19 20  2  0
 20 15  1  0
  5  7  2  0
  7  8  1  0
  8  9  2  0
  9 10  1  0
 10 11  2  0
 11  5  1  0
 21 22  2  0
 22 25  1  0
 25 26  2  0
 26 24  1  0
 24 23  2  0
 23 21  1  0
M  END

$$$$
