No_3278-gen_results/8p0m/2024-11-26-14-13-15/
     RDKit          3D

 19 21  0  0  0  0  0  0  0  0999 V2000
  -28.0162   -0.8135   28.8779 C   0  0  0  0  0  0  0  0  0  0  0  0
  -28.4690   -0.7850   29.8287 C   0  0  0  0  0  0  0  0  0  0  0  0
  -27.0871    0.2903   28.6377 C   0  0  0  0  0  0  0  0  0  0  0  0
  -26.0238    0.3644   29.2526 C   0  0  0  0  0  0  0  0  0  0  0  0
  -26.2460    0.4334   30.7986 C   0  0  0  0  0  0  0  0  0  0  0  0
  -29.5736   -1.6268   30.3318 C   0  0  0  0  0  0  0  0  0  0  0  0
  -27.2659    0.3800   31.1362 C   0  0  0  0  0  0  0  0  0  0  0  0
  -28.3466   -0.0995   30.6830 C   0  0  0  0  0  0  0  0  0  0  0  0
  -29.3264   -2.9077   30.4541 C   0  0  0  0  0  0  0  0  0  0  0  0
  -30.3181   -3.9268   30.2980 C   0  0  0  0  0  0  0  0  0  0  0  0
  -31.5777   -3.5344   30.0443 C   0  0  0  0  0  0  0  0  0  0  0  0
  -30.9920   -1.5157   30.1410 C   0  0  0  0  0  0  0  0  0  0  0  0
  -31.3342   -0.0539   30.0712 N   0  0  0  0  0  0  0  0  0  0  0  0
  -31.9025   -2.3002   30.0730 C   0  0  0  0  0  0  0  0  0  0  0  0
  -31.7236    0.6373   31.0667 C   0  0  0  0  0  0  0  0  0  0  0  0
  -32.0738    1.9842   30.8461 C   0  0  0  0  0  0  0  0  0  0  0  0
  -31.2741    0.6363   28.7609 C   0  0  0  0  0  0  0  0  0  0  0  0
  -31.5412    1.6170   28.6344 C   0  0  0  0  0  0  0  0  0  0  0  0
  -31.9783    2.5364   29.6446 C   0  0  0  0  0  0  0  0  0  0  0  0
  1  2  1  0
  1  3  1  0
  3  4  1  0
  4  5  1  0
  2  6  1  0
  5  7  2  0
  2  8  1  0
  7  8  1  0
 12 13  1  0
 13 15  1  0
 13 17  1  0
 16 19  1  0
 18 19  1  0
 15 16  1  0
 18 17  1  0
  6  9  2  0
  9 10  1  0
 10 11  2  0
 11 14  1  0
 14 12  2  0
 12  6  1  0
M  END

$$$$
