No_3701-gen_results/8p0m/2024-11-26-14-13-15/
     RDKit          3D

 10 10  0  0  0  0  0  0  0  0999 V2000
  -28.0162   -0.8135   28.8779 C   0  0  0  0  0  0  0  0  0  0  0  0
  -27.0636   -0.1190   28.6079 C   0  0  0  0  0  0  0  0  0  0  0  0
  -26.9515    1.1286   28.9566 N   0  0  0  0  0  0  0  0  0  0  0  0
  -29.1088   -0.2102   29.6318 C   0  0  0  0  0  0  0  0  0  0  0  0
  -29.0881    1.0629   29.9416 C   0  0  0  0  0  0  0  0  0  0  0  0
  -27.9547    1.7679   29.5913 C   0  0  0  0  0  0  0  0  0  0  0  0
  -25.9044   -0.6219   27.9793 N   0  0  0  0  0  0  0  0  0  0  0  0
  -24.8371    0.1382   27.5376 C   0  0  0  0  0  0  0  0  0  0  0  0
  -23.6063   -0.1974   27.5076 C   0  0  0  0  0  0  0  0  0  0  0  0
  -23.1113   -0.8389   28.7301 C   0  0  0  0  0  0  0  0  0  0  0  0
  2  7  1  0
  7  8  1  0
  8  9  2  3
  9 10  1  0
  1  2  2  0
  2  3  1  0
  3  6  2  0
  6  5  1  0
  5  4  2  0
  4  1  1  0
M  END

$$$$
