No_3480-gen_results/8p0m/2024-11-26-14-13-15/
     RDKit          3D

 35 38  0  0  0  0  0  0  0  0999 V2000
  -28.1229   -1.3353   28.4874 O   0  0  0  0  0  0  0  0  0  0  0  0
  -27.0637   -0.8242   28.8687 C   0  0  0  0  0  0  0  0  0  0  0  0
  -25.9773   -1.1378   28.8137 N   0  0  0  0  0  0  0  0  0  0  0  0
  -25.5373   -2.3638   28.4229 C   0  0  0  0  0  0  0  0  0  0  0  0
  -27.1628    0.7818   29.0832 C   0  0  0  0  0  0  0  0  0  0  0  0
  -26.2847    1.3220   29.5397 C   0  0  0  0  0  0  0  0  0  0  0  0
  -24.8809    0.8438   29.6037 C   0  0  0  0  0  0  0  0  0  0  0  0
  -24.6840   -0.4737   29.2899 C   0  0  0  0  0  0  0  0  0  0  0  0
  -23.4425   -1.0591   29.3370 C   0  0  0  0  0  0  0  0  0  0  0  0
  -22.2882   -0.2260   29.5833 C   0  0  0  0  0  0  0  0  0  0  0  0
  -22.4698    1.0896   29.8696 C   0  0  0  0  0  0  0  0  0  0  0  0
  -23.7247    1.6099   29.9790 C   0  0  0  0  0  0  0  0  0  0  0  0
  -28.5650    1.3038   29.0227 C   0  0  0  0  0  0  0  0  0  0  0  0
  -28.5928    2.3082   28.8496 F   0  0  0  0  0  0  0  0  0  0  0  0
  -29.1935    0.6634   27.9350 F   0  0  0  0  0  0  0  0  0  0  0  0
  -29.3606    0.9593   30.0715 F   0  0  0  0  0  0  0  0  0  0  0  0
  -25.2647   -3.3146   29.5479 C   0  0  0  0  0  0  0  0  0  0  0  0
  -25.0572   -4.6665   29.0992 C   0  0  0  0  0  0  0  0  0  0  0  0
  -24.3154   -4.9047   28.0861 C   0  0  0  0  0  0  0  0  0  0  0  0
  -25.8740   -5.7240   29.6405 C   0  0  0  0  0  0  0  0  0  0  0  0
  -23.8759   -6.1949   27.9016 O   0  0  0  0  0  0  0  0  0  0  0  0
  -26.7354   -5.2517   30.5673 O   0  0  0  0  0  0  0  0  0  0  0  0
  -28.1309   -5.2913   30.2916 C   0  0  0  0  0  0  0  0  0  0  0  0
  -28.6407   -3.9689   29.7315 C   0  0  0  0  0  0  0  0  0  0  0  0
  -30.1225   -3.8533   29.9744 C   0  0  0  0  0  0  0  0  0  0  0  0
  -30.5543   -2.6967   30.3611 N   0  0  0  0  0  0  0  0  0  0  0  0
  -30.1605   -2.0847   31.4346 C   0  0  0  0  0  0  0  0  0  0  0  0
  -31.8909   -2.3125   29.9608 C   0  0  0  0  0  0  0  0  0  0  0  0
  -32.3427   -0.9968   30.2845 C   0  0  0  0  0  0  0  0  0  0  0  0
  -30.6449   -0.8402   31.9882 C   0  0  0  0  0  0  0  0  0  0  0  0
  -31.8303   -0.3920   31.4638 C   0  0  0  0  0  0  0  0  0  0  0  0
  -30.4724   -5.0771   30.8295 C   0  0  0  0  0  0  0  0  0  0  0  0
  -29.1876   -5.7846   31.0700 C   0  0  0  0  0  0  0  0  0  0  0  0
  -31.6797   -5.4166   31.2632 C   0  0  0  0  0  0  0  0  0  0  0  0
  -31.8183   -6.5366   31.7499 C   0  0  0  0  0  0  0  0  0  0  0  0
  1  2  2  0
  2  3  1  0
  3  4  1  0
  2  5  1  0
  5  6  1  0
  3  8  1  0
  5 13  1  0
 13 14  1  0
 13 15  1  0
 13 16  1  0
  4 17  1  0
 17 18  2  3
 18 19  1  0
 18 20  1  0
 19 21  1  0
 20 22  1  0
 22 23  1  0
 23 24  1  0
 24 25  2  0
 25 26  1  0
 26 27  1  0
 26 28  1  0
 29 31  1  0
 30 31  1  0
 25 32  1  0
 23 33  1  0
 32 33  1  0
 32 34  1  0
 34 35  2  0
  6  7  1  0
 27 30  1  0
 29 28  1  0
  7  8  2  0
  8  9  1  0
  9 10  2  0
 10 11  1  0
 11 12  2  0
 12  7  1  0
M  END

$$$$
