No_3598-gen_results/8p0m/2024-11-26-14-13-15/
     RDKit          3D

 22 23  0  0  0  0  0  0  0  0999 V2000
  -28.0162   -0.8135   28.8779 C   0  0  0  0  0  0  0  0  0  0  0  0
  -28.4690   -0.7850   29.8287 C   0  0  0  0  0  0  0  0  0  0  0  0
  -26.5455   -0.8762   28.8500 C   0  0  0  0  0  0  0  0  0  0  0  0
  -25.8041   -1.0324   30.0571 C   0  0  0  0  0  0  0  0  0  0  0  0
  -26.5373   -1.0386   31.2171 C   0  0  0  0  0  0  0  0  0  0  0  0
  -27.8929   -0.9601   31.1743 C   0  0  0  0  0  0  0  0  0  0  0  0
  -25.7125   -0.8096   27.6257 C   0  0  0  0  0  0  0  0  0  0  0  0
  -24.4074   -0.2077   27.7291 C   0  0  0  0  0  0  0  0  0  0  0  0
  -23.6915   -0.4211   28.9467 C   0  0  0  0  0  0  0  0  0  0  0  0
  -24.3644   -0.7377   30.0814 C   0  0  0  0  0  0  0  0  0  0  0  0
  -21.8576   -0.0641   28.8724 Br  0  0  0  0  0  0  0  0  0  0  0  0
  -30.0749   -0.8414   29.9071 C   0  0  0  0  0  0  0  0  0  0  0  0
  -30.6777   -0.1434   29.1960 O   0  0  0  0  0  0  0  0  0  0  0  0
  -30.6876   -1.5951   30.7818 O   0  0  0  0  0  0  0  0  0  0  0  0
  -31.8556   -2.2005   30.5032 C   0  0  0  0  0  0  0  0  0  0  0  0
  -31.7762   -3.4389   30.1859 C   0  0  0  0  0  0  0  0  0  0  0  0
  -30.8995   -4.1934   30.5597 O   0  0  0  0  0  0  0  0  0  0  0  0
  -32.9253   -4.0956   30.2735 F   0  0  0  0  0  0  0  0  0  0  0  0
  -30.0056   -4.9522   29.7468 C   0  0  0  0  0  0  0  0  0  0  0  0
  -32.5616   -1.9877   31.9081 C   0  0  0  0  0  0  0  0  0  0  0  0
  -32.1155   -2.4582   32.8489 O   0  0  0  0  0  0  0  0  0  0  0  0
  -34.0492   -2.3011   31.6204 C   0  0  0  0  0  0  0  0  0  0  0  0
  9 11  1  0
  2 12  1  0
 12 13  2  0
 12 14  1  0
 14 15  1  0
 15 16  1  0
 16 17  1  0
 16 18  1  0
 17 19  1  0
 15 20  1  0
 20 21  1  0
 20 22  1  0
  4 10  2  0
 10  9  1  0
  9  8  2  0
  8  7  1  0
  7  3  2  0
  1  2  2  0
  2  6  1  0
  6  5  2  0
  5  4  1  0
  4  3  1  0
  3  1  1  0
M  END

$$$$
