No_3832-gen_results/8p0m/2024-11-26-14-13-15/
     RDKit          3D

 17 18  0  0  0  0  0  0  0  0999 V2000
  -28.0162   -0.8135   28.8779 C   0  0  0  0  0  0  0  0  0  0  0  0
  -27.0636   -0.1189   28.6079 C   0  0  0  0  0  0  0  0  0  0  0  0
  -25.7647   -0.3897   29.0360 C   0  0  0  0  0  0  0  0  0  0  0  0
  -25.5296   -1.5302   29.9014 C   0  0  0  0  0  0  0  0  0  0  0  0
  -26.6888   -2.2893   30.1810 C   0  0  0  0  0  0  0  0  0  0  0  0
  -27.8727   -1.9508   29.7373 C   0  0  0  0  0  0  0  0  0  0  0  0
  -24.5491    0.4100   28.7341 C   0  0  0  0  0  0  0  0  0  0  0  0
  -24.0931    1.3779   29.5761 C   0  0  0  0  0  0  0  0  0  0  0  0
  -22.9754    2.1437   29.2395 C   0  0  0  0  0  0  0  0  0  0  0  0
  -22.2571    1.9096   28.0218 C   0  0  0  0  0  0  0  0  0  0  0  0
  -23.6567    0.4472   27.6688 C   0  0  0  0  0  0  0  0  0  0  0  0
  -22.6846    1.0110   27.2583 C   0  0  0  0  0  0  0  0  0  0  0  0
  -29.2196   -2.9083   30.2119 Cl  0  0  0  0  0  0  0  0  0  0  0  0
  -24.7591    1.6422   30.9165 C   0  0  0  0  0  0  0  0  0  0  0  0
  -24.6421    2.9021   31.3157 F   0  0  0  0  0  0  0  0  0  0  0  0
  -24.1597    0.8330   31.8851 F   0  0  0  0  0  0  0  0  0  0  0  0
  -26.0607    1.4446   30.8500 F   0  0  0  0  0  0  0  0  0  0  0  0
  3  7  1  0
  6 13  1  0
  8 14  1  0
 14 15  1  0
 14 16  1  0
 14 17  1  0
  7  8  2  0
  8  9  1  0
  9 10  2  0
 10 12  1  0
 12 11  2  0
 11  7  1  0
  1  2  2  0
  2  3  1  0
  3  4  2  0
  4  5  1  0
  5  6  2  0
  6  1  1  0
M  END

$$$$
