No_3433-gen_results/8p0m/2024-11-26-14-13-15/
     RDKit          3D

 18 18  0  0  0  0  0  0  0  0999 V2000
  -28.0162   -0.8135   28.8779 C   0  0  0  0  0  0  0  0  0  0  0  0
  -27.0636   -0.1189   28.6079 C   0  0  0  0  0  0  0  0  0  0  0  0
  -25.7923   -0.4302   29.0761 C   0  0  0  0  0  0  0  0  0  0  0  0
  -24.5456    0.3494   28.8225 C   0  0  0  0  0  0  0  0  0  0  0  0
  -24.6586    1.4196   27.8878 C   0  0  0  0  0  0  0  0  0  0  0  0
  -25.9471    1.6811   27.3792 C   0  0  0  0  0  0  0  0  0  0  0  0
  -27.0439    0.9739   27.6871 C   0  0  0  0  0  0  0  0  0  0  0  0
  -29.1882   -0.1472   29.0918 N   0  0  0  0  0  0  0  0  0  0  0  0
  -30.2017   -0.7833   29.7303 C   0  0  0  0  0  0  0  0  0  0  0  0
  -23.6445    2.3436   27.6825 C   0  0  0  0  0  0  0  0  0  0  0  0
  -23.4998    2.9799   26.5641 N   0  0  0  0  0  0  0  0  0  0  0  0
  -22.4935    2.2569   28.3546 O   0  0  0  0  0  0  0  0  0  0  0  0
  -30.5487   -0.3745   30.8419 F   0  0  0  0  0  0  0  0  0  0  0  0
  -31.3079   -0.7969   28.8122 O   0  0  0  0  0  0  0  0  0  0  0  0
  -30.0283   -2.2820   30.0056 C   0  0  0  0  0  0  0  0  0  0  0  0
  -30.3887   -2.5599   31.3166 O   0  0  0  0  0  0  0  0  0  0  0  0
  -29.5281   -3.1219   29.3581 O   0  0  0  0  0  0  0  0  0  0  0  0
  -30.1567   -3.9755   31.6891 C   0  0  0  0  0  0  0  0  0  0  0  0
  1  2  1  0
  1  8  1  0
  8  9  1  0
  5 10  1  0
 10 11  1  0
 10 12  2  0
  9 13  1  0
  9 14  1  0
  9 15  1  0
 15 16  1  0
 15 17  2  0
 16 18  1  0
  2  3  2  0
  3  4  1  0
  4  5  2  0
  5  6  1  0
  6  7  2  0
  7  2  1  0
M  END

$$$$
