No_3526-gen_results/8p0m/2024-11-26-14-13-15/
     RDKit          3D

 35 36  0  0  0  0  0  0  0  0999 V2000
  -28.0162   -0.8135   28.8779 C   0  0  0  0  0  0  0  0  0  0  0  0
  -27.0636   -0.1189   28.6079 C   0  0  0  0  0  0  0  0  0  0  0  0
  -26.9716    0.7139   27.5060 C   0  0  0  0  0  0  0  0  0  0  0  0
  -28.1053    0.7744   26.6421 C   0  0  0  0  0  0  0  0  0  0  0  0
  -29.2008    0.1044   27.0527 C   0  0  0  0  0  0  0  0  0  0  0  0
  -28.0219   -1.5899   30.0879 C   0  0  0  0  0  0  0  0  0  0  0  0
  -29.1640   -0.6394   28.1484 C   0  0  0  0  0  0  0  0  0  0  0  0
  -27.1149   -2.3776   30.3500 O   0  0  0  0  0  0  0  0  0  0  0  0
  -29.0865   -1.6143   30.8723 O   0  0  0  0  0  0  0  0  0  0  0  0
  -30.2825    0.2805   25.9955 C   0  0  0  0  0  0  0  0  0  0  0  0
  -31.1702   -0.4759   26.2005 F   0  0  0  0  0  0  0  0  0  0  0  0
  -30.7052    1.5303   26.0916 F   0  0  0  0  0  0  0  0  0  0  0  0
  -29.8668    0.0705   24.7631 F   0  0  0  0  0  0  0  0  0  0  0  0
  -25.7033    1.4418   27.1336 C   0  0  0  0  0  0  0  0  0  0  0  0
  -24.5631    0.9391   27.4885 C   0  0  0  0  0  0  0  0  0  0  0  0
  -23.6818    1.5651   28.3487 C   0  0  0  0  0  0  0  0  0  0  0  0
  -22.7276    2.2620   27.5949 C   0  0  0  0  0  0  0  0  0  0  0  0
  -23.3069    1.0460   29.6341 C   0  0  0  0  0  0  0  0  0  0  0  0
  -25.7449    2.6420   26.3572 C   0  0  0  0  0  0  0  0  0  0  0  0
  -23.6201   -0.1906   30.1042 C   0  0  0  0  0  0  0  0  0  0  0  0
  -24.1729   -0.3280   31.3706 C   0  0  0  0  0  0  0  0  0  0  0  0
  -24.4918    0.7474   32.1528 C   0  0  0  0  0  0  0  0  0  0  0  0
  -24.1669    2.0834   31.6125 C   0  0  0  0  0  0  0  0  0  0  0  0
  -22.7799    1.8352   30.5261 C   0  0  0  0  0  0  0  0  0  0  0  0
  -25.3047    0.6816   33.6203 Cl  0  0  0  0  0  0  0  0  0  0  0  0
  -23.6071   -1.3571   29.2036 C   0  0  0  0  0  0  0  0  0  0  0  0
  -24.0561   -2.6276   29.6471 C   0  0  0  0  0  0  0  0  0  0  0  0
  -24.0360   -3.6995   28.7352 C   0  0  0  0  0  0  0  0  0  0  0  0
  -24.7807   -4.8810   29.1342 C   0  0  0  0  0  0  0  0  0  0  0  0
  -26.1601   -4.8831   29.0221 C   0  0  0  0  0  0  0  0  0  0  0  0
  -26.8534   -5.0098   30.4220 C   0  0  0  0  0  0  0  0  0  0  0  0
  -28.2458   -4.8360   30.2563 C   0  0  0  0  0  0  0  0  0  0  0  0
  -28.8914   -4.5077   29.2536 O   0  0  0  0  0  0  0  0  0  0  0  0
  -28.9680   -4.7884   31.4121 O   0  0  0  0  0  0  0  0  0  0  0  0
  -30.3143   -5.1415   31.4767 C   0  0  0  0  0  0  0  0  0  0  0  0
  1  6  1  0
  6  8  2  0
  6  9  1  0
  5 10  1  0
 10 11  1  0
 10 12  1  0
 10 13  1  0
  3 14  1  0
 14 15  1  0
 15 16  1  0
 16 17  2  0
 16 18  1  0
 14 19  1  0
 22 25  1  0
 20 26  1  0
 26 27  2  3
 27 28  1  0
 28 29  1  0
 29 30  1  0
 30 31  2  3
 31 32  1  0
 32 33  2  0
 32 34  1  0
 34 35  1  0
  1  2  2  0
  2  3  1  0
  3  4  2  0
  4  5  1  0
  5  7  2  0
  7  1  1  0
 18 20  2  0
 20 21  1  0
 21 22  2  0
 22 23  1  0
 23 24  2  0
 24 18  1  0
M  END

$$$$
