No_3364-gen_results/8p0m/2024-11-26-14-13-15/
     RDKit          3D

 15 16  0  0  0  0  0  0  0  0999 V2000
  -28.0162   -0.8135   28.8779 C   0  0  0  0  0  0  0  0  0  0  0  0
  -27.0636   -0.1190   28.6079 C   0  0  0  0  0  0  0  0  0  0  0  0
  -25.7647   -0.3897   29.0360 C   0  0  0  0  0  0  0  0  0  0  0  0
  -25.5296   -1.5303   29.9014 C   0  0  0  0  0  0  0  0  0  0  0  0
  -26.6888   -2.2893   30.1810 C   0  0  0  0  0  0  0  0  0  0  0  0
  -27.8727   -1.9508   29.7373 C   0  0  0  0  0  0  0  0  0  0  0  0
  -24.4208    0.2303   28.7927 C   0  0  0  0  0  0  0  0  0  0  0  0
  -24.0151    1.2709   29.4585 C   0  0  0  0  0  0  0  0  0  0  0  0
  -22.8078    1.9761   29.1061 C   0  0  0  0  0  0  0  0  0  0  0  0
  -22.0499    1.5508   27.9901 C   0  0  0  0  0  0  0  0  0  0  0  0
  -22.5117    0.5215   27.2627 C   0  0  0  0  0  0  0  0  0  0  0  0
  -23.6820   -0.0896   27.6030 C   0  0  0  0  0  0  0  0  0  0  0  0
  -24.7409    1.7695   30.7003 C   0  0  0  0  0  0  0  0  0  0  0  0
  -24.9272    1.1193   31.6386 O   0  0  0  0  0  0  0  0  0  0  0  0
  -24.8050    3.1317   30.7929 O   0  0  0  0  0  0  0  0  0  0  0  0
  3  7  1  0
  8 13  1  0
 13 14  2  0
 13 15  1  0
  1  2  2  0
  2  3  1  0
  3  4  2  0
  4  5  1  0
  5  6  2  0
  6  1  1  0
  7  8  2  0
  8  9  1  0
  9 10  2  0
 10 11  1  0
 11 12  2  0
 12  7  1  0
M  END

$$$$
