No_3858-gen_results/8p0m/2024-11-26-14-13-15/
     RDKit          3D

 20 22  0  0  0  0  0  0  0  0999 V2000
  -28.0162   -0.8135   28.8779 C   0  0  0  0  0  0  0  0  0  0  0  0
  -28.4690   -0.7850   29.8287 C   0  0  0  0  0  0  0  0  0  0  0  0
  -27.0871    0.2903   28.6377 C   0  0  0  0  0  0  0  0  0  0  0  0
  -26.0238    0.3644   29.2526 C   0  0  0  0  0  0  0  0  0  0  0  0
  -27.5370   -0.6187   31.0883 C   0  0  0  0  0  0  0  0  0  0  0  0
  -26.3844    0.1834   30.8012 C   0  0  0  0  0  0  0  0  0  0  0  0
  -29.5100   -1.6195   30.2653 O   0  0  0  0  0  0  0  0  0  0  0  0
  -30.7241   -1.2384   29.8510 C   0  0  0  0  0  0  0  0  0  0  0  0
  -31.5691   -2.3374   29.6640 C   0  0  0  0  0  0  0  0  0  0  0  0
  -32.8126   -2.1391   28.9632 C   0  0  0  0  0  0  0  0  0  0  0  0
  -33.1076   -0.8096   28.5644 C   0  0  0  0  0  0  0  0  0  0  0  0
  -32.1979    0.1817   28.7641 C   0  0  0  0  0  0  0  0  0  0  0  0
  -30.9352   -0.0421   29.3629 C   0  0  0  0  0  0  0  0  0  0  0  0
  -26.8263    0.6339   27.1237 C   0  0  0  0  0  0  0  0  0  0  0  0
  -27.7178    0.8786   26.3344 C   0  0  0  0  0  0  0  0  0  0  0  0
  -27.4697    1.1185   24.9874 C   0  0  0  0  0  0  0  0  0  0  0  0
  -25.5770    1.1202   26.7288 C   0  0  0  0  0  0  0  0  0  0  0  0
  -24.3725    1.0729   27.6523 C   0  0  0  0  0  0  0  0  0  0  0  0
  -24.6998    0.7904   29.0500 C   0  0  0  0  0  0  0  0  0  0  0  0
  -28.5980    1.2313   24.1406 C   0  0  0  0  0  0  0  0  0  0  0  0
  2  7  1  0
  7  8  1  0
 14 15  1  0
 15 16  2  3
 16 20  1  0
  4 19  2  0
 19 18  1  0
 18 17  2  0
 17 14  1  0
 14  3  2  0
  8  9  2  0
  9 10  1  0
 10 11  2  0
 11 12  1  0
 12 13  2  0
 13  8  1  0
  1  2  2  0
  2  5  1  0
  5  6  2  0
  6  4  1  0
  4  3  1  0
  3  1  1  0
M  END

$$$$
