No_3781-gen_results/8p0m/2024-11-26-14-13-15/
     RDKit          3D

 14 14  0  0  0  0  0  0  0  0999 V2000
  -28.0162   -0.8135   28.8779 C   0  0  0  0  0  0  0  0  0  0  0  0
  -27.0636   -0.1189   28.6079 C   0  0  0  0  0  0  0  0  0  0  0  0
  -25.7647   -0.3897   29.0360 C   0  0  0  0  0  0  0  0  0  0  0  0
  -24.5516    0.4058   28.7646 C   0  0  0  0  0  0  0  0  0  0  0  0
  -24.6957    1.4480   27.7988 C   0  0  0  0  0  0  0  0  0  0  0  0
  -25.9755    1.7250   27.3077 C   0  0  0  0  0  0  0  0  0  0  0  0
  -27.0718    1.0134   27.6535 C   0  0  0  0  0  0  0  0  0  0  0  0
  -28.6178   -0.4695   30.2207 C   0  0  0  0  0  0  0  0  0  0  0  0
  -29.6245   -1.2712   30.6820 O   0  0  0  0  0  0  0  0  0  0  0  0
  -23.1551    2.4076   27.3750 Br  0  0  0  0  0  0  0  0  0  0  0  0
  -28.2306    0.4027   30.9574 O   0  0  0  0  0  0  0  0  0  0  0  0
  -23.3757   -0.0095   29.4804 C   0  0  0  0  0  0  0  0  0  0  0  0
  -22.8000   -1.1542   29.4444 C   0  0  0  0  0  0  0  0  0  0  0  0
  -22.8042    1.0798   30.3144 C   0  0  0  0  0  0  0  0  0  0  0  0
  1  8  1  0
  8  9  1  0
  5 10  1  0
  8 11  2  0
  4 12  1  0
 12 13  1  0
 12 14  1  0
  1  2  1  0
  2  3  2  0
  3  4  1  0
  4  5  2  0
  5  6  1  0
  6  7  2  0
  7  2  1  0
M  END

$$$$
