No_3419-gen_results/8p0m/2024-11-26-14-13-15/
     RDKit          3D

  9  9  0  0  0  0  0  0  0  0999 V2000
  -28.0162   -0.8135   28.8779 C   0  0  0  0  0  0  0  0  0  0  0  0
  -28.4690   -0.7850   29.8287 C   0  0  0  0  0  0  0  0  0  0  0  0
  -26.5455   -0.8762   28.8500 C   0  0  0  0  0  0  0  0  0  0  0  0
  -25.8974   -0.8267   29.8894 C   0  0  0  0  0  0  0  0  0  0  0  0
  -27.9129   -0.8385   31.1942 C   0  0  0  0  0  0  0  0  0  0  0  0
  -26.5519   -0.8324   31.1775 C   0  0  0  0  0  0  0  0  0  0  0  0
  -30.0466   -0.7409   29.7265 C   0  0  0  0  0  0  0  0  0  0  0  0
  -30.7397   -1.5464   30.2334 O   0  0  0  0  0  0  0  0  0  0  0  0
  -30.5533    0.2107   29.0609 O   0  0  0  0  0  0  0  0  0  0  0  0
  2  7  1  0
  7  8  1  0
  7  9  2  0
  1  2  2  0
  2  5  1  0
  5  6  2  0
  6  4  1  0
  4  3  2  0
  3  1  1  0
M  END

$$$$
