No_3624-gen_results/8p0m/2024-11-26-14-13-15/
     RDKit          3D

 21 22  0  0  0  0  0  0  0  0999 V2000
  -28.0162   -0.8135   28.8779 C   0  0  0  0  0  0  0  0  0  0  0  0
  -28.4690   -0.7850   29.8287 C   0  0  0  0  0  0  0  0  0  0  0  0
  -26.5455   -0.8762   28.8500 C   0  0  0  0  0  0  0  0  0  0  0  0
  -25.8041   -1.0324   30.0571 C   0  0  0  0  0  0  0  0  0  0  0  0
  -27.9437   -0.9869   31.2075 C   0  0  0  0  0  0  0  0  0  0  0  0
  -26.5825   -1.0386   31.2231 C   0  0  0  0  0  0  0  0  0  0  0  0
  -29.9648   -0.7353   29.8902 N   0  0  0  0  0  0  0  0  0  0  0  0
  -30.5344   -0.0309   29.0060 C   0  0  0  0  0  0  0  0  0  0  0  0
  -31.0160    0.9546   28.9051 C   0  0  0  0  0  0  0  0  0  0  0  0
  -31.1144    1.7830   30.1822 C   0  0  0  0  0  0  0  0  0  0  0  0
  -31.0706    1.2912   31.2731 C   0  0  0  0  0  0  0  0  0  0  0  0
  -30.6548   -0.9498   31.1210 C   0  0  0  0  0  0  0  0  0  0  0  0
  -30.8059    0.2018   31.9289 C   0  0  0  0  0  0  0  0  0  0  0  0
  -25.5537   -0.7601   27.4141 Cl  0  0  0  0  0  0  0  0  0  0  0  0
  -30.9900   -0.1253   33.3409 C   0  0  0  0  0  0  0  0  0  0  0  0
  -30.1666    0.4114   33.9805 F   0  0  0  0  0  0  0  0  0  0  0  0
  -32.2190    0.3176   33.6769 F   0  0  0  0  0  0  0  0  0  0  0  0
  -30.9002   -1.4488   33.5625 F   0  0  0  0  0  0  0  0  0  0  0  0
  -31.4411    1.6771   27.7128 C   0  0  0  0  0  0  0  0  0  0  0  0
  -31.2719    2.7501   27.4483 O   0  0  0  0  0  0  0  0  0  0  0  0
  -32.3099    0.9311   27.0095 O   0  0  0  0  0  0  0  0  0  0  0  0
  2  7  1  0
  7  8  1  0
  8  9  2  0
  9 10  1  0
 10 11  2  0
  7 12  1  0
 11 13  1  0
 12 13  1  0
  3 14  1  0
 13 15  1  0
 15 16  1  0
 15 17  1  0
 15 18  1  0
  9 19  1  0
 19 20  2  0
 19 21  1  0
  1  2  2  0
  2  5  1  0
  5  6  2  0
  6  4  1  0
  4  3  2  0
  3  1  1  0
M  END

$$$$
