No_3096-gen_results/8p0m/2024-11-26-14-13-15/
     RDKit          3D

 10  9  0  0  0  0  0  0  0  0999 V2000
  -28.0162   -0.8135   28.8779 C   0  0  0  0  0  0  0  0  0  0  0  0
  -27.0636   -0.1189   28.6079 C   0  0  0  0  0  0  0  0  0  0  0  0
  -27.0425    0.2440   27.4277 F   0  0  0  0  0  0  0  0  0  0  0  0
  -27.8750   -1.6429   29.9472 O   0  0  0  0  0  0  0  0  0  0  0  0
  -25.8157   -0.7309   28.8188 F   0  0  0  0  0  0  0  0  0  0  0  0
  -26.9249    1.0507   29.3308 F   0  0  0  0  0  0  0  0  0  0  0  0
  -29.1507   -0.7587   28.5206 F   0  0  0  0  0  0  0  0  0  0  0  0
  -28.5890   -2.9032   30.1506 C   0  0  0  0  0  0  0  0  0  0  0  0
  -29.9566   -2.9468   30.0830 Cl  0  0  0  0  0  0  0  0  0  0  0  0
  -27.7659   -3.9277   30.4163 O   0  0  0  0  0  0  0  0  0  0  0  0
  1  2  1  0
  2  3  1  0
  1  4  1  0
  2  5  1  0
  2  6  1  0
  1  7  1  0
  4  8  1  0
  8  9  1  0
  8 10  2  0
M  END

$$$$
