No_3138-gen_results/8p0m/2024-11-26-14-13-15/
     RDKit          3D

 26 28  0  0  0  0  0  0  0  0999 V2000
  -28.0162   -0.8135   28.8779 C   0  0  0  0  0  0  0  0  0  0  0  0
  -27.0636   -0.1190   28.6079 C   0  0  0  0  0  0  0  0  0  0  0  0
  -26.9716    0.7139   27.5060 C   0  0  0  0  0  0  0  0  0  0  0  0
  -25.8205    1.4909   27.1160 C   0  0  0  0  0  0  0  0  0  0  0  0
  -24.6562    1.4242   27.9180 C   0  0  0  0  0  0  0  0  0  0  0  0
  -24.7114    0.5419   29.0507 C   0  0  0  0  0  0  0  0  0  0  0  0
  -25.8042   -0.2058   29.3881 C   0  0  0  0  0  0  0  0  0  0  0  0
  -28.7233   -0.6113   29.9885 N   0  0  0  0  0  0  0  0  0  0  0  0
  -29.8128   -1.4112   30.4034 C   0  0  0  0  0  0  0  0  0  0  0  0
  -23.4660    2.1584   27.6247 C   0  0  0  0  0  0  0  0  0  0  0  0
  -22.6245    1.7732   27.1767 O   0  0  0  0  0  0  0  0  0  0  0  0
  -23.6769    3.5095   27.7950 O   0  0  0  0  0  0  0  0  0  0  0  0
  -30.6165   -1.1093   31.4515 C   0  0  0  0  0  0  0  0  0  0  0  0
  -31.6633   -1.6277   31.7803 C   0  0  0  0  0  0  0  0  0  0  0  0
  -32.0497   -2.8153   31.0247 C   0  0  0  0  0  0  0  0  0  0  0  0
  -31.3188   -3.2355   29.9646 C   0  0  0  0  0  0  0  0  0  0  0  0
  -30.1609   -2.5395   29.6545 C   0  0  0  0  0  0  0  0  0  0  0  0
  -28.1354    0.8130   26.6425 C   0  0  0  0  0  0  0  0  0  0  0  0
  -28.3954    2.0021   26.1298 O   0  0  0  0  0  0  0  0  0  0  0  0
  -28.4440    0.5849   30.8288 C   0  0  0  0  0  0  0  0  0  0  0  0
  -29.0911    0.0581   26.7322 O   0  0  0  0  0  0  0  0  0  0  0  0
  -27.9969    0.6496   31.9196 C   0  0  0  0  0  0  0  0  0  0  0  0
  -27.5478    1.8314   32.5183 C   0  0  0  0  0  0  0  0  0  0  0  0
  -29.0761    1.8731   30.4208 C   0  0  0  0  0  0  0  0  0  0  0  0
  -28.8415    3.0731   30.9787 C   0  0  0  0  0  0  0  0  0  0  0  0
  -28.0404    3.0795   32.1255 C   0  0  0  0  0  0  0  0  0  0  0  0
  1  8  1  0
  8  9  1  0
  5 10  1  0
 10 11  2  0
 10 12  1  0
  3 18  1  0
 18 19  1  0
  8 20  1  0
 18 21  2  0
  1  2  1  0
 20 22  2  0
 22 23  1  0
 23 26  2  0
 26 25  1  0
 25 24  2  0
 24 20  1  0
  2  3  2  0
  3  4  1  0
  4  5  2  0
  5  6  1  0
  6  7  2  0
  7  2  1  0
  9 13  2  0
 13 14  1  0
 14 15  2  0
 15 16  1  0
 16 17  2  0
 17  9  1  0
M  END

$$$$
