No_3188-gen_results/8p0m/2024-11-26-14-13-15/
     RDKit          3D

 24 26  0  0  0  0  0  0  0  0999 V2000
  -28.1229   -1.3353   28.4874 O   0  0  0  0  0  0  0  0  0  0  0  0
  -27.0637   -0.8242   28.8687 C   0  0  0  0  0  0  0  0  0  0  0  0
  -26.4017   -0.0623   28.6224 C   0  0  0  0  0  0  0  0  0  0  0  0
  -26.3805   -1.7991   29.9619 N   0  0  0  0  0  0  0  0  0  0  0  0
  -25.0334    0.3743   29.0484 C   0  0  0  0  0  0  0  0  0  0  0  0
  -24.5462   -0.4703   30.1069 C   0  0  0  0  0  0  0  0  0  0  0  0
  -25.2361   -1.5529   30.4712 C   0  0  0  0  0  0  0  0  0  0  0  0
  -26.8306    0.9807   27.5238 C   0  0  0  0  0  0  0  0  0  0  0  0
  -27.0620    2.1351   27.7177 C   0  0  0  0  0  0  0  0  0  0  0  0
  -26.8246    2.7192   29.1112 C   0  0  0  0  0  0  0  0  0  0  0  0
  -27.0186    4.1335   29.2866 C   0  0  0  0  0  0  0  0  0  0  0  0
  -27.3868    4.8838   28.1511 C   0  0  0  0  0  0  0  0  0  0  0  0
  -27.5781    4.3807   26.9139 C   0  0  0  0  0  0  0  0  0  0  0  0
  -27.3860    3.0206   26.6892 C   0  0  0  0  0  0  0  0  0  0  0  0
  -26.9675    0.3585   26.2102 C   0  0  0  0  0  0  0  0  0  0  0  0
  -25.9142    0.5310   25.3862 N   0  0  0  0  0  0  0  0  0  0  0  0
  -28.0534   -0.0064   25.8183 O   0  0  0  0  0  0  0  0  0  0  0  0
  -27.0861   -3.0333   30.4176 C   0  0  0  0  0  0  0  0  0  0  0  0
  -24.5831    0.9263   25.7763 C   0  0  0  0  0  0  0  0  0  0  0  0
  -24.0357    2.0879   25.1162 C   0  0  0  0  0  0  0  0  0  0  0  0
  -22.7286    2.5340   25.6141 C   0  0  0  0  0  0  0  0  0  0  0  0
  -22.2037    2.0099   26.8665 C   0  0  0  0  0  0  0  0  0  0  0  0
  -22.8950    0.8680   27.4304 C   0  0  0  0  0  0  0  0  0  0  0  0
  -24.0780    0.4529   26.9426 C   0  0  0  0  0  0  0  0  0  0  0  0
  1  2  2  0
  2  3  1  0
  2  4  1  0
  3  5  1  0
  4  7  1  0
  6  7  1  0
  3  8  1  0
  8 15  1  0
 15 16  1  0
 15 17  2  0
  4 18  1  0
 16 19  1  0
  8  9  1  0
  5  6  1  0
 19 20  2  0
 20 21  1  0
 21 22  2  0
 22 23  1  0
 23 24  2  0
 24 19  1  0
  9 10  2  0
 10 11  1  0
 11 12  2  0
 12 13  1  0
 13 14  2  0
 14  9  1  0
M  END

$$$$
