No_3898-gen_results/8p0m/2024-11-26-14-13-15/
     RDKit          3D

 15 16  0  0  0  0  0  0  0  0999 V2000
  -28.0162   -0.8135   28.8779 C   0  0  0  0  0  0  0  0  0  0  0  0
  -27.0636   -0.1189   28.6079 C   0  0  0  0  0  0  0  0  0  0  0  0
  -26.8756    1.1325   28.9134 C   0  0  0  0  0  0  0  0  0  0  0  0
  -27.9014    1.8066   29.6436 C   0  0  0  0  0  0  0  0  0  0  0  0
  -29.0458   -0.2316   29.7181 C   0  0  0  0  0  0  0  0  0  0  0  0
  -28.9402    1.0517   30.0597 C   0  0  0  0  0  0  0  0  0  0  0  0
  -30.0593   -1.0632   30.0946 O   0  0  0  0  0  0  0  0  0  0  0  0
  -25.6684    1.9362   28.4484 C   0  0  0  0  0  0  0  0  0  0  0  0
  -24.8300    1.8451   27.8766 C   0  0  0  0  0  0  0  0  0  0  0  0
  -23.6750    2.2178   27.5061 C   0  0  0  0  0  0  0  0  0  0  0  0
  -22.6419    1.4126   27.2532 C   0  0  0  0  0  0  0  0  0  0  0  0
  -22.3599    0.4741   28.0108 C   0  0  0  0  0  0  0  0  0  0  0  0
  -23.4609   -0.2781   28.6704 C   0  0  0  0  0  0  0  0  0  0  0  0
  -24.4064    0.3621   28.5422 O   0  0  0  0  0  0  0  0  0  0  0  0
  -23.3458   -1.4978   29.2251 C   0  0  0  0  0  0  0  0  0  0  0  0
  5  7  1  0
  3  8  1  0
  8  9  2  3
  9 10  1  0
 10 11  2  0
 11 12  1  0
 12 13  2  0
  9 14  1  0
 13 14  1  0
 13 15  1  0
  1  2  2  0
  2  3  1  0
  3  4  2  0
  4  6  1  0
  6  5  2  0
  5  1  1  0
M  END

$$$$
