No_3656-gen_results/8p0m/2024-11-26-14-13-15/
     RDKit          3D

 17 18  0  0  0  0  0  0  0  0999 V2000
  -28.0162   -0.8135   28.8779 C   0  0  0  0  0  0  0  0  0  0  0  0
  -27.0636   -0.1189   28.6079 C   0  0  0  0  0  0  0  0  0  0  0  0
  -26.8756    1.1325   28.9134 C   0  0  0  0  0  0  0  0  0  0  0  0
  -27.9014    1.8066   29.6436 C   0  0  0  0  0  0  0  0  0  0  0  0
  -29.0458   -0.2316   29.7181 C   0  0  0  0  0  0  0  0  0  0  0  0
  -28.9402    1.0517   30.0597 C   0  0  0  0  0  0  0  0  0  0  0  0
  -25.9795   -0.6907   27.8753 O   0  0  0  0  0  0  0  0  0  0  0  0
  -24.9341   -1.2498   28.6642 C   0  0  0  0  0  0  0  0  0  0  0  0
  -24.7306   -0.8600   29.8157 C   0  0  0  0  0  0  0  0  0  0  0  0
  -23.7095   -0.3760   30.3304 C   0  0  0  0  0  0  0  0  0  0  0  0
  -22.6305    0.1103   29.4281 C   0  0  0  0  0  0  0  0  0  0  0  0
  -22.2231    0.8410   28.6802 C   0  0  0  0  0  0  0  0  0  0  0  0
  -21.1410    0.8277   27.9531 N   0  0  0  0  0  0  0  0  0  0  0  0
  -23.2489    1.7423   28.0908 N   0  0  0  0  0  0  0  0  0  0  0  0
  -22.9226    2.4896   26.9772 C   0  0  0  0  0  0  0  0  0  0  0  0
  -21.8206    2.2191   26.2785 C   0  0  0  0  0  0  0  0  0  0  0  0
  -20.8469    1.4421   26.8567 C   0  0  0  0  0  0  0  0  0  0  0  0
  2  7  1  0
  7  8  1  0
  8  9  1  0
  9 10  2  3
 10 11  1  0
 11 12  1  0
  1  2  2  0
  2  3  1  0
  3  4  2  0
  4  6  1  0
  6  5  2  0
  5  1  1  0
 12 13  2  0
 13 17  1  0
 17 16  2  0
 16 15  1  0
 15 14  2  0
 14 12  1  0
M  END

$$$$
