No_3768-gen_results/8p0m/2024-11-26-14-13-15/
     RDKit          3D

 22 23  0  0  0  0  0  0  0  0999 V2000
  -28.1229   -1.3353   28.4874 O   0  0  0  0  0  0  0  0  0  0  0  0
  -27.4806   -0.4044   28.7094 C   0  0  0  0  0  0  0  0  0  0  0  0
  -26.3804   -0.0867   27.9394 C   0  0  0  0  0  0  0  0  0  0  0  0
  -27.6664    0.4468   29.8988 N   0  0  0  0  0  0  0  0  0  0  0  0
  -25.1773   -0.4388   28.3946 C   0  0  0  0  0  0  0  0  0  0  0  0
  -26.5259    0.6036   26.6867 C   0  0  0  0  0  0  0  0  0  0  0  0
  -23.9372    0.0372   27.6524 C   0  0  0  0  0  0  0  0  0  0  0  0
  -25.3818    0.9698   25.9434 C   0  0  0  0  0  0  0  0  0  0  0  0
  -24.1031    0.7250   26.4412 C   0  0  0  0  0  0  0  0  0  0  0  0
  -28.7610    0.1071   30.7837 C   0  0  0  0  0  0  0  0  0  0  0  0
  -26.8495    1.5251   30.1941 C   0  0  0  0  0  0  0  0  0  0  0  0
  -27.0729    2.4715   30.5831 C   0  0  0  0  0  0  0  0  0  0  0  0
  -26.0439    3.4976   30.7939 C   0  0  0  0  0  0  0  0  0  0  0  0
  -26.2862    4.8504   31.2654 C   0  0  0  0  0  0  0  0  0  0  0  0
  -25.3233    5.8470   31.2401 C   0  0  0  0  0  0  0  0  0  0  0  0
  -25.0150    6.9013   31.0464 C   0  0  0  0  0  0  0  0  0  0  0  0
  -24.5567    7.8879   30.6880 C   0  0  0  0  0  0  0  0  0  0  0  0
  -24.7048    8.6470   29.5932 C   0  0  0  0  0  0  0  0  0  0  0  0
  -23.9732    9.8809   29.2584 C   0  0  0  0  0  0  0  0  0  0  0  0
  -22.9506   10.2775   30.1086 C   0  0  0  0  0  0  0  0  0  0  0  0
  -23.3549    8.5311   31.4602 C   0  0  0  0  0  0  0  0  0  0  0  0
  -22.6530    9.6216   31.2074 C   0  0  0  0  0  0  0  0  0  0  0  0
  1  2  2  0
  2  3  1  0
  2  4  1  0
  4 10  1  0
  4 11  1  0
 11 12  2  3
 12 13  1  0
 13 14  2  3
 14 15  1  0
 15 16  3  0
 16 17  1  0
 17 18  2  0
 18 19  1  0
 19 20  2  0
 20 22  1  0
 22 21  2  0
 21 17  1  0
  3  5  2  0
  5  7  1  0
  7  9  2  0
  9  8  1  0
  8  6  2  0
  6  3  1  0
M  END

$$$$
