No_3116-gen_results/8p0m/2024-11-26-14-13-15/
     RDKit          3D

 35 39  0  0  0  0  0  0  0  0999 V2000
  -28.0162   -0.8135   28.8779 C   0  0  0  0  0  0  0  0  0  0  0  0
  -27.0636   -0.1189   28.6079 C   0  0  0  0  0  0  0  0  0  0  0  0
  -26.9716    0.7139   27.5060 C   0  0  0  0  0  0  0  0  0  0  0  0
  -28.1053    0.7744   26.6421 C   0  0  0  0  0  0  0  0  0  0  0  0
  -29.2008    0.1044   27.0527 C   0  0  0  0  0  0  0  0  0  0  0  0
  -29.2096   -0.6029   28.1853 C   0  0  0  0  0  0  0  0  0  0  0  0
  -30.5651    0.2430   26.0493 Cl  0  0  0  0  0  0  0  0  0  0  0  0
  -25.6106   -0.1345   29.2364 C   0  0  0  0  0  0  0  0  0  0  0  0
  -25.2585    0.4704   30.0756 C   0  0  0  0  0  0  0  0  0  0  0  0
  -26.0350    1.6372   30.6408 C   0  0  0  0  0  0  0  0  0  0  0  0
  -25.3941    2.4407   31.6428 C   0  0  0  0  0  0  0  0  0  0  0  0
  -26.0893    3.4602   32.3200 C   0  0  0  0  0  0  0  0  0  0  0  0
  -27.3967    3.7405   31.9039 C   0  0  0  0  0  0  0  0  0  0  0  0
  -27.9606    2.9780   30.9135 C   0  0  0  0  0  0  0  0  0  0  0  0
  -27.2957    1.9576   30.3133 C   0  0  0  0  0  0  0  0  0  0  0  0
  -24.7195   -1.0418   28.5904 C   0  0  0  0  0  0  0  0  0  0  0  0
  -23.5163   -1.3034   29.1271 C   0  0  0  0  0  0  0  0  0  0  0  0
  -23.0102   -0.4857   30.0953 C   0  0  0  0  0  0  0  0  0  0  0  0
  -23.8811    0.4644   30.6668 C   0  0  0  0  0  0  0  0  0  0  0  0
  -29.3615    3.3231   30.5120 C   0  0  0  0  0  0  0  0  0  0  0  0
  -30.0067    2.6995   29.5547 C   0  0  0  0  0  0  0  0  0  0  0  0
  -31.2730    3.0293   29.1215 C   0  0  0  0  0  0  0  0  0  0  0  0
  -31.8948    2.3538   28.1095 C   0  0  0  0  0  0  0  0  0  0  0  0
  -29.9810    4.4902   31.1495 C   0  0  0  0  0  0  0  0  0  0  0  0
  -31.2997    4.8138   30.7395 C   0  0  0  0  0  0  0  0  0  0  0  0
  -31.8600    4.1110   29.7551 C   0  0  0  0  0  0  0  0  0  0  0  0
  -32.6082    2.6815   27.2674 C   0  0  0  0  0  0  0  0  0  0  0  0
  -33.0057    1.9729   26.1884 C   0  0  0  0  0  0  0  0  0  0  0  0
  -33.4191    2.5665   25.0159 C   0  0  0  0  0  0  0  0  0  0  0  0
  -33.7727    3.9924   25.0183 C   0  0  0  0  0  0  0  0  0  0  0  0
  -33.4164    4.7560   26.0980 C   0  0  0  0  0  0  0  0  0  0  0  0
  -32.7917    4.2169   27.1036 C   0  0  0  0  0  0  0  0  0  0  0  0
  -28.0845   -1.6342   30.1631 C   0  0  0  0  0  0  0  0  0  0  0  0
  -28.2071   -1.1081   31.2949 O   0  0  0  0  0  0  0  0  0  0  0  0
  -27.6787   -2.8740   30.1081 O   0  0  0  0  0  0  0  0  0  0  0  0
  5  7  1  0
  2  8  1  0
  9 10  1  0
 14 20  1  0
 22 23  1  0
  1 33  1  0
 33 34  2  0
 33 35  1  0
 23 27  1  0
  1  2  2  0
  2  3  1  0
  3  4  2  0
  4  5  1  0
  5  6  2  0
  6  1  1  0
 20 21  2  0
 21 22  1  0
 22 26  2  0
 26 25  1  0
 25 24  2  0
 24 20  1  0
  8  9  2  0
  9 19  1  0
 19 18  2  0
 18 17  1  0
 17 16  2  0
 16  8  1  0
 27 28  2  0
 28 29  1  0
 29 30  2  0
 30 31  1  0
 31 32  2  0
 32 27  1  0
 10 11  2  0
 11 12  1  0
 12 13  2  0
 13 14  1  0
 14 15  2  0
 15 10  1  0
M  END

$$$$
