No_3610-gen_results/8p0m/2024-11-26-14-13-15/
     RDKit          3D

 28 30  0  0  0  0  0  0  0  0999 V2000
  -28.0162   -0.8135   28.8779 C   0  0  0  0  0  0  0  0  0  0  0  0
  -28.4690   -0.7850   29.8287 C   0  0  0  0  0  0  0  0  0  0  0  0
  -27.0871    0.2903   28.6377 C   0  0  0  0  0  0  0  0  0  0  0  0
  -26.8317    1.2487   29.5869 C   0  0  0  0  0  0  0  0  0  0  0  0
  -28.3914    0.0801   31.0065 C   0  0  0  0  0  0  0  0  0  0  0  0
  -27.4940    1.1521   30.7841 C   0  0  0  0  0  0  0  0  0  0  0  0
  -26.3172    0.3994   27.3653 C   0  0  0  0  0  0  0  0  0  0  0  0
  -26.9484    0.3460   26.3604 F   0  0  0  0  0  0  0  0  0  0  0  0
  -25.6329    1.6514   27.3249 F   0  0  0  0  0  0  0  0  0  0  0  0
  -25.2326   -0.4943   27.4191 F   0  0  0  0  0  0  0  0  0  0  0  0
  -29.3812   -2.0977   30.0668 C   0  0  0  0  0  0  0  0  0  0  0  0
  -30.5420   -1.8895   30.0299 N   0  0  0  0  0  0  0  0  0  0  0  0
  -28.8599   -3.2068   30.4294 O   0  0  0  0  0  0  0  0  0  0  0  0
  -31.5238   -2.9573   30.1988 C   0  0  0  0  0  0  0  0  0  0  0  0
  -31.2183   -0.6097   29.6287 C   0  0  0  0  0  0  0  0  0  0  0  0
  -31.9984   -0.0526   30.6665 C   0  0  0  0  0  0  0  0  0  0  0  0
  -32.5009    1.1531   30.4086 C   0  0  0  0  0  0  0  0  0  0  0  0
  -32.3612    1.8111   29.1711 C   0  0  0  0  0  0  0  0  0  0  0  0
  -30.9874   -0.0160   28.4629 C   0  0  0  0  0  0  0  0  0  0  0  0
  -31.5574    1.2390   28.2103 C   0  0  0  0  0  0  0  0  0  0  0  0
  -31.3059    1.9407   26.9297 C   0  0  0  0  0  0  0  0  0  0  0  0
  -31.0923    1.5002   25.9542 O   0  0  0  0  0  0  0  0  0  0  0  0
  -31.1949    3.3034   27.0682 O   0  0  0  0  0  0  0  0  0  0  0  0
  -31.7275   -3.7516   29.1372 C   0  0  0  0  0  0  0  0  0  0  0  0
  -32.3040   -4.8693   29.2732 C   0  0  0  0  0  0  0  0  0  0  0  0
  -32.8035   -5.2982   30.5071 C   0  0  0  0  0  0  0  0  0  0  0  0
  -32.6460   -4.4432   31.5962 C   0  0  0  0  0  0  0  0  0  0  0  0
  -31.9079   -3.2997   31.4961 C   0  0  0  0  0  0  0  0  0  0  0  0
  3  7  1  0
  7  8  1  0
  7  9  1  0
  7 10  1  0
  2 11  1  0
 11 12  1  0
 11 13  2  0
 12 14  1  0
 12 15  1  0
 20 21  1  0
 21 22  2  0
 21 23  1  0
 15 16  2  0
 16 17  1  0
 17 18  2  0
 18 20  1  0
 20 19  2  0
 19 15  1  0
 14 24  2  0
 24 25  1  0
 25 26  2  0
 26 27  1  0
 27 28  2  0
 28 14  1  0
  1  2  2  0
  2  5  1  0
  5  6  2  0
  6  4  1  0
  4  3  2  0
  3  1  1  0
M  END

$$$$
