No_3883-gen_results/8p0m/2024-11-26-14-13-15/
     RDKit          3D

 20 22  0  0  0  0  0  0  0  0999 V2000
  -28.1229   -1.3353   28.4874 O   0  0  0  0  0  0  0  0  0  0  0  0
  -27.4806   -0.4044   28.7094 C   0  0  0  0  0  0  0  0  0  0  0  0
  -27.1904    0.2460   29.5268 C   0  0  0  0  0  0  0  0  0  0  0  0
  -26.8157    0.1371   27.4262 N   0  0  0  0  0  0  0  0  0  0  0  0
  -26.3550    1.4196   29.7643 C   0  0  0  0  0  0  0  0  0  0  0  0
  -26.0125    1.2307   27.4050 C   0  0  0  0  0  0  0  0  0  0  0  0
  -25.7456    1.9087   28.5801 C   0  0  0  0  0  0  0  0  0  0  0  0
  -25.4741    1.6476   26.2645 N   0  0  0  0  0  0  0  0  0  0  0  0
  -25.2539    1.0398   25.2556 C   0  0  0  0  0  0  0  0  0  0  0  0
  -25.9995   -0.0808   25.0689 N   0  0  0  0  0  0  0  0  0  0  0  0
  -26.7342   -0.5829   26.1965 C   0  0  0  0  0  0  0  0  0  0  0  0
  -27.8227   -0.2605   30.9174 C   0  0  0  0  0  0  0  0  0  0  0  0
  -24.8816    3.1278   28.6296 C   0  0  0  0  0  0  0  0  0  0  0  0
  -24.6642    3.7069   29.6104 O   0  0  0  0  0  0  0  0  0  0  0  0
  -24.5110    3.7088   27.4661 O   0  0  0  0  0  0  0  0  0  0  0  0
  -28.8913    0.5617   31.3802 C   0  0  0  0  0  0  0  0  0  0  0  0
  -29.5689    0.0591   32.3032 C   0  0  0  0  0  0  0  0  0  0  0  0
  -29.2129   -1.1661   32.9664 C   0  0  0  0  0  0  0  0  0  0  0  0
  -28.2045   -1.9357   32.4192 C   0  0  0  0  0  0  0  0  0  0  0  0
  -27.4603   -1.4575   31.3417 C   0  0  0  0  0  0  0  0  0  0  0  0
  1  2  2  0
  2  3  1  0
  2  4  1  0
  4  6  1  0
  5  7  1  0
  6  7  1  0
  6  8  1  0
  8  9  1  0
  9 10  1  0
  4 11  1  0
 10 11  1  0
  3 12  1  0
  7 13  1  0
 13 14  2  0
 13 15  1  0
  3  5  1  0
 12 16  2  0
 16 17  1  0
 17 18  2  0
 18 19  1  0
 19 20  2  0
 20 12  1  0
M  END

$$$$
