No_3506-gen_results/8p0m/2024-11-26-14-13-15/
     RDKit          3D

 31 33  0  0  0  0  0  0  0  0999 V2000
  -28.0162   -0.8135   28.8779 C   0  0  0  0  0  0  0  0  0  0  0  0
  -27.0636   -0.1189   28.6079 C   0  0  0  0  0  0  0  0  0  0  0  0
  -26.9716    0.7139   27.5060 C   0  0  0  0  0  0  0  0  0  0  0  0
  -28.1053    0.7744   26.6421 C   0  0  0  0  0  0  0  0  0  0  0  0
  -29.2008    0.1044   27.0527 C   0  0  0  0  0  0  0  0  0  0  0  0
  -29.2096   -0.6029   28.1853 C   0  0  0  0  0  0  0  0  0  0  0  0
  -30.3044    0.2267   26.2604 O   0  0  0  0  0  0  0  0  0  0  0  0
  -25.7141   -0.2197   29.4065 C   0  0  0  0  0  0  0  0  0  0  0  0
  -25.2431    0.9659   30.1090 C   0  0  0  0  0  0  0  0  0  0  0  0
  -25.4781    1.1889   31.0809 C   0  0  0  0  0  0  0  0  0  0  0  0
  -26.3057    0.3976   31.9962 C   0  0  0  0  0  0  0  0  0  0  0  0
  -27.1940    0.6696   32.5782 C   0  0  0  0  0  0  0  0  0  0  0  0
  -27.7722    1.9840   32.3745 C   0  0  0  0  0  0  0  0  0  0  0  0
  -26.9162    3.0300   31.9984 C   0  0  0  0  0  0  0  0  0  0  0  0
  -25.8431    2.6321   31.1186 C   0  0  0  0  0  0  0  0  0  0  0  0
  -24.1318    1.6116   29.2825 C   0  0  0  0  0  0  0  0  0  0  0  0
  -22.9914    1.3656   29.4675 O   0  0  0  0  0  0  0  0  0  0  0  0
  -24.4679    2.5867   28.3604 O   0  0  0  0  0  0  0  0  0  0  0  0
  -25.6875   -1.5500   30.1084 C   0  0  0  0  0  0  0  0  0  0  0  0
  -24.6775   -2.3584   29.5541 C   0  0  0  0  0  0  0  0  0  0  0  0
  -24.9121   -3.7244   29.1788 C   0  0  0  0  0  0  0  0  0  0  0  0
  -26.2201   -4.1648   29.3527 C   0  0  0  0  0  0  0  0  0  0  0  0
  -26.5719   -4.5395   30.6315 C   0  0  0  0  0  0  0  0  0  0  0  0
  -28.1350   -4.5504   30.6853 C   0  0  0  0  0  0  0  0  0  0  0  0
  -28.8092   -3.9017   31.4737 N   0  0  0  0  0  0  0  0  0  0  0  0
  -30.2124   -3.9910   31.5172 C   0  0  0  0  0  0  0  0  0  0  0  0
  -30.7209   -4.7585   30.5231 C   0  0  0  0  0  0  0  0  0  0  0  0
  -30.0553   -5.4329   29.5865 C   0  0  0  0  0  0  0  0  0  0  0  0
  -28.7064   -5.2511   29.6524 C   0  0  0  0  0  0  0  0  0  0  0  0
  -23.2844   -1.8301   29.3785 C   0  0  0  0  0  0  0  0  0  0  0  0
  -23.9128   -4.5081   28.5404 C   0  0  0  0  0  0  0  0  0  0  0  0
  5  7  1  0
  2  8  1  0
  8  9  1  0
  9 16  1  0
 16 17  2  0
 16 18  1  0
  8 19  1  0
 19 20  1  0
 20 21  1  0
 21 22  1  0
 22 23  2  3
 23 24  1  0
 20 30  1  0
 21 31  1  0
  9 10  1  0
  1  2  2  0
  2  3  1  0
  3  4  2  0
  4  5  1  0
  5  6  2  0
  6  1  1  0
 24 25  2  0
 25 26  1  0
 26 27  2  0
 27 28  1  0
 28 29  2  0
 29 24  1  0
 10 11  2  0
 11 12  1  0
 12 13  2  0
 13 14  1  0
 14 15  2  0
 15 10  1  0
M  END

$$$$
