No_3741-gen_results/8p0m/2024-11-26-14-13-15/
     RDKit          3D

 19 21  0  0  0  0  0  0  0  0999 V2000
  -28.0162   -0.8135   28.8779 C   0  0  0  0  0  0  0  0  0  0  0  0
  -27.0636   -0.1189   28.6079 C   0  0  0  0  0  0  0  0  0  0  0  0
  -26.9716    0.7139   27.5060 C   0  0  0  0  0  0  0  0  0  0  0  0
  -28.1053    0.7744   26.6421 C   0  0  0  0  0  0  0  0  0  0  0  0
  -28.0677    1.4872   25.5121 C   0  0  0  0  0  0  0  0  0  0  0  0
  -29.2691   -0.5335   28.2245 C   0  0  0  0  0  0  0  0  0  0  0  0
  -29.2230    0.1355   27.0328 C   0  0  0  0  0  0  0  0  0  0  0  0
  -30.4249    0.2117   26.2149 C   0  0  0  0  0  0  0  0  0  0  0  0
  -30.3953    0.8376   24.9686 C   0  0  0  0  0  0  0  0  0  0  0  0
  -29.1706    1.5666   24.5716 C   0  0  0  0  0  0  0  0  0  0  0  0
  -25.6503    1.3487   27.0849 C   0  0  0  0  0  0  0  0  0  0  0  0
  -24.4983    0.5666   27.0211 C   0  0  0  0  0  0  0  0  0  0  0  0
  -23.2745    1.3280   26.9384 C   0  0  0  0  0  0  0  0  0  0  0  0
  -22.5600    1.6169   27.7435 C   0  0  0  0  0  0  0  0  0  0  0  0
  -22.7575    1.1052   29.1052 C   0  0  0  0  0  0  0  0  0  0  0  0
  -22.8476   -0.2694   29.1560 C   0  0  0  0  0  0  0  0  0  0  0  0
  -24.1231   -0.8889   28.7941 C   0  0  0  0  0  0  0  0  0  0  0  0
  -24.5623   -0.6149   27.4249 O   0  0  0  0  0  0  0  0  0  0  0  0
  -25.7757    2.7847   26.8115 C   0  0  0  0  0  0  0  0  0  0  0  0
  3 11  1  0
 11 12  1  0
 12 13  2  0
 13 14  1  0
 14 15  1  0
 15 16  1  0
 16 17  1  0
 12 18  1  0
 17 18  1  0
 11 19  1  0
  4  5  1  0
  5 10  2  0
 10  9  1  0
  9  8  2  0
  8  7  1  0
  1  2  2  0
  2  3  1  0
  3  4  2  0
  4  7  1  0
  7  6  2  0
  6  1  1  0
M  END

$$$$
