No_3014-gen_results/8p0m/2024-11-26-14-13-15/
     RDKit          3D

 26 28  0  0  0  0  0  0  0  0999 V2000
  -28.0162   -0.8135   28.8779 C   0  0  0  0  0  0  0  0  0  0  0  0
  -28.4690   -0.7850   29.8287 C   0  0  0  0  0  0  0  0  0  0  0  0
  -27.0871    0.2903   28.6377 C   0  0  0  0  0  0  0  0  0  0  0  0
  -26.8317    1.2487   29.5869 C   0  0  0  0  0  0  0  0  0  0  0  0
  -28.3914    0.0801   31.0065 C   0  0  0  0  0  0  0  0  0  0  0  0
  -27.4940    1.1521   30.7841 C   0  0  0  0  0  0  0  0  0  0  0  0
  -26.3172    0.3994   27.3653 C   0  0  0  0  0  0  0  0  0  0  0  0
  -26.8815    0.9711   26.3721 C   0  0  0  0  0  0  0  0  0  0  0  0
  -28.2026    1.4637   26.4214 C   0  0  0  0  0  0  0  0  0  0  0  0
  -28.7510    1.9527   25.1515 C   0  0  0  0  0  0  0  0  0  0  0  0
  -27.9992    1.7656   23.9940 C   0  0  0  0  0  0  0  0  0  0  0  0
  -26.8200    1.1311   23.9824 C   0  0  0  0  0  0  0  0  0  0  0  0
  -26.1901    0.7119   25.1051 C   0  0  0  0  0  0  0  0  0  0  0  0
  -24.9839   -0.1692   27.4539 C   0  0  0  0  0  0  0  0  0  0  0  0
  -23.9627    0.8249   27.8558 C   0  0  0  0  0  0  0  0  0  0  0  0
  -22.9383    0.4124   28.7187 C   0  0  0  0  0  0  0  0  0  0  0  0
  -23.8563    2.1324   27.2760 C   0  0  0  0  0  0  0  0  0  0  0  0
  -23.0376   -0.6342   29.6448 C   0  0  0  0  0  0  0  0  0  0  0  0
  -22.1233   -0.9364   30.1960 F   0  0  0  0  0  0  0  0  0  0  0  0
  -24.0916   -0.2956   30.5009 F   0  0  0  0  0  0  0  0  0  0  0  0
  -23.4201   -1.8263   28.9975 F   0  0  0  0  0  0  0  0  0  0  0  0
  -29.4144   -1.9360   30.1992 N   0  0  0  0  0  0  0  0  0  0  0  0
  -28.8801   -3.1851   30.5734 C   0  0  0  0  0  0  0  0  0  0  0  0
  -29.8429   -4.2754   30.6266 C   0  0  0  0  0  0  0  0  0  0  0  0
  -31.1964   -3.8717   30.5677 C   0  0  0  0  0  0  0  0  0  0  0  0
  -30.7794   -2.0503   30.1127 C   0  0  0  0  0  0  0  0  0  0  0  0
  3  7  1  0
  7 14  1  0
 14 15  1  0
 15 16  2  3
 15 17  1  0
 16 18  1  0
 18 19  1  0
 18 20  1  0
 18 21  1  0
  2 22  1  0
 22 23  1  0
 23 24  2  0
 24 25  1  0
 22 26  1  0
 25 26  2  0
  7  8  1  0
  8  9  2  0
  9 10  1  0
 10 11  2  0
 11 12  1  0
 12 13  2  0
 13  8  1  0
  1  2  2  0
  2  5  1  0
  5  6  2  0
  6  4  1  0
  4  3  2  0
  3  1  1  0
M  END

$$$$
