No_3243-gen_results/8p0m/2024-11-26-14-13-15/
     RDKit          3D

 16 16  0  0  0  0  0  0  0  0999 V2000
  -28.0162   -0.8135   28.8779 C   0  0  0  0  0  0  0  0  0  0  0  0
  -28.4690   -0.7850   29.8287 C   0  0  0  0  0  0  0  0  0  0  0  0
  -26.5455   -0.8762   28.8500 C   0  0  0  0  0  0  0  0  0  0  0  0
  -25.8041   -1.0324   30.0571 C   0  0  0  0  0  0  0  0  0  0  0  0
  -26.5373   -1.0386   31.2171 C   0  0  0  0  0  0  0  0  0  0  0  0
  -27.8843   -0.9532   31.1862 C   0  0  0  0  0  0  0  0  0  0  0  0
  -24.1391   -1.1177   30.0459 Cl  0  0  0  0  0  0  0  0  0  0  0  0
  -30.0640   -0.7738   30.1217 C   0  0  0  0  0  0  0  0  0  0  0  0
  -30.6857   -0.0825   29.4286 O   0  0  0  0  0  0  0  0  0  0  0  0
  -30.6249   -1.5342   30.9941 O   0  0  0  0  0  0  0  0  0  0  0  0
  -25.7786   -0.8303   27.7131 F   0  0  0  0  0  0  0  0  0  0  0  0
  -31.7966    0.2352   29.2932 C   0  0  0  0  0  0  0  0  0  0  0  0
  -32.2043    1.0589   28.3134 C   0  0  0  0  0  0  0  0  0  0  0  0
  -31.5315    1.9248   27.8738 O   0  0  0  0  0  0  0  0  0  0  0  0
  -33.3627    0.8842   27.7301 F   0  0  0  0  0  0  0  0  0  0  0  0
  -32.6705   -0.7458   29.5911 O   0  0  0  0  0  0  0  0  0  0  0  0
  4  7  1  0
  2  8  1  0
  8  9  1  0
  8 10  2  0
  3 11  1  0
  9 12  1  0
 12 13  1  0
 13 14  2  0
 13 15  1  0
 12 16  1  0
  1  2  2  0
  2  6  1  0
  6  5  2  0
  5  4  1  0
  4  3  2  0
  3  1  1  0
M  END

$$$$
