No_3874-gen_results/8p0m/2024-11-26-14-13-15/
     RDKit          3D

 35 38  0  0  0  0  0  0  0  0999 V2000
  -28.1229   -1.3353   28.4874 O   0  0  0  0  0  0  0  0  0  0  0  0
  -27.0637   -0.8242   28.8687 C   0  0  0  0  0  0  0  0  0  0  0  0
  -26.9592    0.0926   29.7582 C   0  0  0  0  0  0  0  0  0  0  0  0
  -25.8011   -1.3566   28.3971 N   0  0  0  0  0  0  0  0  0  0  0  0
  -25.7368    0.7239   30.2099 C   0  0  0  0  0  0  0  0  0  0  0  0
  -24.5490   -0.8600   28.7870 C   0  0  0  0  0  0  0  0  0  0  0  0
  -24.5149    0.1880   29.6985 C   0  0  0  0  0  0  0  0  0  0  0  0
  -23.2206    0.7326   30.0471 C   0  0  0  0  0  0  0  0  0  0  0  0
  -22.1493    0.1095   29.7183 O   0  0  0  0  0  0  0  0  0  0  0  0
  -23.1336    1.5229   31.0883 O   0  0  0  0  0  0  0  0  0  0  0  0
  -28.2019    0.6614   30.3559 C   0  0  0  0  0  0  0  0  0  0  0  0
  -28.8099    0.0434   31.2306 C   0  0  0  0  0  0  0  0  0  0  0  0
  -30.0419    0.5593   31.8812 C   0  0  0  0  0  0  0  0  0  0  0  0
  -30.4850    1.8087   31.4490 C   0  0  0  0  0  0  0  0  0  0  0  0
  -29.7569    2.4704   30.4672 C   0  0  0  0  0  0  0  0  0  0  0  0
  -28.5678    1.9721   29.9355 C   0  0  0  0  0  0  0  0  0  0  0  0
  -30.1815    3.8351   30.0240 C   0  0  0  0  0  0  0  0  0  0  0  0
  -30.1224    4.2199   29.0032 O   0  0  0  0  0  0  0  0  0  0  0  0
  -30.9335    4.4888   31.0138 O   0  0  0  0  0  0  0  0  0  0  0  0
  -31.0474    5.8099   30.8930 C   0  0  0  0  0  0  0  0  0  0  0  0
  -30.1341    6.5995   31.3553 C   0  0  0  0  0  0  0  0  0  0  0  0
  -29.6194    6.3157   32.4081 O   0  0  0  0  0  0  0  0  0  0  0  0
  -29.7218    7.6217   30.6980 O   0  0  0  0  0  0  0  0  0  0  0  0
  -32.4238    6.1505   31.5889 C   0  0  0  0  0  0  0  0  0  0  0  0
  -32.5995    6.0356   32.8515 C   0  0  0  0  0  0  0  0  0  0  0  0
  -33.9000    6.2303   33.3777 C   0  0  0  0  0  0  0  0  0  0  0  0
  -34.0987    6.1167   34.7905 C   0  0  0  0  0  0  0  0  0  0  0  0
  -35.3476    6.3258   35.4048 C   0  0  0  0  0  0  0  0  0  0  0  0
  -36.4197    6.5513   34.5500 C   0  0  0  0  0  0  0  0  0  0  0  0
  -36.2247    6.6136   33.1787 C   0  0  0  0  0  0  0  0  0  0  0  0
  -34.9577    6.4375   32.5857 C   0  0  0  0  0  0  0  0  0  0  0  0
  -37.6155    6.7643   35.0085 F   0  0  0  0  0  0  0  0  0  0  0  0
  -32.8162    5.7371   35.4994 C   0  0  0  0  0  0  0  0  0  0  0  0
  -31.6563    5.5440   34.9378 C   0  0  0  0  0  0  0  0  0  0  0  0
  -31.5216    5.6586   33.7337 C   0  0  0  0  0  0  0  0  0  0  0  0
  1  2  2  0
  2  3  1  0
  2  4  1  0
  3  5  1  0
  5  7  1  0
  6  7  1  0
  7  8  1  0
  8  9  2  0
  8 10  1  0
  3 11  1  0
 15 17  1  0
 17 18  2  0
 17 19  1  0
 19 20  1  0
 20 21  1  0
 21 22  1  0
 21 23  2  0
 20 24  1  0
 24 25  1  0
 29 32  1  0
  6  4  1  0
 27 28  2  0
 28 29  1  0
 29 30  2  0
 30 31  1  0
 31 26  2  0
 11 12  2  0
 12 13  1  0
 13 14  2  0
 14 15  1  0
 15 16  2  0
 16 11  1  0
 25 26  1  0
 26 27  1  0
 27 33  1  0
 33 34  2  0
 34 35  1  0
 35 25  2  0
M  END

$$$$
