No_3684-gen_results/8p0m/2024-11-26-14-13-15/
     RDKit          3D

 35 39  0  0  0  0  0  0  0  0999 V2000
  -28.0162   -0.8135   28.8779 C   0  0  0  0  0  0  0  0  0  0  0  0
  -27.0636   -0.1190   28.6079 C   0  0  0  0  0  0  0  0  0  0  0  0
  -27.0010    0.6913   27.4910 C   0  0  0  0  0  0  0  0  0  0  0  0
  -28.1373    0.7363   26.6350 C   0  0  0  0  0  0  0  0  0  0  0  0
  -29.2360    0.0765   27.0690 C   0  0  0  0  0  0  0  0  0  0  0  0
  -29.2177   -0.6429   28.1747 C   0  0  0  0  0  0  0  0  0  0  0  0
  -30.3516    0.1564   26.2430 N   0  0  0  0  0  0  0  0  0  0  0  0
  -30.2688    0.1234   24.9366 C   0  0  0  0  0  0  0  0  0  0  0  0
  -29.2051    0.9027   24.3928 C   0  0  0  0  0  0  0  0  0  0  0  0
  -27.9190    0.9038   25.1644 C   0  0  0  0  0  0  0  0  0  0  0  0
  -31.6615   -0.1869   26.8161 C   0  0  0  0  0  0  0  0  0  0  0  0
  -32.4411    0.5384   26.5439 O   0  0  0  0  0  0  0  0  0  0  0  0
  -31.7196   -1.0228   27.9009 N   0  0  0  0  0  0  0  0  0  0  0  0
  -30.4512   -1.1469   28.6566 N   0  0  0  0  0  0  0  0  0  0  0  0
  -30.5817   -1.8991   29.9227 C   0  0  0  0  0  0  0  0  0  0  0  0
  -30.6655   -1.1140   31.0286 C   0  0  0  0  0  0  0  0  0  0  0  0
  -30.2383   -1.6395   32.1022 C   0  0  0  0  0  0  0  0  0  0  0  0
  -30.0133   -3.0561   32.2245 C   0  0  0  0  0  0  0  0  0  0  0  0
  -29.8252   -3.7694   31.0298 C   0  0  0  0  0  0  0  0  0  0  0  0
  -30.0631   -3.1014   29.8044 C   0  0  0  0  0  0  0  0  0  0  0  0
  -29.3697   -5.1596   31.0719 C   0  0  0  0  0  0  0  0  0  0  0  0
  -30.1920   -6.0745   31.4887 N   0  0  0  0  0  0  0  0  0  0  0  0
  -30.0423   -6.6381   32.6389 C   0  0  0  0  0  0  0  0  0  0  0  0
  -29.3002   -6.1566   33.6204 C   0  0  0  0  0  0  0  0  0  0  0  0
  -29.2384   -6.8494   34.8914 C   0  0  0  0  0  0  0  0  0  0  0  0
  -29.7678   -8.0691   34.9884 C   0  0  0  0  0  0  0  0  0  0  0  0
  -30.7420   -7.8964   32.7968 C   0  0  0  0  0  0  0  0  0  0  0  0
  -30.6033   -8.5718   34.0201 C   0  0  0  0  0  0  0  0  0  0  0  0
  -31.2440   -6.3895   30.6067 C   0  0  0  0  0  0  0  0  0  0  0  0
  -31.5751   -5.6486   29.6935 C   0  0  0  0  0  0  0  0  0  0  0  0
  -32.6337   -5.8009   29.0205 C   0  0  0  0  0  0  0  0  0  0  0  0
  -33.0754   -4.8842   27.9177 C   0  0  0  0  0  0  0  0  0  0  0  0
  -32.1354   -3.8769   27.6332 C   0  0  0  0  0  0  0  0  0  0  0  0
  -32.6400   -3.0187   26.5523 C   0  0  0  0  0  0  0  0  0  0  0  0
  -33.5923   -3.7349   25.7308 C   0  0  0  0  0  0  0  0  0  0  0  0
  5  7  1  0
  7  8  1  0
  8  9  1  0
  4 10  1  0
  9 10  1  0
  7 11  1  0
 11 12  2  0
 11 13  1  0
  6 14  1  0
 13 14  1  0
 14 15  1  0
 19 21  1  0
 21 22  1  0
 22 23  1  0
 22 29  1  0
 29 30  1  0
 30 31  2  3
 31 32  1  0
 32 33  2  3
 33 34  1  0
 34 35  2  0
 15 16  2  0
 16 17  1  0
 17 18  2  0
 18 19  1  0
 19 20  2  0
 20 15  1  0
  1  2  2  0
  2  3  1  0
  3  4  2  0
  4  5  1  0
  5  6  2  0
  6  1  1  0
 23 24  2  0
 24 25  1  0
 25 26  2  0
 26 28  1  0
 28 27  2  0
 27 23  1  0
M  END

$$$$
