No_3634-gen_results/8p0m/2024-11-26-14-13-15/
     RDKit          3D

 31 34  0  0  0  0  0  0  0  0999 V2000
  -28.0162   -0.8135   28.8779 C   0  0  0  0  0  0  0  0  0  0  0  0
  -28.4690   -0.7850   29.8287 C   0  0  0  0  0  0  0  0  0  0  0  0
  -28.1816    0.4277   28.1134 C   0  0  0  0  0  0  0  0  0  0  0  0
  -27.4498    0.6435   26.8500 C   0  0  0  0  0  0  0  0  0  0  0  0
  -27.8596    1.4573   25.9076 C   0  0  0  0  0  0  0  0  0  0  0  0
  -29.4263    0.1097   30.4178 C   0  0  0  0  0  0  0  0  0  0  0  0
  -29.6233    1.2198   29.7351 C   0  0  0  0  0  0  0  0  0  0  0  0
  -28.9609    1.4529   28.5513 C   0  0  0  0  0  0  0  0  0  0  0  0
  -27.1733    1.5743   24.7028 C   0  0  0  0  0  0  0  0  0  0  0  0
  -26.0892    0.7468   24.4126 C   0  0  0  0  0  0  0  0  0  0  0  0
  -25.6364   -0.1191   25.3972 C   0  0  0  0  0  0  0  0  0  0  0  0
  -26.2807   -0.2063   26.5817 C   0  0  0  0  0  0  0  0  0  0  0  0
  -30.4549    2.2210   30.2334 O   0  0  0  0  0  0  0  0  0  0  0  0
  -30.3480    2.7243   31.3805 C   0  0  0  0  0  0  0  0  0  0  0  0
  -30.6455    3.9106   31.6650 C   0  0  0  0  0  0  0  0  0  0  0  0
  -31.1513    4.8223   30.7172 C   0  0  0  0  0  0  0  0  0  0  0  0
  -31.4330    6.2058   30.9990 C   0  0  0  0  0  0  0  0  0  0  0  0
  -31.8996    7.0839   29.9915 C   0  0  0  0  0  0  0  0  0  0  0  0
  -32.1869    8.4352   30.2461 C   0  0  0  0  0  0  0  0  0  0  0  0
  -32.0030    8.8609   31.5771 C   0  0  0  0  0  0  0  0  0  0  0  0
  -31.5658    8.0151   32.5573 C   0  0  0  0  0  0  0  0  0  0  0  0
  -31.2330    6.6374   32.2925 C   0  0  0  0  0  0  0  0  0  0  0  0
  -30.8153    5.8378   33.2094 N   0  0  0  0  0  0  0  0  0  0  0  0
  -30.4757    4.5091   32.9647 C   0  0  0  0  0  0  0  0  0  0  0  0
  -30.1819    3.4704   34.3099 Cl  0  0  0  0  0  0  0  0  0  0  0  0
  -32.3205   10.2753   31.8750 C   0  0  0  0  0  0  0  0  0  0  0  0
  -31.9446   10.7537   32.8841 O   0  0  0  0  0  0  0  0  0  0  0  0
  -33.1597   10.8577   31.0670 O   0  0  0  0  0  0  0  0  0  0  0  0
  -28.3420   -2.1197   30.7396 C   0  0  0  0  0  0  0  0  0  0  0  0
  -27.6466   -2.9903   30.3583 O   0  0  0  0  0  0  0  0  0  0  0  0
  -28.9545   -2.1348   31.8654 O   0  0  0  0  0  0  0  0  0  0  0  0
  3  4  1  0
  7 13  1  0
 13 14  1  0
 24 25  1  0
 20 26  1  0
 26 27  2  0
 26 28  1  0
  2 29  1  0
 29 30  2  0
 29 31  1  0
 14 15  1  0
 17 18  2  0
 18 19  1  0
 19 20  2  0
 20 21  1  0
 21 22  2  0
 15 16  2  0
 16 17  1  0
 17 22  1  0
 22 23  1  0
 23 24  2  0
 24 15  1  0
  4  5  2  0
  5  9  1  0
  9 10  2  0
 10 11  1  0
 11 12  2  0
 12  4  1  0
  1  2  2  0
  2  6  1  0
  6  7  2  0
  7  8  1  0
  8  3  2  0
  3  1  1  0
M  END

$$$$
