No_3064-gen_results/8p0m/2024-11-26-14-13-15/
     RDKit          3D

 27 28  0  0  0  0  0  0  0  0999 V2000
  -28.0162   -0.8135   28.8779 C   0  0  0  0  0  0  0  0  0  0  0  0
  -27.0636   -0.1189   28.6079 C   0  0  0  0  0  0  0  0  0  0  0  0
  -26.9716    0.7139   27.5060 C   0  0  0  0  0  0  0  0  0  0  0  0
  -28.1053    0.7744   26.6421 C   0  0  0  0  0  0  0  0  0  0  0  0
  -29.2008    0.1044   27.0527 C   0  0  0  0  0  0  0  0  0  0  0  0
  -29.2096   -0.6029   28.1853 C   0  0  0  0  0  0  0  0  0  0  0  0
  -30.3702    0.2264   26.1604 C   0  0  0  0  0  0  0  0  0  0  0  0
  -31.2210   -0.4630   26.3096 O   0  0  0  0  0  0  0  0  0  0  0  0
  -30.5607    1.2740   25.4131 O   0  0  0  0  0  0  0  0  0  0  0  0
  -25.6972   -0.2253   29.4237 C   0  0  0  0  0  0  0  0  0  0  0  0
  -25.5583   -1.1937   30.0916 F   0  0  0  0  0  0  0  0  0  0  0  0
  -25.6402    0.8680   30.2961 F   0  0  0  0  0  0  0  0  0  0  0  0
  -24.6085   -0.0024   28.6393 F   0  0  0  0  0  0  0  0  0  0  0  0
  -28.1549   -1.8534   30.3081 Cl  0  0  0  0  0  0  0  0  0  0  0  0
  -27.9820    1.5687   25.6214 O   0  0  0  0  0  0  0  0  0  0  0  0
  -27.1429    1.1643   24.7372 C   0  0  0  0  0  0  0  0  0  0  0  0
  -31.9103   -1.1510   25.2250 C   0  0  0  0  0  0  0  0  0  0  0  0
  -33.2505   -1.5293   25.5559 C   0  0  0  0  0  0  0  0  0  0  0  0
  -33.3944   -1.5530   27.0107 C   0  0  0  0  0  0  0  0  0  0  0  0
  -33.7126   -0.4258   27.6246 C   0  0  0  0  0  0  0  0  0  0  0  0
  -34.2930    0.6281   26.9915 C   0  0  0  0  0  0  0  0  0  0  0  0
  -34.4781    1.8926   27.6729 C   0  0  0  0  0  0  0  0  0  0  0  0
  -34.0724    1.9330   29.0501 C   0  0  0  0  0  0  0  0  0  0  0  0
  -33.4972    1.1104   29.4946 C   0  0  0  0  0  0  0  0  0  0  0  0
  -33.1928   -0.2215   28.9553 C   0  0  0  0  0  0  0  0  0  0  0  0
  -30.9698   -2.3310   24.8866 C   0  0  0  0  0  0  0  0  0  0  0  0
  -31.9617   -0.2088   23.9939 C   0  0  0  0  0  0  0  0  0  0  0  0
  5  7  1  0
  7  8  1  0
  7  9  2  0
  2 10  1  0
 10 11  1  0
 10 12  1  0
 10 13  1  0
  1 14  1  0
  4 15  1  0
 15 16  1  0
  8 17  1  0
 17 18  1  0
 18 19  1  0
 17 26  1  0
 17 27  1  0
 19 20  1  0
  1  2  2  0
  2  3  1  0
  3  4  2  0
  4  5  1  0
  5  6  2  0
  6  1  1  0
 20 21  2  0
 21 22  1  0
 22 23  2  0
 23 24  1  0
 24 25  2  0
 25 20  1  0
M  END

$$$$
