No_3891-gen_results/8p0m/2024-11-26-14-13-15/
     RDKit          3D

 10 11  0  0  0  0  0  0  0  0999 V2000
  -28.0162   -0.8135   28.8779 C   0  0  0  0  0  0  0  0  0  0  0  0
  -27.0636   -0.1189   28.6079 C   0  0  0  0  0  0  0  0  0  0  0  0
  -27.0010    0.6913   27.4910 C   0  0  0  0  0  0  0  0  0  0  0  0
  -28.1420    0.8282   26.7994 C   0  0  0  0  0  0  0  0  0  0  0  0
  -27.9310   -1.6069   30.1504 C   0  0  0  0  0  0  0  0  0  0  0  0
  -26.7094   -1.7845   30.7448 C   0  0  0  0  0  0  0  0  0  0  0  0
  -25.5731   -1.1815   30.3081 C   0  0  0  0  0  0  0  0  0  0  0  0
  -25.6842   -0.3065   29.2345 C   0  0  0  0  0  0  0  0  0  0  0  0
  -29.2570    0.2927   27.3428 C   0  0  0  0  0  0  0  0  0  0  0  0
  -29.2234   -0.5191   28.4053 N   0  0  0  0  0  0  0  0  0  0  0  0
  2  3  2  0
  3  4  1  0
  4  9  2  0
  9 10  1  0
 10  1  2  0
  1  2  1  0
  2  8  1  0
  8  7  2  0
  7  6  1  0
  6  5  2  0
  5  1  1  0
M  END

$$$$
