No_3482-gen_results/8p0m/2024-11-26-14-13-15/
     RDKit          3D

 14 14  0  0  0  0  0  0  0  0999 V2000
  -28.0162   -0.8135   28.8779 C   0  0  0  0  0  0  0  0  0  0  0  0
  -28.4690   -0.7850   29.8287 C   0  0  0  0  0  0  0  0  0  0  0  0
  -27.0871    0.2903   28.6377 C   0  0  0  0  0  0  0  0  0  0  0  0
  -26.0238    0.3644   29.2526 C   0  0  0  0  0  0  0  0  0  0  0  0
  -27.5370   -0.6187   31.0883 C   0  0  0  0  0  0  0  0  0  0  0  0
  -26.3844    0.1834   30.8012 C   0  0  0  0  0  0  0  0  0  0  0  0
  -29.5100   -1.6195   30.2653 O   0  0  0  0  0  0  0  0  0  0  0  0
  -30.7241   -1.2384   29.8510 C   0  0  0  0  0  0  0  0  0  0  0  0
  -31.5691   -2.3374   29.6640 C   0  0  0  0  0  0  0  0  0  0  0  0
  -32.1555   -2.4189   28.5623 O   0  0  0  0  0  0  0  0  0  0  0  0
  -31.7348   -3.3727   30.5340 N   0  0  0  0  0  0  0  0  0  0  0  0
  -32.5235   -4.5272   30.3035 C   0  0  0  0  0  0  0  0  0  0  0  0
  -24.7310    0.1503   29.1267 C   0  0  0  0  0  0  0  0  0  0  0  0
  -23.7331    0.5324   29.2240 C   0  0  0  0  0  0  0  0  0  0  0  0
  2  7  1  0
  7  8  1  0
  8  9  1  0
  9 10  2  0
  9 11  1  0
 11 12  1  0
  4 13  1  0
 13 14  3  0
  1  2  2  0
  2  5  1  0
  5  6  2  0
  6  4  1  0
  4  3  2  0
  3  1  1  0
M  END

$$$$
