No_3171-gen_results/8p0m/2024-11-26-14-13-15/
     RDKit          3D

 35 37  0  0  0  0  0  0  0  0999 V2000
  -28.0162   -0.8135   28.8779 C   0  0  0  0  0  0  0  0  0  0  0  0
  -28.4690   -0.7850   29.8287 C   0  0  0  0  0  0  0  0  0  0  0  0
  -26.5042   -0.7777   28.8766 C   0  0  0  0  0  0  0  0  0  0  0  0
  -25.8103   -0.8531   30.1028 C   0  0  0  0  0  0  0  0  0  0  0  0
  -27.9906   -0.8916   31.2257 C   0  0  0  0  0  0  0  0  0  0  0  0
  -26.6042   -0.8676   31.2652 C   0  0  0  0  0  0  0  0  0  0  0  0
  -24.3894   -0.8049   30.1638 C   0  0  0  0  0  0  0  0  0  0  0  0
  -23.8172    0.4762   29.9118 C   0  0  0  0  0  0  0  0  0  0  0  0
  -24.1955    1.5984   30.1917 C   0  0  0  0  0  0  0  0  0  0  0  0
  -24.3461    2.6026   29.7471 C   0  0  0  0  0  0  0  0  0  0  0  0
  -24.7059    2.7882   28.5761 C   0  0  0  0  0  0  0  0  0  0  0  0
  -24.8352    4.0479   27.9159 C   0  0  0  0  0  0  0  0  0  0  0  0
  -25.7061    4.5596   27.5417 C   0  0  0  0  0  0  0  0  0  0  0  0
  -25.6694    5.9504   27.1375 C   0  0  0  0  0  0  0  0  0  0  0  0
  -25.7215    7.0406   27.4008 C   0  0  0  0  0  0  0  0  0  0  0  0
  -26.3342    7.3673   28.7092 C   0  0  0  0  0  0  0  0  0  0  0  0
  -26.3414    8.7201   29.1215 C   0  0  0  0  0  0  0  0  0  0  0  0
  -26.8990    9.1059   30.3836 C   0  0  0  0  0  0  0  0  0  0  0  0
  -27.4219    8.0518   31.1698 C   0  0  0  0  0  0  0  0  0  0  0  0
  -27.3590    6.7523   30.7944 C   0  0  0  0  0  0  0  0  0  0  0  0
  -26.7475    6.3887   29.5820 C   0  0  0  0  0  0  0  0  0  0  0  0
  -22.6821    0.3442   28.9519 C   0  0  0  0  0  0  0  0  0  0  0  0
  -21.8444   -0.7339   29.1231 N   0  0  0  0  0  0  0  0  0  0  0  0
  -22.3423    1.2464   28.2037 O   0  0  0  0  0  0  0  0  0  0  0  0
  -25.7398   -0.7108   27.6287 C   0  0  0  0  0  0  0  0  0  0  0  0
  -30.0907   -0.8073   29.8215 C   0  0  0  0  0  0  0  0  0  0  0  0
  -30.5192   -0.3363   28.8599 O   0  0  0  0  0  0  0  0  0  0  0  0
  -30.7773   -1.2893   30.7714 O   0  0  0  0  0  0  0  0  0  0  0  0
  -27.0128    4.0361   27.4599 C   0  0  0  0  0  0  0  0  0  0  0  0
  -27.1678    3.0162   26.4634 C   0  0  0  0  0  0  0  0  0  0  0  0
  -28.0270    3.1836   25.6182 C   0  0  0  0  0  0  0  0  0  0  0  0
  -28.3421    2.1452   24.6069 C   0  0  0  0  0  0  0  0  0  0  0  0
  -27.5857    1.0004   24.6414 C   0  0  0  0  0  0  0  0  0  0  0  0
  -26.5665    0.8542   25.5555 C   0  0  0  0  0  0  0  0  0  0  0  0
  -26.3388    1.8518   26.5163 C   0  0  0  0  0  0  0  0  0  0  0  0
  4  7  1  0
  7  8  1  0
  8  9  2  3
  9 10  1  0
 10 11  2  3
 11 12  1  0
 12 13  2  3
 13 14  1  0
 14 15  2  3
 15 16  1  0
  8 22  1  0
 22 23  1  0
 22 24  2  0
  3 25  1  0
  2 26  1  0
 26 27  2  0
 26 28  1  0
 13 29  1  0
 29 30  1  0
 30 31  2  0
 31 32  1  0
 32 33  2  0
 33 34  1  0
 34 35  2  0
 35 30  1  0
  1  2  2  0
  2  5  1  0
  5  6  2  0
  6  4  1  0
  4  3  2  0
  3  1  1  0
 16 17  2  0
 17 18  1  0
 18 19  2  0
 19 20  1  0
 20 21  2  0
 21 16  1  0
M  END

$$$$
