No_3476-gen_results/8p0m/2024-11-26-14-13-15/
     RDKit          3D

 25 27  0  0  0  0  0  0  0  0999 V2000
  -28.0162   -0.8135   28.8779 C   0  0  0  0  0  0  0  0  0  0  0  0
  -27.0636   -0.1189   28.6079 C   0  0  0  0  0  0  0  0  0  0  0  0
  -25.7647   -0.3897   29.0360 C   0  0  0  0  0  0  0  0  0  0  0  0
  -25.5296   -1.5302   29.9014 C   0  0  0  0  0  0  0  0  0  0  0  0
  -26.6888   -2.2893   30.1810 C   0  0  0  0  0  0  0  0  0  0  0  0
  -27.8727   -1.9508   29.7373 C   0  0  0  0  0  0  0  0  0  0  0  0
  -28.9304   -2.7298   30.1154 O   0  0  0  0  0  0  0  0  0  0  0  0
  -24.5394    0.4211   28.7421 C   0  0  0  0  0  0  0  0  0  0  0  0
  -23.3459    0.1143   29.1690 C   0  0  0  0  0  0  0  0  0  0  0  0
  -22.1936    0.8740   28.7553 C   0  0  0  0  0  0  0  0  0  0  0  0
  -22.3615    1.8342   27.6952 C   0  0  0  0  0  0  0  0  0  0  0  0
  -24.3953    1.2356   27.5168 C   0  0  0  0  0  0  0  0  0  0  0  0
  -23.4591    2.0021   27.1632 C   0  0  0  0  0  0  0  0  0  0  0  0
  -23.6340    2.9613   26.0377 C   0  0  0  0  0  0  0  0  0  0  0  0
  -29.3151   -2.7435   31.4459 C   0  0  0  0  0  0  0  0  0  0  0  0
  -30.6889   -2.6100   31.6219 C   0  0  0  0  0  0  0  0  0  0  0  0
  -31.4382   -2.2556   30.6241 C   0  0  0  0  0  0  0  0  0  0  0  0
  -32.5943   -2.4182   30.6281 O   0  0  0  0  0  0  0  0  0  0  0  0
  -30.9695   -1.6675   29.5889 O   0  0  0  0  0  0  0  0  0  0  0  0
  -31.2503   -3.8490   32.3232 N   0  0  0  0  0  0  0  0  0  0  0  0
  -30.4371   -4.6013   33.0020 C   0  0  0  0  0  0  0  0  0  0  0  0
  -32.5625   -4.1906   32.3467 C   0  0  0  0  0  0  0  0  0  0  0  0
  -33.1256   -4.5316   33.1309 C   0  0  0  0  0  0  0  0  0  0  0  0
  -30.9880   -5.5409   33.9892 C   0  0  0  0  0  0  0  0  0  0  0  0
  -32.4064   -5.5373   34.0484 C   0  0  0  0  0  0  0  0  0  0  0  0
  6  7  1  0
  3  8  1  0
 13 14  1  0
  7 15  1  0
 15 16  1  0
 16 17  1  0
 17 18  2  0
 17 19  1  0
 16 20  1  0
 20 21  1  0
 20 22  1  0
 23 25  1  0
 24 25  1  0
 21 24  1  0
 23 22  1  0
  1  2  2  0
  2  3  1  0
  3  4  2  0
  4  5  1  0
  5  6  2  0
  6  1  1  0
  8  9  2  0
  9 10  1  0
 10 11  2  0
 11 13  1  0
 13 12  2  0
 12  8  1  0
M  END

$$$$
