No_3876-gen_results/8p0m/2024-11-26-14-13-15/
     RDKit          3D

 35 38  0  0  0  0  0  0  0  0999 V2000
  -28.0162   -0.8135   28.8779 C   0  0  0  0  0  0  0  0  0  0  0  0
  -27.0636   -0.1189   28.6079 C   0  0  0  0  0  0  0  0  0  0  0  0
  -25.7923   -0.4302   29.0761 C   0  0  0  0  0  0  0  0  0  0  0  0
  -25.5756   -1.5654   29.9363 C   0  0  0  0  0  0  0  0  0  0  0  0
  -26.7354   -2.3004   30.2173 C   0  0  0  0  0  0  0  0  0  0  0  0
  -27.9184   -1.9537   29.7629 C   0  0  0  0  0  0  0  0  0  0  0  0
  -27.1057    1.1023   27.7593 C   0  0  0  0  0  0  0  0  0  0  0  0
  -26.1219    1.4820   27.0232 C   0  0  0  0  0  0  0  0  0  0  0  0
  -24.7142    1.1299   27.4889 C   0  0  0  0  0  0  0  0  0  0  0  0
  -24.5718    0.0966   28.4066 C   0  0  0  0  0  0  0  0  0  0  0  0
  -23.5495    1.7790   26.9027 C   0  0  0  0  0  0  0  0  0  0  0  0
  -22.4536    1.9030   27.6175 N   0  0  0  0  0  0  0  0  0  0  0  0
  -23.5345    2.2077   25.5484 C   0  0  0  0  0  0  0  0  0  0  0  0
  -29.0839   -2.7162   30.2574 C   0  0  0  0  0  0  0  0  0  0  0  0
  -30.1918   -2.2526   30.3285 N   0  0  0  0  0  0  0  0  0  0  0  0
  -28.9087   -3.9449   30.6047 O   0  0  0  0  0  0  0  0  0  0  0  0
  -31.4143   -2.9861   30.7506 C   0  0  0  0  0  0  0  0  0  0  0  0
  -32.4473   -2.3928   30.8882 C   0  0  0  0  0  0  0  0  0  0  0  0
  -32.5651   -1.2260   30.3587 C   0  0  0  0  0  0  0  0  0  0  0  0
  -31.5821   -0.3723   29.8547 C   0  0  0  0  0  0  0  0  0  0  0  0
  -30.4054   -0.8868   29.8993 C   0  0  0  0  0  0  0  0  0  0  0  0
  -22.2721    2.6976   25.1301 C   0  0  0  0  0  0  0  0  0  0  0  0
  -22.4375    1.5726   28.9398 C   0  0  0  0  0  0  0  0  0  0  0  0
  -28.3455    1.5138   27.4317 O   0  0  0  0  0  0  0  0  0  0  0  0
  -28.8676    1.5862   26.2621 C   0  0  0  0  0  0  0  0  0  0  0  0
  -30.1178    1.2598   26.1137 C   0  0  0  0  0  0  0  0  0  0  0  0
  -31.0019    1.6035   26.9901 N   0  0  0  0  0  0  0  0  0  0  0  0
  -30.8710    2.4310   27.8450 C   0  0  0  0  0  0  0  0  0  0  0  0
  -32.4145    0.9980   26.8696 C   0  0  0  0  0  0  0  0  0  0  0  0
  -30.4543    0.3674   25.1904 O   0  0  0  0  0  0  0  0  0  0  0  0
  -21.4506    2.0416   25.1216 N   0  0  0  0  0  0  0  0  0  0  0  0
  -32.0267    3.2896   28.3191 C   0  0  0  0  0  0  0  0  0  0  0  0
  -33.4653    1.9145   27.1077 C   0  0  0  0  0  0  0  0  0  0  0  0
  -33.3267    2.7690   28.2708 C   0  0  0  0  0  0  0  0  0  0  0  0
  -31.7711    4.4517   29.2582 C   0  0  0  0  0  0  0  0  0  0  0  0
  9 11  1  0
 11 12  2  3
 11 13  1  0
  6 14  1  0
 14 15  1  0
 14 16  2  0
 15 17  1  0
 17 18  1  0
 19 20  1  0
 15 21  1  0
 13 22  1  0
 12 23  1  0
  7 24  1  0
 24 25  1  0
 25 26  1  0
 26 27  1  0
 27 28  1  0
 27 29  1  0
 26 30  2  0
 22 31  1  0
 29 33  1  0
 32 34  1  0
 32 35  1  0
 28 32  1  0
 34 33  1  0
 18 19  1  0
 20 21  1  0
  1  2  2  0
  3  4  2  0
  4  5  1  0
  5  6  2  0
  6  1  1  0
  2  3  1  0
  3 10  1  0
 10  9  2  0
  9  8  1  0
  8  7  2  0
  7  2  1  0
M  END

$$$$
