No_335-gen_results/8p0m/2024-11-26-14-13-15/
     RDKit          3D

 19 20  0  0  0  0  0  0  0  0999 V2000
  -28.0162   -0.8135   28.8779 C   0  0  0  0  0  0  0  0  0  0  0  0
  -28.4690   -0.7850   29.8287 C   0  0  0  0  0  0  0  0  0  0  0  0
  -28.1816    0.4277   28.1134 C   0  0  0  0  0  0  0  0  0  0  0  0
  -28.9841    1.4155   28.5154 C   0  0  0  0  0  0  0  0  0  0  0  0
  -29.3802    0.1384   30.4612 C   0  0  0  0  0  0  0  0  0  0  0  0
  -29.5415    1.2736   29.7242 C   0  0  0  0  0  0  0  0  0  0  0  0
  -27.3453    0.3423   26.8640 C   0  0  0  0  0  0  0  0  0  0  0  0
  -26.3447    1.4269   26.7580 C   0  0  0  0  0  0  0  0  0  0  0  0
  -25.0840    1.1071   26.3139 C   0  0  0  0  0  0  0  0  0  0  0  0
  -24.0562    2.1316   26.2847 C   0  0  0  0  0  0  0  0  0  0  0  0
  -24.3684    3.3631   26.7901 C   0  0  0  0  0  0  0  0  0  0  0  0
  -26.4490    2.7605   27.2561 C   0  0  0  0  0  0  0  0  0  0  0  0
  -25.5428    3.7000   27.2180 C   0  0  0  0  0  0  0  0  0  0  0  0
  -25.7528    5.0920   27.7064 C   0  0  0  0  0  0  0  0  0  0  0  0
  -25.5354    5.4432   28.8837 C   0  0  0  0  0  0  0  0  0  0  0  0
  -25.9330    4.6417   29.9978 C   0  0  0  0  0  0  0  0  0  0  0  0
  -25.3491    4.9964   31.1438 F   0  0  0  0  0  0  0  0  0  0  0  0
  -26.2918    3.5266   29.9388 F   0  0  0  0  0  0  0  0  0  0  0  0
  -28.2879   -2.2955   30.9091 Cl  0  0  0  0  0  0  0  0  0  0  0  0
  3  7  1  0
  7  8  1  0
 13 14  1  0
 14 15  1  0
 15 16  1  0
 16 17  1  0
 16 18  1  0
  2 19  1  0
  1  2  2  0
  2  5  1  0
  5  6  2  0
  6  4  1  0
  4  3  2  0
  3  1  1  0
  8  9  2  0
  9 10  1  0
 10 11  2  0
 11 13  1  0
 13 12  2  0
 12  8  1  0
M  END

$$$$
