No_3366-gen_results/8p0m/2024-11-26-14-13-15/
     RDKit          3D

 15 17  0  0  0  0  0  0  0  0999 V2000
  -28.0162   -0.8135   28.8779 C   0  0  0  0  0  0  0  0  0  0  0  0
  -27.0636   -0.1189   28.6079 C   0  0  0  0  0  0  0  0  0  0  0  0
  -27.0010    0.6913   27.4910 C   0  0  0  0  0  0  0  0  0  0  0  0
  -25.8548    1.4825   27.0830 C   0  0  0  0  0  0  0  0  0  0  0  0
  -24.6901    1.4526   27.8807 C   0  0  0  0  0  0  0  0  0  0  0  0
  -24.7379    0.6010   29.0416 C   0  0  0  0  0  0  0  0  0  0  0  0
  -25.8234   -0.1688   29.3887 C   0  0  0  0  0  0  0  0  0  0  0  0
  -29.2455   -0.0678   29.1937 C   0  0  0  0  0  0  0  0  0  0  0  0
  -30.3313   -0.8312   29.6878 C   0  0  0  0  0  0  0  0  0  0  0  0
  -30.1233   -2.1444   30.1042 C   0  0  0  0  0  0  0  0  0  0  0  0
  -28.8969   -2.7444   30.1226 C   0  0  0  0  0  0  0  0  0  0  0  0
  -27.8154   -2.0612   29.6136 C   0  0  0  0  0  0  0  0  0  0  0  0
  -26.4693   -2.5987   29.7365 C   0  0  0  0  0  0  0  0  0  0  0  0
  -25.3747   -1.6326   29.6363 C   0  0  0  0  0  0  0  0  0  0  0  0
  -23.3351    2.4085   27.5290 Cl  0  0  0  0  0  0  0  0  0  0  0  0
  5 15  1  0
  2  3  2  0
  3  4  1  0
  4  5  2  0
  5  6  1  0
  6  7  2  0
  1  2  1  0
  2  7  1  0
  7 14  1  0
 14 13  2  0
 13 12  1  0
  1  8  2  0
  8  9  1  0
  9 10  2  0
 10 11  1  0
 11 12  2  0
 12  1  1  0
M  END

$$$$
