No_380-gen_results/8p0m/2024-11-26-14-13-15/
     RDKit          3D

 27 28  0  0  0  0  0  0  0  0999 V2000
  -28.0162   -0.8135   28.8779 C   0  0  0  0  0  0  0  0  0  0  0  0
  -27.0636   -0.1189   28.6079 C   0  0  0  0  0  0  0  0  0  0  0  0
  -25.7923   -0.4302   29.0761 C   0  0  0  0  0  0  0  0  0  0  0  0
  -24.5456    0.3494   28.8225 C   0  0  0  0  0  0  0  0  0  0  0  0
  -24.6586    1.4196   27.8878 C   0  0  0  0  0  0  0  0  0  0  0  0
  -25.9471    1.6811   27.3792 C   0  0  0  0  0  0  0  0  0  0  0  0
  -27.0439    0.9739   27.6871 C   0  0  0  0  0  0  0  0  0  0  0  0
  -27.9517   -1.7518   29.9375 N   0  0  0  0  0  0  0  0  0  0  0  0
  -29.1108   -0.7488   28.3347 O   0  0  0  0  0  0  0  0  0  0  0  0
  -29.0453   -2.6075   30.3999 C   0  0  0  0  0  0  0  0  0  0  0  0
  -23.4628    2.1700   27.6032 C   0  0  0  0  0  0  0  0  0  0  0  0
  -23.6359    3.3151   27.2131 F   0  0  0  0  0  0  0  0  0  0  0  0
  -22.6557    1.5343   26.6317 F   0  0  0  0  0  0  0  0  0  0  0  0
  -22.6390    2.2963   28.6912 F   0  0  0  0  0  0  0  0  0  0  0  0
  -29.5102   -2.1459   31.5912 C   0  0  0  0  0  0  0  0  0  0  0  0
  -28.9697   -1.4745   32.2592 O   0  0  0  0  0  0  0  0  0  0  0  0
  -30.6062   -2.8959   32.0498 N   0  0  0  0  0  0  0  0  0  0  0  0
  -31.2740   -2.5179   33.3656 C   0  0  0  0  0  0  0  0  0  0  0  0
  -31.3231   -3.9107   31.3254 C   0  0  0  0  0  0  0  0  0  0  0  0
  -29.2276   -3.5591   29.6821 O   0  0  0  0  0  0  0  0  0  0  0  0
  -31.9681   -1.8514   33.7829 C   0  0  0  0  0  0  0  0  0  0  0  0
  -32.6878   -0.8747   32.8951 C   0  0  0  0  0  0  0  0  0  0  0  0
  -33.5351    0.0460   33.4231 C   0  0  0  0  0  0  0  0  0  0  0  0
  -33.7735   -0.0044   34.8091 C   0  0  0  0  0  0  0  0  0  0  0  0
  -33.1761   -0.8424   35.6563 C   0  0  0  0  0  0  0  0  0  0  0  0
  -32.2331   -1.7291   35.2138 C   0  0  0  0  0  0  0  0  0  0  0  0
  -30.7761   -3.6282   34.2260 N   0  0  0  0  0  0  0  0  0  0  0  0
  1  2  1  0
  1  8  1  0
  1  9  2  0
  8 10  1  0
  5 11  1  0
 11 12  1  0
 11 13  1  0
 11 14  1  0
 10 15  1  0
 15 16  2  0
 15 17  1  0
 17 18  1  0
 17 19  1  0
 10 20  2  0
 18 21  1  0
 18 27  2  0
  2  3  2  0
  3  4  1  0
  4  5  2  0
  5  6  1  0
  6  7  2  0
  7  2  1  0
 21 22  2  0
 22 23  1  0
 23 24  2  0
 24 25  1  0
 25 26  2  0
 26 21  1  0
M  END

$$$$
