No_3849-gen_results/8p0m/2024-11-26-14-13-15/
     RDKit          3D

 24 27  0  0  0  0  0  0  0  0999 V2000
  -28.0162   -0.8135   28.8779 C   0  0  0  0  0  0  0  0  0  0  0  0
  -27.0636   -0.1190   28.6079 C   0  0  0  0  0  0  0  0  0  0  0  0
  -25.7923   -0.4302   29.0761 C   0  0  0  0  0  0  0  0  0  0  0  0
  -24.5456    0.3494   28.8225 C   0  0  0  0  0  0  0  0  0  0  0  0
  -23.2409    0.0217   29.3323 C   0  0  0  0  0  0  0  0  0  0  0  0
  -23.1926   -1.2816   29.8967 C   0  0  0  0  0  0  0  0  0  0  0  0
  -27.8703   -1.9138   29.8642 C   0  0  0  0  0  0  0  0  0  0  0  0
  -26.6310   -2.3256   30.2990 C   0  0  0  0  0  0  0  0  0  0  0  0
  -25.5115   -1.5728   29.9655 C   0  0  0  0  0  0  0  0  0  0  0  0
  -24.2124   -1.9703   30.3280 C   0  0  0  0  0  0  0  0  0  0  0  0
  -24.5933    1.5941   27.9969 C   0  0  0  0  0  0  0  0  0  0  0  0
  -23.6636    1.7009   26.9977 C   0  0  0  0  0  0  0  0  0  0  0  0
  -25.4619    2.5872   28.3019 C   0  0  0  0  0  0  0  0  0  0  0  0
  -25.6618    3.6555   27.4638 C   0  0  0  0  0  0  0  0  0  0  0  0
  -23.7339    2.8226   26.1191 C   0  0  0  0  0  0  0  0  0  0  0  0
  -24.6682    3.8538   26.3900 C   0  0  0  0  0  0  0  0  0  0  0  0
  -29.0223   -2.5918   30.1526 O   0  0  0  0  0  0  0  0  0  0  0  0
  -28.9784   -3.7573   30.7938 C   0  0  0  0  0  0  0  0  0  0  0  0
  -30.3152   -4.2839   31.0565 C   0  0  0  0  0  0  0  0  0  0  0  0
  -30.3871   -5.5331   31.5068 C   0  0  0  0  0  0  0  0  0  0  0  0
  -31.6454   -6.1614   31.6907 C   0  0  0  0  0  0  0  0  0  0  0  0
  -32.8176   -5.4692   31.3825 C   0  0  0  0  0  0  0  0  0  0  0  0
  -32.7109   -4.2093   30.9089 C   0  0  0  0  0  0  0  0  0  0  0  0
  -31.4585   -3.5943   30.7131 C   0  0  0  0  0  0  0  0  0  0  0  0
  4 11  1  0
  7 17  1  0
 17 18  1  0
 18 19  1  0
 11 12  2  0
 12 15  1  0
 15 16  2  0
 16 14  1  0
 14 13  2  0
 13 11  1  0
  1  2  2  0
  2  3  1  0
  9  8  1  0
  8  7  2  0
  7  1  1  0
 19 20  2  0
 20 21  1  0
 21 22  2  0
 22 23  1  0
 23 24  2  0
 24 19  1  0
  3  4  2  0
  4  5  1  0
  5  6  2  0
  6 10  1  0
 10  9  2  0
  9  3  1  0
M  END

$$$$
