No_3318-gen_results/8p0m/2024-11-26-14-13-15/
     RDKit          3D

 16 17  0  0  0  0  0  0  0  0999 V2000
  -28.0162   -0.8135   28.8779 C   0  0  0  0  0  0  0  0  0  0  0  0
  -28.4690   -0.7850   29.8287 C   0  0  0  0  0  0  0  0  0  0  0  0
  -28.1816    0.4277   28.1134 C   0  0  0  0  0  0  0  0  0  0  0  0
  -27.4498    0.6435   26.8500 C   0  0  0  0  0  0  0  0  0  0  0  0
  -26.1815    0.0357   26.7145 C   0  0  0  0  0  0  0  0  0  0  0  0
  -25.7800   -0.9326   27.6938 C   0  0  0  0  0  0  0  0  0  0  0  0
  -26.5568   -1.2134   28.7413 C   0  0  0  0  0  0  0  0  0  0  0  0
  -29.6101   -0.2783   30.1938 N   0  0  0  0  0  0  0  0  0  0  0  0
  -28.1514   -2.0733   30.8111 C   0  0  0  0  0  0  0  0  0  0  0  0
  -30.4551   -0.6100   31.2728 C   0  0  0  0  0  0  0  0  0  0  0  0
  -29.0452   -2.3860   31.8901 C   0  0  0  0  0  0  0  0  0  0  0  0
  -30.1118   -1.5970   32.1364 C   0  0  0  0  0  0  0  0  0  0  0  0
  -25.2722    0.3511   25.6167 C   0  0  0  0  0  0  0  0  0  0  0  0
  -25.5631   -0.1541   24.6131 F   0  0  0  0  0  0  0  0  0  0  0  0
  -23.9746    0.0047   25.9877 F   0  0  0  0  0  0  0  0  0  0  0  0
  -25.2922    1.7167   25.4266 F   0  0  0  0  0  0  0  0  0  0  0  0
  1  2  1  0
  5 13  1  0
 13 14  1  0
 13 15  1  0
 13 16  1  0
  2  8  2  0
  8 10  1  0
 10 12  2  0
 12 11  1  0
 11  9  2  0
  9  2  1  0
  1  3  2  0
  3  4  1  0
  4  5  2  0
  5  6  1  0
  6  7  2  0
  7  1  1  0
M  END

$$$$
