No_375-gen_results/8p0m/2024-11-26-14-13-15/
     RDKit          3D

 14 14  0  0  0  0  0  0  0  0999 V2000
  -28.0162   -0.8135   28.8779 C   0  0  0  0  0  0  0  0  0  0  0  0
  -28.4690   -0.7850   29.8287 C   0  0  0  0  0  0  0  0  0  0  0  0
  -27.1356    0.2359   28.5352 C   0  0  0  0  0  0  0  0  0  0  0  0
  -26.8745    1.2825   29.3982 C   0  0  0  0  0  0  0  0  0  0  0  0
  -29.3953   -1.9237   30.2863 C   0  0  0  0  0  0  0  0  0  0  0  0
  -27.5236    1.2089   30.6379 C   0  0  0  0  0  0  0  0  0  0  0  0
  -28.3224    0.1273   30.9590 C   0  0  0  0  0  0  0  0  0  0  0  0
  -29.8169   -1.8504   31.5485 O   0  0  0  0  0  0  0  0  0  0  0  0
  -26.3937    0.3233   27.2079 C   0  0  0  0  0  0  0  0  0  0  0  0
  -25.2000    0.7221   27.0523 C   0  0  0  0  0  0  0  0  0  0  0  0
  -24.6448    1.0911   25.7541 C   0  0  0  0  0  0  0  0  0  0  0  0
  -23.4157    1.7185   25.6548 C   0  0  0  0  0  0  0  0  0  0  0  0
  -22.7050    1.9991   26.8313 C   0  0  0  0  0  0  0  0  0  0  0  0
  -23.2155    1.6030   28.1010 C   0  0  0  0  0  0  0  0  0  0  0  0
  2  5  1  0
  5  8  1  0
  3  9  1  0
  9 10  2  3
 10 11  1  0
 11 12  2  3
 12 13  1  0
 13 14  2  0
  1  2  2  0
  2  7  1  0
  7  6  2  0
  6  4  1  0
  4  3  2  0
  3  1  1  0
M  END

$$$$
