No_3076-gen_results/8p0m/2024-11-26-14-13-15/
     RDKit          3D

 24 27  0  0  0  0  0  0  0  0999 V2000
  -28.0162   -0.8135   28.8779 C   0  0  0  0  0  0  0  0  0  0  0  0
  -28.4690   -0.7850   29.8287 C   0  0  0  0  0  0  0  0  0  0  0  0
  -26.5455   -0.8762   28.8500 C   0  0  0  0  0  0  0  0  0  0  0  0
  -25.8041   -1.0324   30.0571 C   0  0  0  0  0  0  0  0  0  0  0  0
  -27.9437   -0.9869   31.2075 C   0  0  0  0  0  0  0  0  0  0  0  0
  -26.5825   -1.0386   31.2231 C   0  0  0  0  0  0  0  0  0  0  0  0
  -29.9086   -0.7397   29.8642 F   0  0  0  0  0  0  0  0  0  0  0  0
  -24.3889   -1.2010   30.2805 C   0  0  0  0  0  0  0  0  0  0  0  0
  -23.6903   -0.2688   31.1558 C   0  0  0  0  0  0  0  0  0  0  0  0
  -23.5646   -2.0196   29.4473 C   0  0  0  0  0  0  0  0  0  0  0  0
  -24.3661    0.7042   31.8689 C   0  0  0  0  0  0  0  0  0  0  0  0
  -24.2618    2.1564   31.4309 C   0  0  0  0  0  0  0  0  0  0  0  0
  -24.9864    3.1288   32.1599 C   0  0  0  0  0  0  0  0  0  0  0  0
  -25.8664    2.7949   33.1823 C   0  0  0  0  0  0  0  0  0  0  0  0
  -25.9192    1.4438   33.5594 C   0  0  0  0  0  0  0  0  0  0  0  0
  -25.2169    0.4928   32.9308 C   0  0  0  0  0  0  0  0  0  0  0  0
  -25.6964   -0.8104   27.6134 C   0  0  0  0  0  0  0  0  0  0  0  0
  -24.6460    0.1532   27.6002 C   0  0  0  0  0  0  0  0  0  0  0  0
  -24.7492    1.2083   26.6223 C   0  0  0  0  0  0  0  0  0  0  0  0
  -23.6322    2.0184   26.5285 C   0  0  0  0  0  0  0  0  0  0  0  0
  -22.4559    1.8574   27.2746 C   0  0  0  0  0  0  0  0  0  0  0  0
  -22.4171    0.8563   28.2587 C   0  0  0  0  0  0  0  0  0  0  0  0
  -23.4838    0.0618   28.3613 C   0  0  0  0  0  0  0  0  0  0  0  0
  -22.9434   -1.0937   29.1630 C   0  0  0  0  0  0  0  0  0  0  0  0
  2  7  1  0
  4  8  1  0
  8  9  1  0
  8 10  1  0
  9 11  1  0
  3 17  1  0
 17 18  1  0
 10 24  2  3
 23 24  1  0
 18 19  2  0
 19 20  1  0
 20 21  2  0
 21 22  1  0
 22 23  2  0
 23 18  1  0
 11 12  2  0
 12 13  1  0
 13 14  2  0
 14 15  1  0
 15 16  2  0
 16 11  1  0
  1  2  2  0
  2  5  1  0
  5  6  2  0
  6  4  1  0
  4  3  2  0
  3  1  1  0
M  END

$$$$
