No_398-gen_results/8p0m/2024-11-26-14-13-15/
     RDKit          3D

 34 36  0  0  0  0  0  0  0  0999 V2000
  -28.0162   -0.8135   28.8779 C   0  0  0  0  0  0  0  0  0  0  0  0
  -27.0636   -0.1190   28.6079 C   0  0  0  0  0  0  0  0  0  0  0  0
  -26.9287    1.1713   29.0083 C   0  0  0  0  0  0  0  0  0  0  0  0
  -25.7702    2.0341   28.6884 C   0  0  0  0  0  0  0  0  0  0  0  0
  -25.6189    3.3482   29.0918 C   0  0  0  0  0  0  0  0  0  0  0  0
  -29.0712   -0.3338   29.7689 C   0  0  0  0  0  0  0  0  0  0  0  0
  -29.0128    0.9333   30.1718 C   0  0  0  0  0  0  0  0  0  0  0  0
  -27.8993    1.7759   29.8587 C   0  0  0  0  0  0  0  0  0  0  0  0
  -24.5416    4.1093   28.6528 C   0  0  0  0  0  0  0  0  0  0  0  0
  -23.7334    3.5516   27.6135 C   0  0  0  0  0  0  0  0  0  0  0  0
  -24.8513    1.6832   27.6298 C   0  0  0  0  0  0  0  0  0  0  0  0
  -23.8924    2.3843   27.1237 C   0  0  0  0  0  0  0  0  0  0  0  0
  -23.0793    1.9522   26.1759 F   0  0  0  0  0  0  0  0  0  0  0  0
  -30.1619   -1.2553   30.1075 C   0  0  0  0  0  0  0  0  0  0  0  0
  -29.9821   -2.3977   30.5492 N   0  0  0  0  0  0  0  0  0  0  0  0
  -31.2710   -0.7513   30.4200 O   0  0  0  0  0  0  0  0  0  0  0  0
  -28.6722   -3.0969   30.5300 C   0  0  0  0  0  0  0  0  0  0  0  0
  -27.8168   -2.7898   31.3851 C   0  0  0  0  0  0  0  0  0  0  0  0
  -28.8640   -4.6443   30.5637 C   0  0  0  0  0  0  0  0  0  0  0  0
  -29.1318   -5.0335   29.4308 F   0  0  0  0  0  0  0  0  0  0  0  0
  -29.9375   -4.9225   31.3825 F   0  0  0  0  0  0  0  0  0  0  0  0
  -28.1553   -1.6922   32.3436 C   0  0  0  0  0  0  0  0  0  0  0  0
  -27.7980   -5.2564   30.9872 F   0  0  0  0  0  0  0  0  0  0  0  0
  -27.1477   -0.8060   32.8059 C   0  0  0  0  0  0  0  0  0  0  0  0
  -27.4449    0.1811   33.7644 C   0  0  0  0  0  0  0  0  0  0  0  0
  -28.7845    0.3177   34.2327 C   0  0  0  0  0  0  0  0  0  0  0  0
  -29.7015   -0.6679   33.8050 C   0  0  0  0  0  0  0  0  0  0  0  0
  -29.3741   -1.6250   32.9538 C   0  0  0  0  0  0  0  0  0  0  0  0
  -31.0735   -0.5565   34.4552 C   0  0  0  0  0  0  0  0  0  0  0  0
  -31.8839    0.1264   33.9265 O   0  0  0  0  0  0  0  0  0  0  0  0
  -31.1689   -1.0025   35.6725 O   0  0  0  0  0  0  0  0  0  0  0  0
  -25.7749   -0.7406   32.2576 C   0  0  0  0  0  0  0  0  0  0  0  0
  -25.4448   -0.9605   31.2766 O   0  0  0  0  0  0  0  0  0  0  0  0
  -24.7991   -0.2634   33.2029 N   0  0  0  0  0  0  0  0  0  0  0  0
  3  4  1  0
 12 13  1  0
  6 14  1  0
 14 15  1  0
 14 16  2  0
 15 17  1  0
 17 18  1  0
 17 19  1  0
 19 20  1  0
 19 21  1  0
 18 22  1  0
 19 23  1  0
 27 29  1  0
 29 30  2  0
 29 31  1  0
 24 32  1  0
 32 33  2  0
 32 34  1  0
 22 24  2  0
 24 25  1  0
 25 26  2  0
 26 27  1  0
 27 28  2  0
 28 22  1  0
  1  2  2  0
  2  3  1  0
  3  8  2  0
  8  7  1  0
  7  6  2  0
  6  1  1  0
  4  5  2  0
  5  9  1  0
  9 10  2  0
 10 12  1  0
 12 11  2  0
 11  4  1  0
M  END

$$$$
