No_3926-gen_results/8p0m/2024-11-26-14-13-15/
     RDKit          3D

 21 23  0  0  0  0  0  0  0  0999 V2000
  -28.0162   -0.8135   28.8779 C   0  0  0  0  0  0  0  0  0  0  0  0
  -27.0636   -0.1190   28.6079 C   0  0  0  0  0  0  0  0  0  0  0  0
  -25.7647   -0.3897   29.0360 C   0  0  0  0  0  0  0  0  0  0  0  0
  -24.5516    0.4058   28.7646 C   0  0  0  0  0  0  0  0  0  0  0  0
  -23.2300    0.1178   29.2575 C   0  0  0  0  0  0  0  0  0  0  0  0
  -22.1393    0.9427   28.9224 C   0  0  0  0  0  0  0  0  0  0  0  0
  -27.8294   -1.9287   29.8545 C   0  0  0  0  0  0  0  0  0  0  0  0
  -26.5882   -2.3272   30.2682 C   0  0  0  0  0  0  0  0  0  0  0  0
  -25.4565   -1.5432   29.9146 C   0  0  0  0  0  0  0  0  0  0  0  0
  -22.2302    1.9089   27.8723 C   0  0  0  0  0  0  0  0  0  0  0  0
  -24.5538    1.4700   27.7617 C   0  0  0  0  0  0  0  0  0  0  0  0
  -25.8192    1.7343   27.1414 C   0  0  0  0  0  0  0  0  0  0  0  0
  -23.4497    2.1614   27.3194 C   0  0  0  0  0  0  0  0  0  0  0  0
  -27.1054    1.0088   27.5868 C   0  0  0  0  0  0  0  0  0  0  0  0
  -28.3471    1.3280   26.9858 C   0  0  0  0  0  0  0  0  0  0  0  0
  -28.1711    1.8297   26.0338 F   0  0  0  0  0  0  0  0  0  0  0  0
  -28.9144    2.1692   27.9201 F   0  0  0  0  0  0  0  0  0  0  0  0
  -29.0945    0.2411   26.8546 F   0  0  0  0  0  0  0  0  0  0  0  0
  -29.0608   -2.7292   30.2433 C   0  0  0  0  0  0  0  0  0  0  0  0
  -28.9560   -3.9511   30.3236 O   0  0  0  0  0  0  0  0  0  0  0  0
  -30.1511   -2.1640   30.4987 O   0  0  0  0  0  0  0  0  0  0  0  0
 14 15  1  0
 15 16  1  0
 15 17  1  0
 15 18  1  0
  7 19  1  0
 19 20  2  0
 19 21  1  0
  1  2  2  0
  3  9  2  0
  9  8  1  0
  8  7  2  0
  7  1  1  0
  2  3  1  0
  3  4  1  0
 11 12  1  0
 12 14  2  0
 14  2  1  0
  4  5  2  0
  5  6  1  0
  6 10  2  0
 10 13  1  0
 13 11  2  0
 11  4  1  0
M  END

$$$$
