No_3031-gen_results/8p0m/2024-11-26-14-13-15/
     RDKit          3D

 29 32  0  0  0  0  0  0  0  0999 V2000
  -28.1229   -1.3353   28.4874 O   0  0  0  0  0  0  0  0  0  0  0  0
  -27.4806   -0.4044   28.7094 C   0  0  0  0  0  0  0  0  0  0  0  0
  -27.1904    0.2460   29.5268 C   0  0  0  0  0  0  0  0  0  0  0  0
  -26.6021   -0.1576   27.5515 N   0  0  0  0  0  0  0  0  0  0  0  0
  -25.6421    0.9031   27.5822 C   0  0  0  0  0  0  0  0  0  0  0  0
  -25.5003    1.6142   28.7368 C   0  0  0  0  0  0  0  0  0  0  0  0
  -26.2553    1.3158   29.8133 C   0  0  0  0  0  0  0  0  0  0  0  0
  -24.8953    1.1477   26.4948 N   0  0  0  0  0  0  0  0  0  0  0  0
  -23.8683    1.5969   26.4352 C   0  0  0  0  0  0  0  0  0  0  0  0
  -23.3775    2.3806   27.6513 C   0  0  0  0  0  0  0  0  0  0  0  0
  -24.2478    2.3922   28.7084 C   0  0  0  0  0  0  0  0  0  0  0  0
  -28.1627    0.2158   30.8205 C   0  0  0  0  0  0  0  0  0  0  0  0
  -29.1164   -0.1084   30.8811 C   0  0  0  0  0  0  0  0  0  0  0  0
  -30.0024   -0.1986   32.0958 C   0  0  0  0  0  0  0  0  0  0  0  0
  -29.3947    0.2399   33.2814 C   0  0  0  0  0  0  0  0  0  0  0  0
  -28.0937    0.6445   33.2704 C   0  0  0  0  0  0  0  0  0  0  0  0
  -27.3946    0.7118   32.1073 C   0  0  0  0  0  0  0  0  0  0  0  0
  -23.0622    1.9117   25.4113 N   0  0  0  0  0  0  0  0  0  0  0  0
  -25.2995    0.3575   25.2884 C   0  0  0  0  0  0  0  0  0  0  0  0
  -30.1949    0.1841   34.5411 C   0  0  0  0  0  0  0  0  0  0  0  0
  -30.1039    1.2313   35.3211 C   0  0  0  0  0  0  0  0  0  0  0  0
  -30.1024    0.9289   36.7493 C   0  0  0  0  0  0  0  0  0  0  0  0
  -29.8538    2.0064   37.6905 C   0  0  0  0  0  0  0  0  0  0  0  0
  -29.6551    3.3103   37.1703 C   0  0  0  0  0  0  0  0  0  0  0  0
  -29.6113    3.5493   35.8279 C   0  0  0  0  0  0  0  0  0  0  0  0
  -29.7654    2.5099   34.9116 C   0  0  0  0  0  0  0  0  0  0  0  0
  -31.0345   -0.9015   34.7307 C   0  0  0  0  0  0  0  0  0  0  0  0
  -32.3374   -0.8539   34.6397 C   0  0  0  0  0  0  0  0  0  0  0  0
  -33.1521   -1.9648   34.8919 C   0  0  0  0  0  0  0  0  0  0  0  0
  1  2  2  0
  2  3  1  0
  2  4  1  0
  4  5  1  0
  5  6  1  0
  5  8  1  0
  8  9  1  0
  9 10  1  0
  6 11  1  0
  3 12  1  0
  9 18  1  0
  8 19  1  0
 15 20  1  0
 20 21  1  0
 20 27  1  0
 27 28  2  3
 28 29  1  0
 11 10  1  0
  3  7  1  0
  7  6  1  0
 12 13  2  0
 13 14  1  0
 14 15  2  0
 15 16  1  0
 16 17  2  0
 17 12  1  0
 21 22  2  0
 22 23  1  0
 23 24  2  0
 24 25  1  0
 25 26  2  0
 26 21  1  0
M  END

$$$$
