No_3940-gen_results/8p0m/2024-11-26-14-13-15/
     RDKit          3D

 25 27  0  0  0  0  0  0  0  0999 V2000
  -28.0162   -0.8135   28.8779 C   0  0  0  0  0  0  0  0  0  0  0  0
  -27.0636   -0.1189   28.6079 C   0  0  0  0  0  0  0  0  0  0  0  0
  -25.7923   -0.4302   29.0761 C   0  0  0  0  0  0  0  0  0  0  0  0
  -24.5456    0.3494   28.8225 C   0  0  0  0  0  0  0  0  0  0  0  0
  -23.2409    0.0217   29.3323 C   0  0  0  0  0  0  0  0  0  0  0  0
  -27.8820   -1.8995   29.8633 C   0  0  0  0  0  0  0  0  0  0  0  0
  -26.6706   -2.3272   30.3212 C   0  0  0  0  0  0  0  0  0  0  0  0
  -25.5433   -1.5852   29.9316 C   0  0  0  0  0  0  0  0  0  0  0  0
  -23.1550   -1.2815   29.8844 C   0  0  0  0  0  0  0  0  0  0  0  0
  -24.2416   -1.9858   30.3143 C   0  0  0  0  0  0  0  0  0  0  0  0
  -24.5909    1.5917   27.9973 C   0  0  0  0  0  0  0  0  0  0  0  0
  -24.9625    1.5009   26.8223 N   0  0  0  0  0  0  0  0  0  0  0  0
  -24.2635    1.1923   25.8395 C   0  0  0  0  0  0  0  0  0  0  0  0
  -26.2598    2.0389   26.4203 C   0  0  0  0  0  0  0  0  0  0  0  0
  -27.1775    1.5203   26.1694 C   0  0  0  0  0  0  0  0  0  0  0  0
  -27.3578    0.5368   25.3686 C   0  0  0  0  0  0  0  0  0  0  0  0
  -28.5742   -0.1500   25.0569 C   0  0  0  0  0  0  0  0  0  0  0  0
  -29.7283    0.3853   25.5396 C   0  0  0  0  0  0  0  0  0  0  0  0
  -29.7563    1.5102   26.2965 C   0  0  0  0  0  0  0  0  0  0  0  0
  -28.5387    2.1337   26.6527 C   0  0  0  0  0  0  0  0  0  0  0  0
  -24.7327    2.6505   28.7866 O   0  0  0  0  0  0  0  0  0  0  0  0
  -25.9618    3.3899   26.0465 O   0  0  0  0  0  0  0  0  0  0  0  0
  -29.1417   -2.6813   30.2245 C   0  0  0  0  0  0  0  0  0  0  0  0
  -29.0695   -3.9040   30.2006 O   0  0  0  0  0  0  0  0  0  0  0  0
  -30.1735   -2.1185   30.5536 O   0  0  0  0  0  0  0  0  0  0  0  0
  4 11  1  0
 11 12  1  0
 12 13  1  0
 12 14  1  0
 14 15  1  0
 11 21  2  0
 14 22  2  0
  6 23  1  0
 23 24  2  0
 23 25  1  0
 15 16  2  0
 16 17  1  0
 17 18  2  0
 18 19  1  0
 19 20  2  0
 20 15  1  0
  1  2  2  0
  2  3  1  0
  8  7  1  0
  7  6  2  0
  6  1  1  0
  3  4  2  0
  4  5  1  0
  5  9  2  0
  9 10  1  0
 10  8  2  0
  8  3  1  0
M  END

$$$$
