No_3235-gen_results/8p0m/2024-11-26-14-13-15/
     RDKit          3D

 23 24  0  0  0  0  0  0  0  0999 V2000
  -28.0162   -0.8135   28.8779 C   0  0  0  0  0  0  0  0  0  0  0  0
  -27.0636   -0.1190   28.6079 C   0  0  0  0  0  0  0  0  0  0  0  0
  -25.7647   -0.3897   29.0360 C   0  0  0  0  0  0  0  0  0  0  0  0
  -24.5516    0.4058   28.7646 C   0  0  0  0  0  0  0  0  0  0  0  0
  -23.2300    0.1178   29.2575 C   0  0  0  0  0  0  0  0  0  0  0  0
  -23.0942   -1.1309   29.8730 C   0  0  0  0  0  0  0  0  0  0  0  0
  -27.7981   -1.9341   29.8560 C   0  0  0  0  0  0  0  0  0  0  0  0
  -26.5420   -2.3269   30.2580 C   0  0  0  0  0  0  0  0  0  0  0  0
  -25.4514   -1.5516   29.9079 C   0  0  0  0  0  0  0  0  0  0  0  0
  -24.1562   -1.9097   30.2809 C   0  0  0  0  0  0  0  0  0  0  0  0
  -24.6450    1.6582   27.9464 C   0  0  0  0  0  0  0  0  0  0  0  0
  -24.8271    1.5876   26.5600 Cl  0  0  0  0  0  0  0  0  0  0  0  0
  -24.6263    2.7113   28.6598 F   0  0  0  0  0  0  0  0  0  0  0  0
  -28.8881   -2.6650   30.1879 F   0  0  0  0  0  0  0  0  0  0  0  0
  -29.6071   -0.4898   28.4351 Cl  0  0  0  0  0  0  0  0  0  0  0  0
  -22.1903    0.8483   28.9091 O   0  0  0  0  0  0  0  0  0  0  0  0
  -21.0394    0.2774   28.3499 C   0  0  0  0  0  0  0  0  0  0  0  0
  -27.1872    0.9702   27.8168 F   0  0  0  0  0  0  0  0  0  0  0  0
  -20.2153    1.3409   27.9301 C   0  0  0  0  0  0  0  0  0  0  0  0
  -20.8286    2.5171   28.1918 O   0  0  0  0  0  0  0  0  0  0  0  0
  -19.1727    1.4637   28.8804 C   0  0  0  0  0  0  0  0  0  0  0  0
  -18.3378    2.5341   28.6417 O   0  0  0  0  0  0  0  0  0  0  0  0
  -19.0031    3.7290   28.3147 C   0  0  0  0  0  0  0  0  0  0  0  0
  4 11  1  0
 11 12  1  0
 11 13  1  0
  7 14  1  0
  1 15  1  0
  5 16  1  0
 16 17  1  0
  2 18  1  0
 17 19  1  0
 19 20  1  0
 19 21  1  0
 21 22  1  0
 22 23  1  0
  1  2  2  0
  2  3  1  0
  9  8  1  0
  8  7  2  0
  7  1  1  0
  3  4  2  0
  4  5  1  0
  5  6  2  0
  6 10  1  0
 10  9  2  0
  9  3  1  0
M  END

$$$$
