No_3841-gen_results/8p0m/2024-11-26-14-13-15/
     RDKit          3D

 14 15  0  0  0  0  0  0  0  0999 V2000
  -28.0727   -1.2542   28.5316 F   0  0  0  0  0  0  0  0  0  0  0  0
  -27.0607   -0.6291   28.8721 C   0  0  0  0  0  0  0  0  0  0  0  0
  -26.1528   -1.1557   29.4537 C   0  0  0  0  0  0  0  0  0  0  0  0
  -24.8778   -0.5788   29.8639 C   0  0  0  0  0  0  0  0  0  0  0  0
  -24.7426    0.8273   29.4808 C   0  0  0  0  0  0  0  0  0  0  0  0
  -25.7883    1.3927   28.7628 C   0  0  0  0  0  0  0  0  0  0  0  0
  -26.9145    0.7309   28.4427 C   0  0  0  0  0  0  0  0  0  0  0  0
  -25.5328    2.8344   28.3724 C   0  0  0  0  0  0  0  0  0  0  0  0
  -26.1310    3.5088   27.4212 C   0  0  0  0  0  0  0  0  0  0  0  0
  -25.7860    4.8560   27.0763 C   0  0  0  0  0  0  0  0  0  0  0  0
  -24.8377    5.5320   27.7111 C   0  0  0  0  0  0  0  0  0  0  0  0
  -24.2042    4.8830   28.7740 C   0  0  0  0  0  0  0  0  0  0  0  0
  -24.5189    3.5415   29.1081 C   0  0  0  0  0  0  0  0  0  0  0  0
  -27.8612    1.2733   27.7194 O   0  0  0  0  0  0  0  0  0  0  0  0
  1  2  1  0
  3  4  1  0
  5  6  1  0
  2  7  1  0
  6  7  1  0
  6  8  1  0
  7 14  2  0
  2  3  1  0
  4  5  1  0
  8  9  2  0
  9 10  1  0
 10 11  2  0
 11 12  1  0
 12 13  2  0
 13  8  1  0
M  END

$$$$
