No_3450-gen_results/8p0m/2024-11-26-14-13-15/
     RDKit          3D

 10 10  0  0  0  0  0  0  0  0999 V2000
  -28.0162   -0.8135   28.8779 C   0  0  0  0  0  0  0  0  0  0  0  0
  -27.0636   -0.1189   28.6079 C   0  0  0  0  0  0  0  0  0  0  0  0
  -26.8756    1.1325   28.9134 C   0  0  0  0  0  0  0  0  0  0  0  0
  -25.6883    1.9515   28.5672 C   0  0  0  0  0  0  0  0  0  0  0  0
  -24.6394    1.2834   27.8753 C   0  0  0  0  0  0  0  0  0  0  0  0
  -24.8068   -0.0513   27.6040 C   0  0  0  0  0  0  0  0  0  0  0  0
  -25.9020   -0.7670   27.9511 C   0  0  0  0  0  0  0  0  0  0  0  0
  -28.0678   -1.4475   30.2707 C   0  0  0  0  0  0  0  0  0  0  0  0
  -28.1719   -0.8257   31.1342 F   0  0  0  0  0  0  0  0  0  0  0  0
  -26.8751   -2.1801   30.3755 F   0  0  0  0  0  0  0  0  0  0  0  0
  1  8  1  0
  8  9  1  0
  8 10  1  0
  1  2  1  0
  2  3  2  0
  3  4  1  0
  4  5  2  0
  5  6  1  0
  6  7  2  0
  7  2  1  0
M  END

$$$$
