No_3172-gen_results/8p0m/2024-11-26-14-13-15/
     RDKit          3D

  7  7  0  0  0  0  0  0  0  0999 V2000
  -28.1229   -1.3353   28.4874 O   0  0  0  0  0  0  0  0  0  0  0  0
  -27.0637   -0.8242   28.8687 C   0  0  0  0  0  0  0  0  0  0  0  0
  -26.8938   -0.2656   29.6815 N   0  0  0  0  0  0  0  0  0  0  0  0
  -25.7432   -1.2103   28.0363 C   0  0  0  0  0  0  0  0  0  0  0  0
  -24.7369   -0.7819   28.4256 C   0  0  0  0  0  0  0  0  0  0  0  0
  -24.4692    0.0597   29.5118 C   0  0  0  0  0  0  0  0  0  0  0  0
  -25.7010    0.3252   30.2185 C   0  0  0  0  0  0  0  0  0  0  0  0
  1  2  2  0
  2  3  1  0
  2  4  1  0
  4  5  1  0
  3  7  1  0
  6  7  1  0
  6  5  1  0
M  END

$$$$
