No_3439-gen_results/8p0m/2024-11-26-14-13-15/
     RDKit          3D

 13 14  0  0  0  0  0  0  0  0999 V2000
  -28.0162   -0.8135   28.8779 C   0  0  0  0  0  0  0  0  0  0  0  0
  -27.0636   -0.1190   28.6079 C   0  0  0  0  0  0  0  0  0  0  0  0
  -25.7647   -0.3897   29.0360 C   0  0  0  0  0  0  0  0  0  0  0  0
  -25.5296   -1.5302   29.9014 C   0  0  0  0  0  0  0  0  0  0  0  0
  -26.6888   -2.2893   30.1810 C   0  0  0  0  0  0  0  0  0  0  0  0
  -27.8727   -1.9508   29.7373 C   0  0  0  0  0  0  0  0  0  0  0  0
  -29.1941   -2.9228   30.2191 Cl  0  0  0  0  0  0  0  0  0  0  0  0
  -24.5326    0.4192   28.7249 C   0  0  0  0  0  0  0  0  0  0  0  0
  -24.5321    1.2875   27.7195 C   0  0  0  0  0  0  0  0  0  0  0  0
  -23.3564    1.9022   27.3176 C   0  0  0  0  0  0  0  0  0  0  0  0
  -22.1273    1.7043   27.9482 C   0  0  0  0  0  0  0  0  0  0  0  0
  -23.2631    0.1180   29.3425 C   0  0  0  0  0  0  0  0  0  0  0  0
  -22.0809    0.7909   28.9765 C   0  0  0  0  0  0  0  0  0  0  0  0
  6  7  1  0
  3  8  1  0
  1  2  2  0
  2  3  1  0
  3  4  2  0
  4  5  1  0
  5  6  2  0
  6  1  1  0
  8  9  2  0
  9 10  1  0
 10 11  2  0
 11 13  1  0
 13 12  2  0
 12  8  1  0
M  END

$$$$
