No_3860-gen_results/8p0m/2024-11-26-14-13-15/
     RDKit          3D

 32 34  0  0  0  0  0  0  0  0999 V2000
  -28.0162   -0.8135   28.8779 C   0  0  0  0  0  0  0  0  0  0  0  0
  -28.4690   -0.7850   29.8287 C   0  0  0  0  0  0  0  0  0  0  0  0
  -26.5042   -0.7777   28.8766 C   0  0  0  0  0  0  0  0  0  0  0  0
  -25.8103   -0.8531   30.1028 C   0  0  0  0  0  0  0  0  0  0  0  0
  -27.9906   -0.8916   31.2257 C   0  0  0  0  0  0  0  0  0  0  0  0
  -26.6042   -0.8676   31.2652 C   0  0  0  0  0  0  0  0  0  0  0  0
  -24.3894   -0.8049   30.1638 C   0  0  0  0  0  0  0  0  0  0  0  0
  -23.8172    0.4762   29.9118 C   0  0  0  0  0  0  0  0  0  0  0  0
  -22.5010    0.5449   29.4097 C   0  0  0  0  0  0  0  0  0  0  0  0
  -21.7696   -0.6524   29.2129 C   0  0  0  0  0  0  0  0  0  0  0  0
  -23.6939   -1.8206   29.2518 C   0  0  0  0  0  0  0  0  0  0  0  0
  -22.3030   -1.7892   29.1620 C   0  0  0  0  0  0  0  0  0  0  0  0
  -23.8764   -1.2295   31.6716 C   0  0  0  0  0  0  0  0  0  0  0  0
  -24.4271    1.7392   30.3631 C   0  0  0  0  0  0  0  0  0  0  0  0
  -24.5041    2.1460   31.5027 O   0  0  0  0  0  0  0  0  0  0  0  0
  -25.2069    2.3329   29.4186 O   0  0  0  0  0  0  0  0  0  0  0  0
  -30.0532   -0.9069   29.9664 C   0  0  0  0  0  0  0  0  0  0  0  0
  -30.6842   -0.2995   29.2076 O   0  0  0  0  0  0  0  0  0  0  0  0
  -30.6174   -1.6551   30.8329 O   0  0  0  0  0  0  0  0  0  0  0  0
  -25.9130    3.4685   29.7958 C   0  0  0  0  0  0  0  0  0  0  0  0
  -26.0711    4.3187   28.7362 C   0  0  0  0  0  0  0  0  0  0  0  0
  -26.0257    5.5977   28.9522 C   0  0  0  0  0  0  0  0  0  0  0  0
  -25.8687    6.5650   27.8356 C   0  0  0  0  0  0  0  0  0  0  0  0
  -25.7407    5.9907   26.5340 C   0  0  0  0  0  0  0  0  0  0  0  0
  -25.4643    4.6623   26.4907 C   0  0  0  0  0  0  0  0  0  0  0  0
  -25.6239    3.8066   27.5017 C   0  0  0  0  0  0  0  0  0  0  0  0
  -27.3651    2.9750   30.1604 C   0  0  0  0  0  0  0  0  0  0  0  0
  -28.4525    3.0649   29.3247 C   0  0  0  0  0  0  0  0  0  0  0  0
  -29.7011    2.7319   29.8802 C   0  0  0  0  0  0  0  0  0  0  0  0
  -30.8493    3.0503   29.1763 C   0  0  0  0  0  0  0  0  0  0  0  0
  -30.7313    3.5108   27.8757 C   0  0  0  0  0  0  0  0  0  0  0  0
  -29.4657    3.8313   27.3368 C   0  0  0  0  0  0  0  0  0  0  0  0
  4  7  1  0
  7  8  1  0
  9 10  1  0
  7 11  1  0
 10 12  1  0
  7 13  1  0
  8 14  1  0
 14 15  2  0
 14 16  1  0
  2 17  1  0
 17 18  2  0
 17 19  1  0
 16 20  1  0
 20 21  1  0
 20 27  1  0
 27 28  2  3
 28 29  1  0
 29 30  1  0
 30 31  2  3
 31 32  1  0
  8  9  1  0
 12 11  1  0
  1  2  2  0
  2  5  1  0
  5  6  2  0
  6  4  1  0
  4  3  2  0
  3  1  1  0
 21 22  2  0
 22 23  1  0
 23 24  2  0
 24 25  1  0
 25 26  2  0
 26 21  1  0
M  END

$$$$
