No_3576-gen_results/8p0m/2024-11-26-14-13-15/
     RDKit          3D

 20 22  0  0  0  0  0  0  0  0999 V2000
  -28.0162   -0.8135   28.8779 C   0  0  0  0  0  0  0  0  0  0  0  0
  -27.0636   -0.1189   28.6079 C   0  0  0  0  0  0  0  0  0  0  0  0
  -25.7647   -0.3897   29.0360 C   0  0  0  0  0  0  0  0  0  0  0  0
  -25.5296   -1.5302   29.9014 C   0  0  0  0  0  0  0  0  0  0  0  0
  -26.6577   -2.2915   30.2035 C   0  0  0  0  0  0  0  0  0  0  0  0
  -27.8548   -1.9555   29.7630 C   0  0  0  0  0  0  0  0  0  0  0  0
  -24.5349    0.4128   28.7431 C   0  0  0  0  0  0  0  0  0  0  0  0
  -23.3062    0.0366   29.0393 C   0  0  0  0  0  0  0  0  0  0  0  0
  -23.0648   -1.1443   29.7080 C   0  0  0  0  0  0  0  0  0  0  0  0
  -24.1873   -1.9562   30.1956 C   0  0  0  0  0  0  0  0  0  0  0  0
  -22.1179    0.8470   28.6508 C   0  0  0  0  0  0  0  0  0  0  0  0
  -22.2832    1.8779   27.7388 N   0  0  0  0  0  0  0  0  0  0  0  0
  -20.9438    0.4473   28.8332 O   0  0  0  0  0  0  0  0  0  0  0  0
  -29.2365   -2.8847   30.2729 Cl  0  0  0  0  0  0  0  0  0  0  0  0
  -27.1934    1.0630   27.6520 C   0  0  0  0  0  0  0  0  0  0  0  0
  -27.7668    1.9782   27.9852 O   0  0  0  0  0  0  0  0  0  0  0  0
  -26.8442    0.8492   26.3352 O   0  0  0  0  0  0  0  0  0  0  0  0
  -26.5710    1.8284   25.5507 C   0  0  0  0  0  0  0  0  0  0  0  0
  -23.4634    2.5110   27.4222 C   0  0  0  0  0  0  0  0  0  0  0  0
  -24.7019    1.6845   27.9116 C   0  0  0  0  0  0  0  0  0  0  0  0
  8 11  1  0
 11 12  1  0
 11 13  2  0
  6 14  1  0
  2 15  1  0
 15 16  2  0
 15 17  1  0
 17 18  1  0
 12 19  1  0
  7 20  1  0
 19 20  1  0
  1  2  2  0
  2  3  1  0
  4  5  1  0
  5  6  2  0
  6  1  1  0
  3  4  2  0
  4 10  1  0
 10  9  2  0
  9  8  1  0
  8  7  2  0
  7  3  1  0
M  END

$$$$
