No_3362-gen_results/8p0m/2024-11-26-14-13-15/
     RDKit          3D

 15 15  0  0  0  0  0  0  0  0999 V2000
  -28.0162   -0.8135   28.8779 C   0  0  0  0  0  0  0  0  0  0  0  0
  -28.4690   -0.7850   29.8287 C   0  0  0  0  0  0  0  0  0  0  0  0
  -27.1356    0.2359   28.5352 C   0  0  0  0  0  0  0  0  0  0  0  0
  -26.8745    1.2825   29.3982 C   0  0  0  0  0  0  0  0  0  0  0  0
  -28.3613    0.1987   30.9244 C   0  0  0  0  0  0  0  0  0  0  0  0
  -27.5277    1.2234   30.6356 C   0  0  0  0  0  0  0  0  0  0  0  0
  -26.3879    0.2914   27.2334 C   0  0  0  0  0  0  0  0  0  0  0  0
  -26.4938    0.9729   26.2859 C   0  0  0  0  0  0  0  0  0  0  0  0
  -27.4084    2.0367   26.3336 C   0  0  0  0  0  0  0  0  0  0  0  0
  -25.7447    0.7211   25.0963 C   0  0  0  0  0  0  0  0  0  0  0  0
  -25.2617   -0.8239   27.2314 C   0  0  0  0  0  0  0  0  0  0  0  0
  -24.8872   -1.3568   28.5913 C   0  0  0  0  0  0  0  0  0  0  0  0
  -24.5672   -2.4866   28.8905 C   0  0  0  0  0  0  0  0  0  0  0  0
  -24.1153   -2.8709   30.2446 C   0  0  0  0  0  0  0  0  0  0  0  0
  -24.1545   -1.8263   31.2315 C   0  0  0  0  0  0  0  0  0  0  0  0
  3  7  1  0
  7  8  1  0
  8  9  1  0
  8 10  1  0
  7 11  1  0
 11 12  1  0
 12 13  2  3
 13 14  1  0
 14 15  2  0
  1  2  2  0
  2  5  1  0
  5  6  2  0
  6  4  1  0
  4  3  2  0
  3  1  1  0
M  END

$$$$
