No_3347-gen_results/8p0m/2024-11-26-14-13-15/
     RDKit          3D

 27 28  0  0  0  0  0  0  0  0999 V2000
  -28.0162   -0.8135   28.8779 C   0  0  0  0  0  0  0  0  0  0  0  0
  -28.4690   -0.7850   29.8287 C   0  0  0  0  0  0  0  0  0  0  0  0
  -27.0871    0.2903   28.6377 C   0  0  0  0  0  0  0  0  0  0  0  0
  -26.8317    1.2487   29.5869 C   0  0  0  0  0  0  0  0  0  0  0  0
  -28.3914    0.0801   31.0065 C   0  0  0  0  0  0  0  0  0  0  0  0
  -27.4940    1.1521   30.7841 C   0  0  0  0  0  0  0  0  0  0  0  0
  -26.4060    0.3541   27.4873 F   0  0  0  0  0  0  0  0  0  0  0  0
  -25.9728    2.2482   29.3535 O   0  0  0  0  0  0  0  0  0  0  0  0
  -25.1701    2.5014   28.4275 C   0  0  0  0  0  0  0  0  0  0  0  0
  -24.0120    2.8299   28.6940 C   0  0  0  0  0  0  0  0  0  0  0  0
  -23.0289    1.8512   28.1790 C   0  0  0  0  0  0  0  0  0  0  0  0
  -22.9359    0.8492   28.4182 C   0  0  0  0  0  0  0  0  0  0  0  0
  -23.7897    0.0868   29.2885 C   0  0  0  0  0  0  0  0  0  0  0  0
  -23.4911   -1.3180   29.6222 C   0  0  0  0  0  0  0  0  0  0  0  0
  -24.4629   -2.0459   30.3088 C   0  0  0  0  0  0  0  0  0  0  0  0
  -25.2071   -1.3338   31.2903 C   0  0  0  0  0  0  0  0  0  0  0  0
  -25.0910    0.0873   31.4031 C   0  0  0  0  0  0  0  0  0  0  0  0
  -24.1969    0.8243   30.4952 C   0  0  0  0  0  0  0  0  0  0  0  0
  -24.4973    0.3479   32.8773 C   0  0  0  0  0  0  0  0  0  0  0  0
  -25.9405    3.5718   27.5332 C   0  0  0  0  0  0  0  0  0  0  0  0
  -26.2929    3.3525   26.2684 C   0  0  0  0  0  0  0  0  0  0  0  0
  -26.2496    4.8485   28.1118 C   0  0  0  0  0  0  0  0  0  0  0  0
  -26.8748    5.8282   27.4582 C   0  0  0  0  0  0  0  0  0  0  0  0
  -26.0436    2.0845   25.6222 C   0  0  0  0  0  0  0  0  0  0  0  0
  -26.9859    7.0462   28.0904 C   0  0  0  0  0  0  0  0  0  0  0  0
  -26.6637    7.2634   29.4217 C   0  0  0  0  0  0  0  0  0  0  0  0
  -26.0926    6.1689   30.1484 C   0  0  0  0  0  0  0  0  0  0  0  0
  3  7  1  0
  4  8  1  0
  8  9  1  0
  9 10  2  3
 10 11  1  0
 11 12  2  3
 12 13  1  0
 17 19  1  0
  9 20  1  0
 20 21  1  0
 20 22  1  0
 22 23  2  3
 21 24  1  0
 23 25  1  0
 25 26  2  3
 26 27  1  0
 13 14  2  0
 14 15  1  0
 15 16  2  0
 16 17  1  0
 17 18  2  0
 18 13  1  0
  1  2  2  0
  2  5  1  0
  5  6  2  0
  6  4  1  0
  4  3  2  0
  3  1  1  0
M  END

$$$$
