No_3963-gen_results/8p0m/2024-11-26-14-13-15/
     RDKit          3D

 22 24  0  0  0  0  0  0  0  0999 V2000
  -28.0544   -1.0498   28.7246 N   0  0  0  0  0  0  0  0  0  0  0  0
  -26.9659   -0.4722   28.7709 C   0  0  0  0  0  0  0  0  0  0  0  0
  -25.9289   -1.0196   29.5059 C   0  0  0  0  0  0  0  0  0  0  0  0
  -26.1023   -2.2905   30.2023 C   0  0  0  0  0  0  0  0  0  0  0  0
  -27.3441   -2.8033   30.0964 C   0  0  0  0  0  0  0  0  0  0  0  0
  -28.3049   -2.1942   29.4440 C   0  0  0  0  0  0  0  0  0  0  0  0
  -26.6719    0.8125   28.1050 C   0  0  0  0  0  0  0  0  0  0  0  0
  -26.4093    1.8920   28.5517 C   0  0  0  0  0  0  0  0  0  0  0  0
  -26.6951    0.6702   26.6068 C   0  0  0  0  0  0  0  0  0  0  0  0
  -26.1098    3.1044   27.8582 C   0  0  0  0  0  0  0  0  0  0  0  0
  -25.7296    4.3028   28.4186 C   0  0  0  0  0  0  0  0  0  0  0  0
  -26.4194    1.7214   25.7971 C   0  0  0  0  0  0  0  0  0  0  0  0
  -26.0668    2.9897   26.3639 C   0  0  0  0  0  0  0  0  0  0  0  0
  -26.4192    5.1685   28.8107 N   0  0  0  0  0  0  0  0  0  0  0  0
  -25.9976    6.3325   29.4457 C   0  0  0  0  0  0  0  0  0  0  0  0
  -25.3531    7.2029   28.6105 C   0  0  0  0  0  0  0  0  0  0  0  0
  -25.7563    7.5390   27.5217 C   0  0  0  0  0  0  0  0  0  0  0  0
  -24.8579    8.0476   26.5047 C   0  0  0  0  0  0  0  0  0  0  0  0
  -23.6128    8.4505   26.9713 C   0  0  0  0  0  0  0  0  0  0  0  0
  -23.2009    8.3295   28.2779 C   0  0  0  0  0  0  0  0  0  0  0  0
  -24.0094    7.6511   29.0634 C   0  0  0  0  0  0  0  0  0  0  0  0
  -27.8344    5.1066   28.6298 C   0  0  0  0  0  0  0  0  0  0  0  0
  2  7  1  0
 11 14  1  0
 14 15  1  0
 15 16  1  0
 14 22  1  0
 11 10  1  0
  7  8  2  0
  8 10  1  0
 10 13  2  0
 13 12  1  0
 12  9  2  0
  9  7  1  0
  1  2  2  0
  2  3  1  0
  3  4  2  0
  4  5  1  0
  5  6  2  0
  6  1  1  0
 16 17  2  0
 17 18  1  0
 18 19  2  0
 19 20  1  0
 20 21  2  0
 21 16  1  0
M  END

$$$$
