No_3490-gen_results/8p0m/2024-11-26-14-13-15/
     RDKit          3D

 20 21  0  0  0  0  0  0  0  0999 V2000
  -28.1229   -1.3353   28.4874 O   0  0  0  0  0  0  0  0  0  0  0  0
  -27.4806   -0.4044   28.7094 C   0  0  0  0  0  0  0  0  0  0  0  0
  -26.3804   -0.0867   27.9394 C   0  0  0  0  0  0  0  0  0  0  0  0
  -27.6665    0.4468   29.8988 N   0  0  0  0  0  0  0  0  0  0  0  0
  -26.4086    0.8567   26.8802 C   0  0  0  0  0  0  0  0  0  0  0  0
  -25.0824   -0.6970   28.1699 C   0  0  0  0  0  0  0  0  0  0  0  0
  -25.2842    1.0488   26.0470 C   0  0  0  0  0  0  0  0  0  0  0  0
  -23.9159   -0.3440   27.4444 C   0  0  0  0  0  0  0  0  0  0  0  0
  -24.0618    0.5289   26.3707 C   0  0  0  0  0  0  0  0  0  0  0  0
  -28.7724    0.0990   30.7925 C   0  0  0  0  0  0  0  0  0  0  0  0
  -26.8467    1.5200   30.2210 C   0  0  0  0  0  0  0  0  0  0  0  0
  -26.1382    1.4748   31.0766 C   0  0  0  0  0  0  0  0  0  0  0  0
  -25.0009    1.7956   31.3446 C   0  0  0  0  0  0  0  0  0  0  0  0
  -24.1133    2.3365   30.2691 C   0  0  0  0  0  0  0  0  0  0  0  0
  -24.8700    2.7371   29.1289 C   0  0  0  0  0  0  0  0  0  0  0  0
  -26.2095    2.3560   29.0399 C   0  0  0  0  0  0  0  0  0  0  0  0
  -24.2239    3.4100   28.2049 O   0  0  0  0  0  0  0  0  0  0  0  0
  -27.0532    3.7967   29.2640 C   0  0  0  0  0  0  0  0  0  0  0  0
  -26.8943    4.5177   30.1164 C   0  0  0  0  0  0  0  0  0  0  0  0
  -27.6153    5.7610   30.2290 C   0  0  0  0  0  0  0  0  0  0  0  0
  1  2  2  0
  2  3  1  0
  2  4  1  0
  4 10  1  0
  4 11  1  0
 15 17  1  0
 16 18  1  0
 18 19  2  3
 19 20  1  0
 11 12  2  0
 12 13  1  0
 13 14  2  0
 14 15  1  0
 15 16  2  0
 16 11  1  0
  3  5  2  0
  5  7  1  0
  7  9  2  0
  9  8  1  0
  8  6  2  0
  6  3  1  0
M  END

$$$$
