No_3147-gen_results/8p0m/2024-11-26-14-13-15/
     RDKit          3D

 15 16  0  0  0  0  0  0  0  0999 V2000
  -28.0162   -0.8135   28.8779 C   0  0  0  0  0  0  0  0  0  0  0  0
  -28.4690   -0.7850   29.8287 C   0  0  0  0  0  0  0  0  0  0  0  0
  -26.5455   -0.8762   28.8500 C   0  0  0  0  0  0  0  0  0  0  0  0
  -25.8041   -1.0324   30.0571 C   0  0  0  0  0  0  0  0  0  0  0  0
  -27.9437   -0.9869   31.2075 C   0  0  0  0  0  0  0  0  0  0  0  0
  -26.5825   -1.0386   31.2231 C   0  0  0  0  0  0  0  0  0  0  0  0
  -30.0606   -0.7371   29.9024 C   0  0  0  0  0  0  0  0  0  0  0  0
  -30.7252   -1.5544   30.2697 O   0  0  0  0  0  0  0  0  0  0  0  0
  -30.5270    0.3279   29.3297 F   0  0  0  0  0  0  0  0  0  0  0  0
  -24.3746   -1.0938   30.0697 C   0  0  0  0  0  0  0  0  0  0  0  0
  -23.6709   -1.7172   30.4717 C   0  0  0  0  0  0  0  0  0  0  0  0
  -23.7618    0.0648   29.2243 C   0  0  0  0  0  0  0  0  0  0  0  0
  -22.3478    0.1209   29.1181 C   0  0  0  0  0  0  0  0  0  0  0  0
  -22.2466   -1.7707   30.5585 C   0  0  0  0  0  0  0  0  0  0  0  0
  -21.5950   -0.7624   29.7839 C   0  0  0  0  0  0  0  0  0  0  0  0
  2  7  1  0
  7  8  2  0
  7  9  1  0
  4 10  1  0
 10 11  2  0
 11 14  1  0
 14 15  2  0
 15 13  1  0
 13 12  2  0
 12 10  1  0
  1  2  2  0
  2  5  1  0
  5  6  2  0
  6  4  1  0
  4  3  2  0
  3  1  1  0
M  END

$$$$
