No_3834-gen_results/8p0m/2024-11-26-14-13-15/
     RDKit          3D

 16 17  0  0  0  0  0  0  0  0999 V2000
  -28.0162   -0.8135   28.8779 C   0  0  0  0  0  0  0  0  0  0  0  0
  -27.0636   -0.1189   28.6079 C   0  0  0  0  0  0  0  0  0  0  0  0
  -26.9716    0.7139   27.5060 C   0  0  0  0  0  0  0  0  0  0  0  0
  -28.1053    0.7744   26.6421 C   0  0  0  0  0  0  0  0  0  0  0  0
  -29.2041    0.1179   27.0477 C   0  0  0  0  0  0  0  0  0  0  0  0
  -29.2127   -0.6088   28.1281 C   0  0  0  0  0  0  0  0  0  0  0  0
  -25.7106    1.4518   27.1380 C   0  0  0  0  0  0  0  0  0  0  0  0
  -25.3772    2.0455   26.1738 C   0  0  0  0  0  0  0  0  0  0  0  0
  -24.0563    2.6671   26.0691 C   0  0  0  0  0  0  0  0  0  0  0  0
  -23.0770    2.4486   27.0206 C   0  0  0  0  0  0  0  0  0  0  0  0
  -23.3966    1.5496   28.0562 C   0  0  0  0  0  0  0  0  0  0  0  0
  -24.6503    1.0545   28.1947 C   0  0  0  0  0  0  0  0  0  0  0  0
  -30.4055    0.2684   26.1873 C   0  0  0  0  0  0  0  0  0  0  0  0
  -31.2530   -0.6035   26.0899 O   0  0  0  0  0  0  0  0  0  0  0  0
  -30.3140    1.1691   25.0893 N   0  0  0  0  0  0  0  0  0  0  0  0
  -22.1262    1.2208   29.1611 Cl  0  0  0  0  0  0  0  0  0  0  0  0
  3  7  1  0
  5 13  1  0
 13 14  2  0
 13 15  1  0
 11 16  1  0
  1  2  2  0
  2  3  1  0
  3  4  2  0
  4  5  1  0
  5  6  2  0
  6  1  1  0
  7  8  2  0
  8  9  1  0
  9 10  2  0
 10 11  1  0
 11 12  2  0
 12  7  1  0
M  END

$$$$
