No_3271-gen_results/8p0m/2024-11-26-14-13-15/
     RDKit          3D

 19 21  0  0  0  0  0  0  0  0999 V2000
  -28.0162   -0.8135   28.8779 C   0  0  0  0  0  0  0  0  0  0  0  0
  -28.4690   -0.7850   29.8287 C   0  0  0  0  0  0  0  0  0  0  0  0
  -27.1356    0.2359   28.5352 C   0  0  0  0  0  0  0  0  0  0  0  0
  -26.8745    1.2825   29.3982 C   0  0  0  0  0  0  0  0  0  0  0  0
  -28.3613    0.1987   30.9244 C   0  0  0  0  0  0  0  0  0  0  0  0
  -27.5277    1.2234   30.6356 C   0  0  0  0  0  0  0  0  0  0  0  0
  -26.3879    0.2914   27.2334 C   0  0  0  0  0  0  0  0  0  0  0  0
  -25.5573    1.3117   27.0292 N   0  0  0  0  0  0  0  0  0  0  0  0
  -25.3185    2.3151   27.9426 C   0  0  0  0  0  0  0  0  0  0  0  0
  -25.9663    2.3298   29.1445 C   0  0  0  0  0  0  0  0  0  0  0  0
  -24.4406    3.3144   27.5149 N   0  0  0  0  0  0  0  0  0  0  0  0
  -25.6925    3.4589   30.0808 C   0  0  0  0  0  0  0  0  0  0  0  0
  -24.9697    3.2715   31.0073 O   0  0  0  0  0  0  0  0  0  0  0  0
  -26.2890    4.6160   29.8449 N   0  0  0  0  0  0  0  0  0  0  0  0
  -26.1370    5.7211   30.8029 C   0  0  0  0  0  0  0  0  0  0  0  0
  -27.2151    4.9165   28.7295 C   0  0  0  0  0  0  0  0  0  0  0  0
  -26.8272    6.5378   30.9031 C   0  0  0  0  0  0  0  0  0  0  0  0
  -28.1404    5.9543   28.9582 C   0  0  0  0  0  0  0  0  0  0  0  0
  -27.8460    6.9249   29.9292 C   0  0  0  0  0  0  0  0  0  0  0  0
  9 11  1  0
 10 12  1  0
 12 13  2  0
 12 14  1  0
 14 15  1  0
 14 16  1  0
 17 19  1  0
 18 19  1  0
 15 17  1  0
 18 16  1  0
  4 10  2  0
 10  9  1  0
  9  8  2  0
  8  7  1  0
  7  3  2  0
  1  2  2  0
  2  5  1  0
  5  6  2  0
  6  4  1  0
  4  3  1  0
  3  1  1  0
M  END

$$$$
