No_3543-gen_results/8p0m/2024-11-26-14-13-15/
     RDKit          3D

 19 20  0  0  0  0  0  0  0  0999 V2000
  -28.0162   -0.8135   28.8779 C   0  0  0  0  0  0  0  0  0  0  0  0
  -27.0636   -0.1190   28.6079 C   0  0  0  0  0  0  0  0  0  0  0  0
  -25.7923   -0.4302   29.0761 C   0  0  0  0  0  0  0  0  0  0  0  0
  -25.5756   -1.5654   29.9363 C   0  0  0  0  0  0  0  0  0  0  0  0
  -26.7354   -2.3004   30.2173 C   0  0  0  0  0  0  0  0  0  0  0  0
  -27.9184   -1.9537   29.7629 C   0  0  0  0  0  0  0  0  0  0  0  0
  -29.0001   -2.7012   30.1151 O   0  0  0  0  0  0  0  0  0  0  0  0
  -24.5290    0.3490   28.7998 C   0  0  0  0  0  0  0  0  0  0  0  0
  -24.4808    1.2113   27.7998 C   0  0  0  0  0  0  0  0  0  0  0  0
  -23.2478    1.8974   27.4951 C   0  0  0  0  0  0  0  0  0  0  0  0
  -22.0497    1.5890   28.1642 C   0  0  0  0  0  0  0  0  0  0  0  0
  -23.3072    0.0149   29.4618 C   0  0  0  0  0  0  0  0  0  0  0  0
  -22.0852    0.6899   29.1374 C   0  0  0  0  0  0  0  0  0  0  0  0
  -29.3635   -2.8123   31.4419 C   0  0  0  0  0  0  0  0  0  0  0  0
  -29.9239   -1.7794   31.9929 C   0  0  0  0  0  0  0  0  0  0  0  0
  -30.3918   -0.8167   31.2994 C   0  0  0  0  0  0  0  0  0  0  0  0
  -30.3977    0.4120   31.9019 C   0  0  0  0  0  0  0  0  0  0  0  0
  -30.3803    0.5307   33.3160 C   0  0  0  0  0  0  0  0  0  0  0  0
  -30.3886    1.8030   33.9600 C   0  0  0  0  0  0  0  0  0  0  0  0
  6  7  1  0
  3  8  1  0
  7 14  1  0
 14 15  1  0
 15 16  1  0
 16 17  2  3
 17 18  1  0
 18 19  2  0
  1  2  2  0
  2  3  1  0
  3  4  2  0
  4  5  1  0
  5  6  2  0
  6  1  1  0
  8  9  2  0
  9 10  1  0
 10 11  2  0
 11 13  1  0
 13 12  2  0
 12  8  1  0
M  END

$$$$
