No_3924-gen_results/8p0m/2024-11-26-14-13-15/
     RDKit          3D

 12 13  0  0  0  0  0  0  0  0999 V2000
  -28.0544   -1.0498   28.7246 N   0  0  0  0  0  0  0  0  0  0  0  0
  -27.7460   -0.0733   29.0098 C   0  0  0  0  0  0  0  0  0  0  0  0
  -27.1737    0.7565   28.1070 C   0  0  0  0  0  0  0  0  0  0  0  0
  -25.8200    1.2606   28.2149 C   0  0  0  0  0  0  0  0  0  0  0  0
  -25.3544    1.5791   29.1553 C   0  0  0  0  0  0  0  0  0  0  0  0
  -26.0062    1.0640   30.4405 C   0  0  0  0  0  0  0  0  0  0  0  0
  -27.0427    0.1770   30.2859 C   0  0  0  0  0  0  0  0  0  0  0  0
  -28.0630   -2.0750   29.7371 C   0  0  0  0  0  0  0  0  0  0  0  0
  -28.7387   -3.3410   29.5458 C   0  0  0  0  0  0  0  0  0  0  0  0
  -27.4767   -1.8861   31.0629 C   0  0  0  0  0  0  0  0  0  0  0  0
  -26.8280   -0.7522   31.2502 C   0  0  0  0  0  0  0  0  0  0  0  0
  -29.7485   -3.4764   29.2469 O   0  0  0  0  0  0  0  0  0  0  0  0
  9 12  2  0
  9  8  1  0
  2  3  1  0
  3  4  2  0
  4  5  1  0
  5  6  2  0
  6  7  1  0
  1  2  2  0
  2  7  1  0
  7 11  2  0
 11 10  1  0
 10  8  2  0
  8  1  1  0
M  END

$$$$
