No_3130-gen_results/8p0m/2024-11-26-14-13-15/
     RDKit          3D

 19 20  0  0  0  0  0  0  0  0999 V2000
  -28.1229   -1.3353   28.4874 O   0  0  0  0  0  0  0  0  0  0  0  0
  -27.0637   -0.8242   28.8687 C   0  0  0  0  0  0  0  0  0  0  0  0
  -26.9592    0.0926   29.7582 C   0  0  0  0  0  0  0  0  0  0  0  0
  -25.8012   -1.3565   28.3971 N   0  0  0  0  0  0  0  0  0  0  0  0
  -27.8641    0.8180   30.2806 C   0  0  0  0  0  0  0  0  0  0  0  0
  -24.6321   -1.0203   28.8274 C   0  0  0  0  0  0  0  0  0  0  0  0
  -24.4548    0.0299   29.6596 C   0  0  0  0  0  0  0  0  0  0  0  0
  -25.5474    0.6155   30.1733 C   0  0  0  0  0  0  0  0  0  0  0  0
  -28.6876    1.5302   29.6134 C   0  0  0  0  0  0  0  0  0  0  0  0
  -28.3706    1.9623   28.4096 C   0  0  0  0  0  0  0  0  0  0  0  0
  -27.3336    2.6778   28.1936 C   0  0  0  0  0  0  0  0  0  0  0  0
  -26.8146    3.1055   26.8679 C   0  0  0  0  0  0  0  0  0  0  0  0
  -25.4788    3.5024   26.6887 C   0  0  0  0  0  0  0  0  0  0  0  0
  -24.6050    3.6337   27.7829 C   0  0  0  0  0  0  0  0  0  0  0  0
  -25.1116    3.3867   29.0527 C   0  0  0  0  0  0  0  0  0  0  0  0
  -26.3303    2.8775   29.2265 C   0  0  0  0  0  0  0  0  0  0  0  0
  -29.2911    1.7951   27.2531 C   0  0  0  0  0  0  0  0  0  0  0  0
  -28.9218    1.2886   26.1370 C   0  0  0  0  0  0  0  0  0  0  0  0
  -29.6894    1.3313   24.9864 C   0  0  0  0  0  0  0  0  0  0  0  0
  1  2  2  0
  2  3  1  0
  2  4  1  0
  3  5  1  0
  4  6  1  0
  3  8  1  0
  7  8  1  0
  5  9  1  0
  9 10  1  0
 10 11  1  0
 10 17  1  0
 17 18  2  3
 18 19  1  0
  7  6  1  0
 11 12  2  0
 12 13  1  0
 13 14  2  0
 14 15  1  0
 15 16  2  0
 16 11  1  0
M  END

$$$$
