No_3623-gen_results/8p0m/2024-11-26-14-13-15/
     RDKit          3D

 29 33  0  0  0  0  0  0  0  0999 V2000
  -28.0162   -0.8135   28.8779 C   0  0  0  0  0  0  0  0  0  0  0  0
  -28.4690   -0.7850   29.8287 C   0  0  0  0  0  0  0  0  0  0  0  0
  -27.0871    0.2903   28.6377 C   0  0  0  0  0  0  0  0  0  0  0  0
  -26.2516    0.4114   27.4223 C   0  0  0  0  0  0  0  0  0  0  0  0
  -28.3913    0.1041   30.9805 C   0  0  0  0  0  0  0  0  0  0  0  0
  -27.5332    1.1666   30.7866 C   0  0  0  0  0  0  0  0  0  0  0  0
  -26.8281    1.2557   29.6454 C   0  0  0  0  0  0  0  0  0  0  0  0
  -25.7329    1.6893   27.1546 C   0  0  0  0  0  0  0  0  0  0  0  0
  -24.6745    1.7805   26.3311 C   0  0  0  0  0  0  0  0  0  0  0  0
  -23.4889    1.8293   26.5696 C   0  0  0  0  0  0  0  0  0  0  0  0
  -22.9284    1.7811   27.9020 C   0  0  0  0  0  0  0  0  0  0  0  0
  -22.1935    0.9390   28.3673 N   0  0  0  0  0  0  0  0  0  0  0  0
  -22.4761    0.3230   29.5789 C   0  0  0  0  0  0  0  0  0  0  0  0
  -22.2928   -1.1210   29.6787 C   0  0  0  0  0  0  0  0  0  0  0  0
  -23.5514   -1.7621   29.2822 C   0  0  0  0  0  0  0  0  0  0  0  0
  -26.9079   -0.1004   26.3385 O   0  0  0  0  0  0  0  0  0  0  0  0
  -24.5986   -1.4320   29.4194 C   0  0  0  0  0  0  0  0  0  0  0  0
  -25.7517   -2.3277   29.3340 C   0  0  0  0  0  0  0  0  0  0  0  0
  -25.2765   -3.7066   29.1887 C   0  0  0  0  0  0  0  0  0  0  0  0
  -24.0667   -4.0662   29.0421 C   0  0  0  0  0  0  0  0  0  0  0  0
  -23.1331   -3.2246   29.2094 C   0  0  0  0  0  0  0  0  0  0  0  0
  -26.6860    0.5637   25.1804 C   0  0  0  0  0  0  0  0  0  0  0  0
  -25.2980    1.1235   25.0932 C   0  0  0  0  0  0  0  0  0  0  0  0
  -27.3306    2.1897   31.8926 C   0  0  0  0  0  0  0  0  0  0  0  0
  -26.4907    3.0305   31.8019 C   0  0  0  0  0  0  0  0  0  0  0  0
  -25.7054    3.1416   30.5117 C   0  0  0  0  0  0  0  0  0  0  0  0
  -25.8758    2.2724   29.5368 C   0  0  0  0  0  0  0  0  0  0  0  0
  -25.3052    2.4956   28.1896 C   0  0  0  0  0  0  0  0  0  0  0  0
  -25.7147    4.1264   27.8377 C   0  0  0  0  0  0  0  0  0  0  0  0
  3  4  1  0
  4  8  1  0
  8  9  2  0
  9 10  1  0
 10 11  1  0
 11 12  2  3
 12 13  1  0
 13 14  1  0
 14 15  1  0
  4 16  1  0
 16 22  1  0
  9 23  1  0
 22 23  1  0
  8 28  1  0
 27 28  1  0
 28 29  1  0
 15 17  2  0
 17 18  1  0
 18 19  2  0
 19 20  1  0
 20 21  2  0
 21 15  1  0
  1  2  2  0
  2  5  1  0
  5  6  2  0
  7  3  2  0
  3  1  1  0
  6  7  1  0
  7 27  1  0
 27 26  2  0
 26 25  1  0
 25 24  2  0
 24  6  1  0
M  END

$$$$
