No_387-gen_results/8p0m/2024-11-26-14-13-15/
     RDKit          3D

 15 16  0  0  0  0  0  0  0  0999 V2000
  -28.0727   -1.2542   28.5316 F   0  0  0  0  0  0  0  0  0  0  0  0
  -27.0607   -0.6291   28.8721 C   0  0  0  0  0  0  0  0  0  0  0  0
  -27.1759    0.6153   29.3693 C   0  0  0  0  0  0  0  0  0  0  0  0
  -25.7305   -1.2692   28.7241 C   0  0  0  0  0  0  0  0  0  0  0  0
  -24.5526   -0.5078   29.0132 C   0  0  0  0  0  0  0  0  0  0  0  0
  -25.9465    1.3753   29.6814 C   0  0  0  0  0  0  0  0  0  0  0  0
  -24.6746    0.8198   29.5066 C   0  0  0  0  0  0  0  0  0  0  0  0
  -23.2634    1.6976   29.8437 Cl  0  0  0  0  0  0  0  0  0  0  0  0
  -23.3297   -0.9798   28.8990 F   0  0  0  0  0  0  0  0  0  0  0  0
  -28.3460    1.2020   29.5539 N   0  0  0  0  0  0  0  0  0  0  0  0
  -28.9930    1.8209   28.5543 C   0  0  0  0  0  0  0  0  0  0  0  0
  -30.3121    2.2169   28.7594 C   0  0  0  0  0  0  0  0  0  0  0  0
  -28.9768    1.0327   30.7968 C   0  0  0  0  0  0  0  0  0  0  0  0
  -30.2893    1.4688   31.0449 C   0  0  0  0  0  0  0  0  0  0  0  0
  -30.9148    2.1429   29.9917 C   0  0  0  0  0  0  0  0  0  0  0  0
  1  2  1  0
  7  8  1  0
  5  9  1  0
  3 10  1  0
 10 11  1  0
 10 13  1  0
 12 15  1  0
 14 15  1  0
 11 12  1  0
 14 13  1  0
  2  3  2  0
  3  6  1  0
  6  7  2  0
  7  5  1  0
  5  4  2  0
  4  2  1  0
M  END

$$$$
