No_3087-gen_results/8p0m/2024-11-26-14-13-15/
     RDKit          3D

 35 38  0  0  0  0  0  0  0  0999 V2000
  -28.1229   -1.3353   28.4874 O   0  0  0  0  0  0  0  0  0  0  0  0
  -27.4806   -0.4044   28.7094 C   0  0  0  0  0  0  0  0  0  0  0  0
  -26.3804   -0.0867   27.9394 C   0  0  0  0  0  0  0  0  0  0  0  0
  -27.6664    0.4468   29.8988 N   0  0  0  0  0  0  0  0  0  0  0  0
  -26.4087    0.8567   26.8802 C   0  0  0  0  0  0  0  0  0  0  0  0
  -27.5818    1.4877   26.5909 C   0  0  0  0  0  0  0  0  0  0  0  0
  -28.6544    1.3606   27.2050 C   0  0  0  0  0  0  0  0  0  0  0  0
  -28.3559    1.6294   29.6144 C   0  0  0  0  0  0  0  0  0  0  0  0
  -28.8808    1.9425   28.4848 C   0  0  0  0  0  0  0  0  0  0  0  0
  -25.1222   -0.8629   28.1979 C   0  0  0  0  0  0  0  0  0  0  0  0
  -23.9630   -0.1481   28.6364 C   0  0  0  0  0  0  0  0  0  0  0  0
  -23.7206    1.2271   28.4867 C   0  0  0  0  0  0  0  0  0  0  0  0
  -22.5400    1.7913   28.7634 C   0  0  0  0  0  0  0  0  0  0  0  0
  -21.4568    0.8789   29.0182 C   0  0  0  0  0  0  0  0  0  0  0  0
  -21.5834   -0.4777   29.2025 C   0  0  0  0  0  0  0  0  0  0  0  0
  -22.8255   -0.9896   28.9299 C   0  0  0  0  0  0  0  0  0  0  0  0
  -27.2504   -0.1153   31.1288 C   0  0  0  0  0  0  0  0  0  0  0  0
  -27.6991   -1.1931   31.5690 C   0  0  0  0  0  0  0  0  0  0  0  0
  -26.3081    0.7196   31.8265 C   0  0  0  0  0  0  0  0  0  0  0  0
  -25.6312    0.1425   32.9221 C   0  0  0  0  0  0  0  0  0  0  0  0
  -28.6741   -2.0047   30.8752 C   0  0  0  0  0  0  0  0  0  0  0  0
  -26.1529   -0.9648   33.4873 C   0  0  0  0  0  0  0  0  0  0  0  0
  -27.0665   -1.7114   32.7594 C   0  0  0  0  0  0  0  0  0  0  0  0
  -29.9733   -1.8887   31.0469 C   0  0  0  0  0  0  0  0  0  0  0  0
  -30.8993   -2.5714   30.3465 C   0  0  0  0  0  0  0  0  0  0  0  0
  -30.6055   -3.8992   30.0037 C   0  0  0  0  0  0  0  0  0  0  0  0
  -29.1695   -4.2915   30.0360 C   0  0  0  0  0  0  0  0  0  0  0  0
  -28.1740   -3.3755   30.5827 C   0  0  0  0  0  0  0  0  0  0  0  0
  -28.7772    2.1392   30.8044 O   0  0  0  0  0  0  0  0  0  0  0  0
  -29.7704    0.6932   26.5703 C   0  0  0  0  0  0  0  0  0  0  0  0
  -29.8401   -0.1360   25.8317 O   0  0  0  0  0  0  0  0  0  0  0  0
  -31.0889    1.0755   27.1239 N   0  0  0  0  0  0  0  0  0  0  0  0
  -32.3026    0.4045   26.6614 C   0  0  0  0  0  0  0  0  0  0  0  0
  -33.2568    0.3780   27.6163 C   0  0  0  0  0  0  0  0  0  0  0  0
  -34.1302   -0.5743   27.7047 C   0  0  0  0  0  0  0  0  0  0  0  0
  1  2  2  0
  2  3  1  0
  2  4  1  0
  3  5  2  3
  5  6  1  0
  6  7  2  3
  4  8  1  0
  7  9  1  0
  8  9  1  0
  3 10  1  0
  4 17  1  0
 18 21  1  0
  8 29  2  0
  7 30  1  0
 30 31  2  0
 30 32  1  0
 32 33  1  0
 33 34  1  0
 34 35  2  0
 10 11  1  0
 17 18  2  0
 18 23  1  0
 23 22  2  0
 22 20  1  0
 20 19  2  0
 19 17  1  0
 11 12  2  0
 12 13  1  0
 13 14  2  0
 14 15  1  0
 15 16  2  0
 16 11  1  0
 21 24  2  0
 24 25  1  0
 25 26  2  0
 26 27  1  0
 27 28  2  0
 28 21  1  0
M  END

$$$$
