No_3423-gen_results/8p0m/2024-11-26-14-13-15/
     RDKit          3D

 35 38  0  0  0  0  0  0  0  0999 V2000
  -28.0162   -0.8135   28.8779 C   0  0  0  0  0  0  0  0  0  0  0  0
  -27.0636   -0.1190   28.6079 C   0  0  0  0  0  0  0  0  0  0  0  0
  -26.8756    1.1325   28.9134 C   0  0  0  0  0  0  0  0  0  0  0  0
  -27.9014    1.8066   29.6436 C   0  0  0  0  0  0  0  0  0  0  0  0
  -29.0458   -0.2316   29.7181 C   0  0  0  0  0  0  0  0  0  0  0  0
  -28.9402    1.0517   30.0597 C   0  0  0  0  0  0  0  0  0  0  0  0
  -30.1632   -1.1170   30.1252 C   0  0  0  0  0  0  0  0  0  0  0  0
  -30.6370   -0.9936   31.3591 C   0  0  0  0  0  0  0  0  0  0  0  0
  -29.7644   -2.4969   29.8786 O   0  0  0  0  0  0  0  0  0  0  0  0
  -31.2494   -0.9713   29.0155 C   0  0  0  0  0  0  0  0  0  0  0  0
  -31.3060   -0.0033   28.2712 C   0  0  0  0  0  0  0  0  0  0  0  0
  -32.2454   -0.0043   27.1463 C   0  0  0  0  0  0  0  0  0  0  0  0
  -32.2662   -2.0076   28.9204 C   0  0  0  0  0  0  0  0  0  0  0  0
  -33.1815   -1.9952   27.9211 C   0  0  0  0  0  0  0  0  0  0  0  0
  -33.1796   -0.9424   27.0435 C   0  0  0  0  0  0  0  0  0  0  0  0
  -31.0057    0.0254   31.9898 C   0  0  0  0  0  0  0  0  0  0  0  0
  -31.5369    0.2107   33.1899 C   0  0  0  0  0  0  0  0  0  0  0  0
  -31.6283   -0.9564   33.9475 C   0  0  0  0  0  0  0  0  0  0  0  0
  -31.0949   -2.1009   32.2585 C   0  0  0  0  0  0  0  0  0  0  0  0
  -31.4311   -2.1065   33.4891 C   0  0  0  0  0  0  0  0  0  0  0  0
  -25.9035   -0.7066   27.7354 C   0  0  0  0  0  0  0  0  0  0  0  0
  -24.6929   -1.0626   28.5754 C   0  0  0  0  0  0  0  0  0  0  0  0
  -24.6621   -2.2577   29.1168 C   0  0  0  0  0  0  0  0  0  0  0  0
  -25.7009   -3.1891   29.1282 C   0  0  0  0  0  0  0  0  0  0  0  0
  -25.4888   -4.5953   29.3537 C   0  0  0  0  0  0  0  0  0  0  0  0
  -24.2084   -5.0719   29.1947 C   0  0  0  0  0  0  0  0  0  0  0  0
  -23.2010   -4.1835   28.7344 C   0  0  0  0  0  0  0  0  0  0  0  0
  -23.3794   -2.8843   28.7205 C   0  0  0  0  0  0  0  0  0  0  0  0
  -32.2347    1.1710   26.1613 C   0  0  0  0  0  0  0  0  0  0  0  0
  -32.3784    2.2323   26.4006 O   0  0  0  0  0  0  0  0  0  0  0  0
  -31.9175    0.7262   24.9594 O   0  0  0  0  0  0  0  0  0  0  0  0
  -23.7823    0.0237   28.8715 C   0  0  0  0  0  0  0  0  0  0  0  0
  -23.1406    0.1226   30.0325 C   0  0  0  0  0  0  0  0  0  0  0  0
  -23.3478    0.8814   27.7753 C   0  0  0  0  0  0  0  0  0  0  0  0
  -24.1365    1.8546   27.1495 C   0  0  0  0  0  0  0  0  0  0  0  0
  5  7  1  0
  7  8  1  0
  7  9  1  0
  7 10  1  0
  2 21  1  0
 21 22  1  0
 12 29  1  0
 29 30  2  0
 29 31  1  0
 22 32  1  0
 32 33  1  0
 32 34  1  0
 34 35  1  0
 22 23  1  0
  8 16  2  0
 16 17  1  0
 17 18  2  0
 18 20  1  0
 20 19  2  0
 19  8  1  0
 23 24  2  0
 24 25  1  0
 25 26  2  0
 26 27  1  0
 27 28  2  0
 28 23  1  0
  1  2  2  0
  2  3  1  0
  3  4  2  0
  4  6  1  0
  6  5  2  0
  5  1  1  0
 10 11  2  0
 11 12  1  0
 12 15  2  0
 15 14  1  0
 14 13  2  0
 13 10  1  0
M  END

$$$$
