No_3998-gen_results/8p0m/2024-11-26-14-13-15/
     RDKit          3D

 16 16  0  0  0  0  0  0  0  0999 V2000
  -28.1229   -1.3353   28.4874 O   0  0  0  0  0  0  0  0  0  0  0  0
  -27.4806   -0.4044   28.7094 C   0  0  0  0  0  0  0  0  0  0  0  0
  -26.3804   -0.0867   27.9395 C   0  0  0  0  0  0  0  0  0  0  0  0
  -27.6664    0.4468   29.8988 N   0  0  0  0  0  0  0  0  0  0  0  0
  -25.1773   -0.4388   28.3946 C   0  0  0  0  0  0  0  0  0  0  0  0
  -23.9281   -0.2469   27.6677 C   0  0  0  0  0  0  0  0  0  0  0  0
  -22.6979   -0.4046   28.4363 C   0  0  0  0  0  0  0  0  0  0  0  0
  -22.7943   -1.0875   29.7065 C   0  0  0  0  0  0  0  0  0  0  0  0
  -23.9663   -1.4068   30.3034 C   0  0  0  0  0  0  0  0  0  0  0  0
  -25.1322   -1.0549   29.7159 C   0  0  0  0  0  0  0  0  0  0  0  0
  -28.7610    0.1969   30.7687 C   0  0  0  0  0  0  0  0  0  0  0  0
  -29.6827   -0.3441   30.5684 C   0  0  0  0  0  0  0  0  0  0  0  0
  -30.8209   -0.5111   31.5051 C   0  0  0  0  0  0  0  0  0  0  0  0
  -31.9488   -1.2862   31.2681 C   0  0  0  0  0  0  0  0  0  0  0  0
  -32.0414   -1.9341   30.0089 C   0  0  0  0  0  0  0  0  0  0  0  0
  -31.0422   -1.8457   29.0747 C   0  0  0  0  0  0  0  0  0  0  0  0
  1  2  2  0
  2  3  1  0
  2  4  1  0
  4 11  1  0
 11 12  2  3
 12 13  1  0
 13 14  2  3
 14 15  1  0
 15 16  2  0
  3  5  1  0
  5  6  2  0
  6  7  1  0
  7  8  2  0
  8  9  1  0
  9 10  2  0
 10  5  1  0
M  END

$$$$
