No_3403-gen_results/8p0m/2024-11-26-14-13-15/
     RDKit          3D

 35 38  0  0  0  0  0  0  0  0999 V2000
  -28.0162   -0.8135   28.8779 C   0  0  0  0  0  0  0  0  0  0  0  0
  -28.4690   -0.7850   29.8287 C   0  0  0  0  0  0  0  0  0  0  0  0
  -26.5042   -0.7777   28.8766 C   0  0  0  0  0  0  0  0  0  0  0  0
  -25.8103   -0.8531   30.1028 C   0  0  0  0  0  0  0  0  0  0  0  0
  -27.9906   -0.8916   31.2257 C   0  0  0  0  0  0  0  0  0  0  0  0
  -26.6042   -0.8676   31.2652 C   0  0  0  0  0  0  0  0  0  0  0  0
  -30.0773   -0.8857   30.0240 C   0  0  0  0  0  0  0  0  0  0  0  0
  -30.6406   -1.8993   30.1420 O   0  0  0  0  0  0  0  0  0  0  0  0
  -30.6919    0.2904   30.2463 N   0  0  0  0  0  0  0  0  0  0  0  0
  -32.1049    0.3100   30.2994 C   0  0  0  0  0  0  0  0  0  0  0  0
  -29.9907    1.5859   30.2358 C   0  0  0  0  0  0  0  0  0  0  0  0
  -29.7000    2.2829   29.1280 C   0  0  0  0  0  0  0  0  0  0  0  0
  -29.8818    3.3494   29.0508 C   0  0  0  0  0  0  0  0  0  0  0  0
  -30.0047    4.2723   30.2396 C   0  0  0  0  0  0  0  0  0  0  0  0
  -29.5837    1.9284   31.5519 C   0  0  0  0  0  0  0  0  0  0  0  0
  -29.7747    3.4655   31.6070 C   0  0  0  0  0  0  0  0  0  0  0  0
  -25.6570   -0.7047   27.6647 C   0  0  0  0  0  0  0  0  0  0  0  0
  -25.2508    0.6558   27.3147 C   0  0  0  0  0  0  0  0  0  0  0  0
  -24.0017    0.9983   27.7320 C   0  0  0  0  0  0  0  0  0  0  0  0
  -23.4093    2.2252   27.1898 C   0  0  0  0  0  0  0  0  0  0  0  0
  -25.9666    1.4648   26.4804 C   0  0  0  0  0  0  0  0  0  0  0  0
  -27.2728    1.0108   26.0198 C   0  0  0  0  0  0  0  0  0  0  0  0
  -24.2028    3.0352   26.3791 C   0  0  0  0  0  0  0  0  0  0  0  0
  -25.4582    2.6738   26.0226 C   0  0  0  0  0  0  0  0  0  0  0  0
  -27.4565    0.7402   24.6271 C   0  0  0  0  0  0  0  0  0  0  0  0
  -28.6828    0.2733   24.2067 C   0  0  0  0  0  0  0  0  0  0  0  0
  -29.7379    0.7348   24.4715 C   0  0  0  0  0  0  0  0  0  0  0  0
  -30.9914    0.2574   24.0978 C   0  0  0  0  0  0  0  0  0  0  0  0
  -32.2283    0.7948   24.4072 C   0  0  0  0  0  0  0  0  0  0  0  0
  -32.2201    1.9199   25.2678 C   0  0  0  0  0  0  0  0  0  0  0  0
  -31.0934    2.5179   25.6759 C   0  0  0  0  0  0  0  0  0  0  0  0
  -29.8779    1.9982   25.3387 C   0  0  0  0  0  0  0  0  0  0  0  0
  -32.7650    0.6165   31.3436 C   0  0  0  0  0  0  0  0  0  0  0  0
  -34.1065    0.8308   31.3735 C   0  0  0  0  0  0  0  0  0  0  0  0
  -32.7594    0.0876   29.0403 C   0  0  0  0  0  0  0  0  0  0  0  0
  2  7  1  0
  7  8  1  0
  7  9  1  0
  9 10  1  0
  9 11  1  0
  3 17  1  0
 17 18  1  0
 21 22  1  0
 22 25  2  3
 25 26  1  0
 10 33  1  0
 33 34  2  0
 10 35  1  0
 26 27  1  0
 27 28  2  0
 28 29  1  0
 29 30  2  0
 30 31  1  0
 31 32  2  0
 32 27  1  0
 11 12  2  0
 12 13  1  0
 13 14  2  0
 14 16  1  0
 16 15  2  0
 15 11  1  0
  1  2  2  0
  2  5  1  0
  5  6  2  0
  6  4  1  0
  4  3  2  0
  3  1  1  0
 18 19  2  0
 19 20  1  0
 20 23  2  0
 23 24  1  0
 24 21  2  0
 21 18  1  0
M  END

$$$$
