No_3018-gen_results/8p0m/2024-11-26-14-13-15/
     RDKit          3D

 21 23  0  0  0  0  0  0  0  0999 V2000
  -28.0162   -0.8135   28.8779 C   0  0  0  0  0  0  0  0  0  0  0  0
  -27.0636   -0.1189   28.6079 C   0  0  0  0  0  0  0  0  0  0  0  0
  -26.8756    1.1325   28.9134 C   0  0  0  0  0  0  0  0  0  0  0  0
  -27.9014    1.8066   29.6436 C   0  0  0  0  0  0  0  0  0  0  0  0
  -29.0458   -0.2316   29.7181 C   0  0  0  0  0  0  0  0  0  0  0  0
  -28.9402    1.0517   30.0597 C   0  0  0  0  0  0  0  0  0  0  0  0
  -25.8732   -0.7125   27.8045 C   0  0  0  0  0  0  0  0  0  0  0  0
  -25.2858    0.0505   26.8000 C   0  0  0  0  0  0  0  0  0  0  0  0
  -25.2235    1.4626   27.0116 C   0  0  0  0  0  0  0  0  0  0  0  0
  -26.1409    2.0494   27.9719 C   0  0  0  0  0  0  0  0  0  0  0  0
  -24.2753    2.2168   26.2399 C   0  0  0  0  0  0  0  0  0  0  0  0
  -22.8504    2.0328   26.4147 Cl  0  0  0  0  0  0  0  0  0  0  0  0
  -24.4844    3.7901   26.6274 C   0  0  0  0  0  0  0  0  0  0  0  0
  -26.1119    3.4689   28.1143 C   0  0  0  0  0  0  0  0  0  0  0  0
  -25.3124    4.3240   27.4384 C   0  0  0  0  0  0  0  0  0  0  0  0
  -24.6873    2.2001   24.8763 O   0  0  0  0  0  0  0  0  0  0  0  0
  -25.4011    5.7459   27.8210 C   0  0  0  0  0  0  0  0  0  0  0  0
  -25.6608    6.1951   28.8420 O   0  0  0  0  0  0  0  0  0  0  0  0
  -25.0989    6.6166   26.7597 O   0  0  0  0  0  0  0  0  0  0  0  0
  -30.1158    1.7274   31.1524 Cl  0  0  0  0  0  0  0  0  0  0  0  0
  -24.6827    7.4946   26.5169 C   0  0  0  0  0  0  0  0  0  0  0  0
  9 11  1  0
 11 12  1  0
 11 13  1  0
 10 14  1  0
 13 15  2  0
 14 15  1  0
 11 16  1  0
 15 17  1  0
 17 18  2  0
 17 19  1  0
  6 20  1  0
 19 21  1  0
  1  2  2  0
  3  4  2  0
  4  6  1  0
  6  5  2  0
  5  1  1  0
  2  3  1  0
  3 10  1  0
 10  9  2  0
  9  8  1  0
  8  7  2  0
  7  2  1  0
M  END

$$$$
