No_370-gen_results/8p0m/2024-11-26-14-13-15/
     RDKit          3D

 14 15  0  0  0  0  0  0  0  0999 V2000
  -28.0162   -0.8135   28.8779 C   0  0  0  0  0  0  0  0  0  0  0  0
  -28.4690   -0.7850   29.8287 C   0  0  0  0  0  0  0  0  0  0  0  0
  -26.5455   -0.8762   28.8500 C   0  0  0  0  0  0  0  0  0  0  0  0
  -25.8041   -1.0324   30.0571 C   0  0  0  0  0  0  0  0  0  0  0  0
  -26.5373   -1.0386   31.2171 C   0  0  0  0  0  0  0  0  0  0  0  0
  -27.8843   -0.9532   31.1862 C   0  0  0  0  0  0  0  0  0  0  0  0
  -24.3555   -1.1121   30.0346 C   0  0  0  0  0  0  0  0  0  0  0  0
  -23.6610    0.1027   29.8448 C   0  0  0  0  0  0  0  0  0  0  0  0
  -23.9525    1.2330   30.4520 C   0  0  0  0  0  0  0  0  0  0  0  0
  -22.5070    0.1052   28.9319 C   0  0  0  0  0  0  0  0  0  0  0  0
  -22.0627    1.2509   28.2955 C   0  0  0  0  0  0  0  0  0  0  0  0
  -23.6270    2.5259   29.8947 C   0  0  0  0  0  0  0  0  0  0  0  0
  -22.5208    2.5083   28.8759 C   0  0  0  0  0  0  0  0  0  0  0  0
  -25.6114   -0.7413   27.3768 Cl  0  0  0  0  0  0  0  0  0  0  0  0
  4  7  1  0
  7  8  1  0
  3 14  1  0
  1  2  2  0
  2  6  1  0
  6  5  2  0
  5  4  1  0
  4  3  2  0
  3  1  1  0
  8  9  2  0
  9 12  1  0
 12 13  2  0
 13 11  1  0
 11 10  2  0
 10  8  1  0
M  END

$$$$
