No_3367-gen_results/8p0m/2024-11-26-14-13-15/
     RDKit          3D

 35 38  0  0  0  0  0  0  0  0999 V2000
  -28.0162   -0.8135   28.8779 C   0  0  0  0  0  0  0  0  0  0  0  0
  -27.0636   -0.1190   28.6079 C   0  0  0  0  0  0  0  0  0  0  0  0
  -25.7923   -0.4302   29.0761 C   0  0  0  0  0  0  0  0  0  0  0  0
  -25.5756   -1.5654   29.9363 C   0  0  0  0  0  0  0  0  0  0  0  0
  -26.7354   -2.3004   30.2173 C   0  0  0  0  0  0  0  0  0  0  0  0
  -27.9184   -1.9537   29.7629 C   0  0  0  0  0  0  0  0  0  0  0  0
  -27.1057    1.1023   27.7593 C   0  0  0  0  0  0  0  0  0  0  0  0
  -26.1219    1.4820   27.0232 C   0  0  0  0  0  0  0  0  0  0  0  0
  -24.7142    1.1299   27.4889 C   0  0  0  0  0  0  0  0  0  0  0  0
  -24.5718    0.0966   28.4066 C   0  0  0  0  0  0  0  0  0  0  0  0
  -23.5476    1.7679   26.9015 C   0  0  0  0  0  0  0  0  0  0  0  0
  -22.4527    1.9481   27.6194 N   0  0  0  0  0  0  0  0  0  0  0  0
  -23.5340    2.1547   25.7021 O   0  0  0  0  0  0  0  0  0  0  0  0
  -29.0006   -2.6566   30.1954 O   0  0  0  0  0  0  0  0  0  0  0  0
  -29.3837   -2.5483   31.4934 C   0  0  0  0  0  0  0  0  0  0  0  0
  -29.8313   -3.7732   31.9935 C   0  0  0  0  0  0  0  0  0  0  0  0
  -31.0278   -3.9388   31.7795 C   0  0  0  0  0  0  0  0  0  0  0  0
  -31.6841   -5.2702   32.0869 C   0  0  0  0  0  0  0  0  0  0  0  0
  -31.0519   -6.2219   31.9756 C   0  0  0  0  0  0  0  0  0  0  0  0
  -31.6083   -7.5327   32.2104 C   0  0  0  0  0  0  0  0  0  0  0  0
  -29.6117   -6.2540   31.8445 C   0  0  0  0  0  0  0  0  0  0  0  0
  -28.9649   -4.9610   31.9036 C   0  0  0  0  0  0  0  0  0  0  0  0
  -32.0801   -8.2468   31.1622 C   0  0  0  0  0  0  0  0  0  0  0  0
  -32.5718   -7.5929   30.1334 C   0  0  0  0  0  0  0  0  0  0  0  0
  -32.8461   -8.3122   28.8929 C   0  0  0  0  0  0  0  0  0  0  0  0
  -32.5505   -9.6640   28.8680 C   0  0  0  0  0  0  0  0  0  0  0  0
  -31.7690   -9.6303   30.8550 C   0  0  0  0  0  0  0  0  0  0  0  0
  -32.0101  -10.3259   29.8035 C   0  0  0  0  0  0  0  0  0  0  0  0
  -31.6561   -8.1390   33.5156 C   0  0  0  0  0  0  0  0  0  0  0  0
  -28.1444   -2.0977   32.3400 C   0  0  0  0  0  0  0  0  0  0  0  0
  -28.2030   -0.7012   32.7232 C   0  0  0  0  0  0  0  0  0  0  0  0
  -29.3044    0.0408   32.8601 C   0  0  0  0  0  0  0  0  0  0  0  0
  -30.2160   -0.1839   33.5568 C   0  0  0  0  0  0  0  0  0  0  0  0
  -31.0787    0.2746   33.9400 C   0  0  0  0  0  0  0  0  0  0  0  0
  -29.3010    1.2789   32.0227 C   0  0  0  0  0  0  0  0  0  0  0  0
  9 11  1  0
 11 12  1  0
 11 13  2  0
  6 14  1  0
 14 15  1  0
 19 20  1  0
 20 23  1  0
 20 29  1  0
 15 30  1  0
 30 31  1  0
 31 32  1  0
 32 33  2  3
 33 34  1  0
 32 35  1  0
 15 16  1  0
  1  2  2  0
  3  4  2  0
  4  5  1  0
  5  6  2  0
  6  1  1  0
 16 17  2  0
 17 18  1  0
 18 19  2  0
 19 21  1  0
 21 22  2  0
 22 16  1  0
  2  3  1  0
  3 10  1  0
 10  9  2  0
  9  8  1  0
  8  7  2  0
  7  2  1  0
 23 24  2  0
 24 25  1  0
 25 26  2  0
 26 28  1  0
 28 27  2  0
 27 23  1  0
M  END

$$$$
