No_3000-gen_results/8p0m/2024-11-26-14-13-15/
     RDKit          3D

 35 37  0  0  0  0  0  0  0  0999 V2000
  -28.0162   -0.8135   28.8779 C   0  0  0  0  0  0  0  0  0  0  0  0
  -28.4690   -0.7850   29.8287 C   0  0  0  0  0  0  0  0  0  0  0  0
  -27.1356    0.2359   28.5352 C   0  0  0  0  0  0  0  0  0  0  0  0
  -26.8745    1.2825   29.3982 C   0  0  0  0  0  0  0  0  0  0  0  0
  -29.3953   -1.9237   30.2863 C   0  0  0  0  0  0  0  0  0  0  0  0
  -27.5236    1.2089   30.6379 C   0  0  0  0  0  0  0  0  0  0  0  0
  -28.3224    0.1273   30.9590 C   0  0  0  0  0  0  0  0  0  0  0  0
  -29.1291   -3.1172   30.1521 F   0  0  0  0  0  0  0  0  0  0  0  0
  -29.7564   -1.8044   31.6511 F   0  0  0  0  0  0  0  0  0  0  0  0
  -30.5950   -1.7515   29.6771 F   0  0  0  0  0  0  0  0  0  0  0  0
  -26.4193    0.2908   27.1845 C   0  0  0  0  0  0  0  0  0  0  0  0
  -26.8496    0.7939   26.1862 C   0  0  0  0  0  0  0  0  0  0  0  0
  -26.1657    0.6353   24.9454 C   0  0  0  0  0  0  0  0  0  0  0  0
  -25.0255   -0.0312   27.2185 C   0  0  0  0  0  0  0  0  0  0  0  0
  -24.4362   -0.5402   28.5656 C   0  0  0  0  0  0  0  0  0  0  0  0
  -24.7904    0.2715   24.9833 C   0  0  0  0  0  0  0  0  0  0  0  0
  -24.2649   -0.0093   26.1483 C   0  0  0  0  0  0  0  0  0  0  0  0
  -23.3352    0.3041   29.1078 C   0  0  0  0  0  0  0  0  0  0  0  0
  -22.9175    1.3407   28.5993 C   0  0  0  0  0  0  0  0  0  0  0  0
  -22.8285   -0.2887   30.3643 C   0  0  0  0  0  0  0  0  0  0  0  0
  -24.7181   -1.7973   29.0438 C   0  0  0  0  0  0  0  0  0  0  0  0
  -24.2549   -2.2609   30.2865 C   0  0  0  0  0  0  0  0  0  0  0  0
  -23.2564   -1.4493   30.9342 C   0  0  0  0  0  0  0  0  0  0  0  0
  -21.7696    1.4099   28.0251 O   0  0  0  0  0  0  0  0  0  0  0  0
  -23.6484    2.4799   28.6434 O   0  0  0  0  0  0  0  0  0  0  0  0
  -28.3369    1.1214   25.9982 C   0  0  0  0  0  0  0  0  0  0  0  0
  -28.7554    2.2965   26.4254 N   0  0  0  0  0  0  0  0  0  0  0  0
  -29.9107    2.5239   27.0672 C   0  0  0  0  0  0  0  0  0  0  0  0
  -30.6772    1.6286   27.2345 O   0  0  0  0  0  0  0  0  0  0  0  0
  -30.1702    3.8698   27.6419 C   0  0  0  0  0  0  0  0  0  0  0  0
  -27.7845    3.4789   26.2248 C   0  0  0  0  0  0  0  0  0  0  0  0
  -31.0581    4.0946   28.5314 C   0  0  0  0  0  0  0  0  0  0  0  0
  -31.7793    3.2161   29.1310 C   0  0  0  0  0  0  0  0  0  0  0  0
  -32.9171    3.5550   29.8808 C   0  0  0  0  0  0  0  0  0  0  0  0
  -33.7095    2.5788   30.5831 C   0  0  0  0  0  0  0  0  0  0  0  0
  2  5  1  0
  5  8  1  0
  5  9  1  0
  5 10  1  0
  3 11  1  0
 14 15  1  0
 18 19  1  0
 19 24  2  0
 19 25  1  0
 12 26  1  0
 26 27  1  0
 27 28  1  0
 28 29  2  0
 28 30  1  0
 27 31  1  0
 30 32  2  3
 32 33  1  0
 33 34  2  3
 34 35  1  0
 15 18  2  0
 18 20  1  0
 20 23  2  0
 23 22  1  0
 22 21  2  0
 21 15  1  0
 11 12  2  0
 12 13  1  0
 13 16  2  0
 16 17  1  0
 17 14  2  0
 14 11  1  0
  1  2  2  0
  2  7  1  0
  7  6  2  0
  6  4  1  0
  4  3  2  0
  3  1  1  0
M  END

$$$$
