No_3501-gen_results/8p0m/2024-11-26-14-13-15/
     RDKit          3D

 16 17  0  0  0  0  0  0  0  0999 V2000
  -28.0162   -0.8135   28.8779 C   0  0  0  0  0  0  0  0  0  0  0  0
  -28.4690   -0.7850   29.8287 C   0  0  0  0  0  0  0  0  0  0  0  0
  -27.0871    0.2903   28.6377 C   0  0  0  0  0  0  0  0  0  0  0  0
  -26.8317    1.2487   29.5869 C   0  0  0  0  0  0  0  0  0  0  0  0
  -28.3914    0.0801   31.0065 C   0  0  0  0  0  0  0  0  0  0  0  0
  -27.4940    1.1521   30.7841 C   0  0  0  0  0  0  0  0  0  0  0  0
  -26.3172    0.3994   27.3653 C   0  0  0  0  0  0  0  0  0  0  0  0
  -24.9405    0.2550   27.5028 C   0  0  0  0  0  0  0  0  0  0  0  0
  -26.9129    0.5860   26.1397 C   0  0  0  0  0  0  0  0  0  0  0  0
  -26.1769    0.4192   24.9937 C   0  0  0  0  0  0  0  0  0  0  0  0
  -24.2544    0.1042   28.8040 C   0  0  0  0  0  0  0  0  0  0  0  0
  -24.7371    0.3389   25.0978 C   0  0  0  0  0  0  0  0  0  0  0  0
  -24.1800    0.3507   26.2962 C   0  0  0  0  0  0  0  0  0  0  0  0
  -23.7684   -1.0257   29.5366 Cl  0  0  0  0  0  0  0  0  0  0  0  0
  -23.7342    1.4651   29.2645 C   0  0  0  0  0  0  0  0  0  0  0  0
  -23.2221    2.3149   28.5836 O   0  0  0  0  0  0  0  0  0  0  0  0
  3  7  1  0
  8 11  1  0
 11 14  1  0
 11 15  1  0
 15 16  2  0
  1  2  2  0
  2  5  1  0
  5  6  2  0
  6  4  1  0
  4  3  2  0
  3  1  1  0
  7  8  2  0
  8 13  1  0
 13 12  2  0
 12 10  1  0
 10  9  2  0
  9  7  1  0
M  END

$$$$
