No_372-gen_results/8p0m/2024-11-26-14-13-15/
     RDKit          3D

 20 21  0  0  0  0  0  0  0  0999 V2000
  -28.0162   -0.8135   28.8779 C   0  0  0  0  0  0  0  0  0  0  0  0
  -28.4690   -0.7850   29.8287 C   0  0  0  0  0  0  0  0  0  0  0  0
  -26.5455   -0.8762   28.8500 C   0  0  0  0  0  0  0  0  0  0  0  0
  -25.8041   -1.0324   30.0571 C   0  0  0  0  0  0  0  0  0  0  0  0
  -27.9437   -0.9869   31.2075 C   0  0  0  0  0  0  0  0  0  0  0  0
  -26.5825   -1.0386   31.2231 C   0  0  0  0  0  0  0  0  0  0  0  0
  -30.0606   -0.7371   29.9024 C   0  0  0  0  0  0  0  0  0  0  0  0
  -30.6052    0.0855   30.7066 O   0  0  0  0  0  0  0  0  0  0  0  0
  -30.6160   -1.1030   28.8595 O   0  0  0  0  0  0  0  0  0  0  0  0
  -24.3914   -1.2008   30.2867 C   0  0  0  0  0  0  0  0  0  0  0  0
  -23.7203   -1.9350   29.3803 C   0  0  0  0  0  0  0  0  0  0  0  0
  -23.6830   -0.4499   31.2334 C   0  0  0  0  0  0  0  0  0  0  0  0
  -24.3001   -2.7938   28.4988 C   0  0  0  0  0  0  0  0  0  0  0  0
  -23.3766    0.9465   31.0010 C   0  0  0  0  0  0  0  0  0  0  0  0
  -24.3426    1.9502   31.3866 C   0  0  0  0  0  0  0  0  0  0  0  0
  -24.5945    2.1234   32.5610 C   0  0  0  0  0  0  0  0  0  0  0  0
  -25.6377    3.2118   32.9306 C   0  0  0  0  0  0  0  0  0  0  0  0
  -26.1270    3.9803   31.8934 C   0  0  0  0  0  0  0  0  0  0  0  0
  -24.8517    2.8511   30.3226 C   0  0  0  0  0  0  0  0  0  0  0  0
  -25.7586    3.7878   30.6213 C   0  0  0  0  0  0  0  0  0  0  0  0
  2  7  1  0
  7  8  1  0
  7  9  2  0
  4 10  1  0
 10 11  1  0
 10 12  1  0
 11 13  1  0
 12 14  1  0
 14 15  1  0
 15 16  2  0
 16 17  1  0
 17 18  2  0
 18 20  1  0
 20 19  2  0
 19 15  1  0
  1  2  2  0
  2  5  1  0
  5  6  2  0
  6  4  1  0
  4  3  2  0
  3  1  1  0
M  END

$$$$
