No_3456-gen_results/8p0m/2024-11-26-14-13-15/
     RDKit          3D

 16 17  0  0  0  0  0  0  0  0999 V2000
  -28.0162   -0.8135   28.8779 C   0  0  0  0  0  0  0  0  0  0  0  0
  -27.0636   -0.1189   28.6079 C   0  0  0  0  0  0  0  0  0  0  0  0
  -26.8756    1.1325   28.9134 C   0  0  0  0  0  0  0  0  0  0  0  0
  -27.9014    1.8066   29.6436 C   0  0  0  0  0  0  0  0  0  0  0  0
  -29.0458   -0.2316   29.7181 C   0  0  0  0  0  0  0  0  0  0  0  0
  -28.9402    1.0517   30.0597 C   0  0  0  0  0  0  0  0  0  0  0  0
  -25.9795   -0.6907   27.8753 O   0  0  0  0  0  0  0  0  0  0  0  0
  -24.9341   -1.2498   28.6642 C   0  0  0  0  0  0  0  0  0  0  0  0
  -24.9389   -2.3910   29.0877 C   0  0  0  0  0  0  0  0  0  0  0  0
  -23.7241   -0.4325   28.7213 C   0  0  0  0  0  0  0  0  0  0  0  0
  -22.6020   -0.9900   29.4036 C   0  0  0  0  0  0  0  0  0  0  0  0
  -23.8399   -2.9975   29.7280 C   0  0  0  0  0  0  0  0  0  0  0  0
  -22.6741   -2.2577   29.8739 C   0  0  0  0  0  0  0  0  0  0  0  0
  -30.1938   -1.1004   30.1307 C   0  0  0  0  0  0  0  0  0  0  0  0
  -30.7564   -0.8333   30.9470 O   0  0  0  0  0  0  0  0  0  0  0  0
  -30.3163   -2.1626   29.4008 O   0  0  0  0  0  0  0  0  0  0  0  0
  2  7  1  0
  7  8  1  0
  5 14  1  0
 14 15  2  0
 14 16  1  0
  1  2  2  0
  2  3  1  0
  3  4  2  0
  4  6  1  0
  6  5  2  0
  5  1  1  0
  8  9  2  0
  9 12  1  0
 12 13  2  0
 13 11  1  0
 11 10  2  0
 10  8  1  0
M  END

$$$$
