No_308-gen_results/8p0m/2024-11-26-14-13-15/
     RDKit          3D

 28 31  0  0  0  0  0  0  0  0999 V2000
  -28.0162   -0.8135   28.8779 C   0  0  0  0  0  0  0  0  0  0  0  0
  -27.0636   -0.1189   28.6079 C   0  0  0  0  0  0  0  0  0  0  0  0
  -25.7923   -0.4302   29.0761 C   0  0  0  0  0  0  0  0  0  0  0  0
  -25.5756   -1.5654   29.9363 C   0  0  0  0  0  0  0  0  0  0  0  0
  -26.7354   -2.3004   30.2173 C   0  0  0  0  0  0  0  0  0  0  0  0
  -27.9184   -1.9537   29.7629 C   0  0  0  0  0  0  0  0  0  0  0  0
  -27.1057    1.1023   27.7593 C   0  0  0  0  0  0  0  0  0  0  0  0
  -26.7157    2.2350   27.9945 C   0  0  0  0  0  0  0  0  0  0  0  0
  -27.6806    0.8547   26.4259 C   0  0  0  0  0  0  0  0  0  0  0  0
  -26.0318    2.5935   29.1910 C   0  0  0  0  0  0  0  0  0  0  0  0
  -26.8615    3.3798   27.0755 C   0  0  0  0  0  0  0  0  0  0  0  0
  -27.4568    3.2690   25.8921 C   0  0  0  0  0  0  0  0  0  0  0  0
  -27.7384    1.7583   25.6376 C   0  0  0  0  0  0  0  0  0  0  0  0
  -24.6234    2.4357   29.3160 C   0  0  0  0  0  0  0  0  0  0  0  0
  -26.4740    3.8343   29.9246 C   0  0  0  0  0  0  0  0  0  0  0  0
  -26.1203    3.8435   31.2657 C   0  0  0  0  0  0  0  0  0  0  0  0
  -24.6307    3.7844   31.4926 C   0  0  0  0  0  0  0  0  0  0  0  0
  -24.1977    2.4782   30.8748 O   0  0  0  0  0  0  0  0  0  0  0  0
  -26.6265    5.0881   32.0762 C   0  0  0  0  0  0  0  0  0  0  0  0
  -26.3368    6.1133   31.7037 O   0  0  0  0  0  0  0  0  0  0  0  0
  -26.9953    4.8048   33.3808 N   0  0  0  0  0  0  0  0  0  0  0  0
  -27.2629    3.5365   33.9718 C   0  0  0  0  0  0  0  0  0  0  0  0
  -27.4024    3.5058   35.2406 C   0  0  0  0  0  0  0  0  0  0  0  0
  -27.3813    4.6395   36.0563 C   0  0  0  0  0  0  0  0  0  0  0  0
  -27.0567    5.8801   35.5103 C   0  0  0  0  0  0  0  0  0  0  0  0
  -26.8100    5.9401   34.2072 C   0  0  0  0  0  0  0  0  0  0  0  0
  -23.7502    2.0805   28.6255 O   0  0  0  0  0  0  0  0  0  0  0  0
  -29.3722   -2.7295   30.1213 Cl  0  0  0  0  0  0  0  0  0  0  0  0
  2  7  1  0
  8 10  1  0
 10 14  1  0
 10 15  1  0
 15 16  1  0
 16 17  1  0
 14 18  1  0
 17 18  1  0
 16 19  1  0
 19 20  2  0
 19 21  1  0
 21 22  1  0
 23 24  1  0
 21 26  1  0
 25 26  1  0
 14 27  2  0
  6 28  1  0
 22 23  1  0
 24 25  1  0
  1  2  2  0
  2  3  1  0
  3  4  2  0
  4  5  1  0
  5  6  2  0
  6  1  1  0
  7  8  2  0
  8 11  1  0
 11 12  2  0
 12 13  1  0
 13  9  2  0
  9  7  1  0
M  END

$$$$
