No_3750-gen_results/8p0m/2024-11-26-14-13-15/
     RDKit          3D

 19 20  0  0  0  0  0  0  0  0999 V2000
  -28.0162   -0.8135   28.8779 C   0  0  0  0  0  0  0  0  0  0  0  0
  -28.4690   -0.7850   29.8287 C   0  0  0  0  0  0  0  0  0  0  0  0
  -28.1960    0.3478   28.0550 C   0  0  0  0  0  0  0  0  0  0  0  0
  -29.0191    1.3501   28.3782 C   0  0  0  0  0  0  0  0  0  0  0  0
  -29.4107    0.1803   30.3782 C   0  0  0  0  0  0  0  0  0  0  0  0
  -29.6059    1.2495   29.6193 C   0  0  0  0  0  0  0  0  0  0  0  0
  -27.4597    0.3802   26.7091 C   0  0  0  0  0  0  0  0  0  0  0  0
  -26.1039    0.2914   26.7009 N   0  0  0  0  0  0  0  0  0  0  0  0
  -25.3234    0.9043   25.8746 C   0  0  0  0  0  0  0  0  0  0  0  0
  -24.3292    1.9488   26.4461 C   0  0  0  0  0  0  0  0  0  0  0  0
  -24.6851    2.5653   27.5232 C   0  0  0  0  0  0  0  0  0  0  0  0
  -25.4083   -0.5867   27.7262 C   0  0  0  0  0  0  0  0  0  0  0  0
  -24.0214    3.3989   28.3276 C   0  0  0  0  0  0  0  0  0  0  0  0
  -24.7394    4.0356   29.4229 C   0  0  0  0  0  0  0  0  0  0  0  0
  -26.1835    3.8954   29.4318 C   0  0  0  0  0  0  0  0  0  0  0  0
  -26.8353    3.1018   28.5233 C   0  0  0  0  0  0  0  0  0  0  0  0
  -26.1098    2.5375   27.6537 C   0  0  0  0  0  0  0  0  0  0  0  0
  -26.5916    3.4340   26.4656 C   0  0  0  0  0  0  0  0  0  0  0  0
  -28.0988    0.3739   25.7009 O   0  0  0  0  0  0  0  0  0  0  0  0
  3  7  1  0
  7  8  1  0
  8  9  1  0
  9 10  1  0
 10 11  1  0
  8 12  1  0
 17 18  1  0
  7 19  2  0
 11 13  2  0
 13 14  1  0
 14 15  2  0
 15 16  1  0
 16 17  2  0
 17 11  1  0
  1  2  2  0
  2  5  1  0
  5  6  2  0
  6  4  1  0
  4  3  2  0
  3  1  1  0
M  END

$$$$
