No_3030-gen_results/8p0m/2024-11-26-14-13-15/
     RDKit          3D

 20 22  0  0  0  0  0  0  0  0999 V2000
  -28.1229   -1.3353   28.4874 O   0  0  0  0  0  0  0  0  0  0  0  0
  -27.0637   -0.8242   28.8687 C   0  0  0  0  0  0  0  0  0  0  0  0
  -25.9464   -1.0396   28.8492 C   0  0  0  0  0  0  0  0  0  0  0  0
  -24.7602   -0.1562   29.1644 C   0  0  0  0  0  0  0  0  0  0  0  0
  -25.0917    1.0791   29.6490 C   0  0  0  0  0  0  0  0  0  0  0  0
  -26.4090    1.4383   29.7067 C   0  0  0  0  0  0  0  0  0  0  0  0
  -27.3694    0.6586   29.4148 C   0  0  0  0  0  0  0  0  0  0  0  0
  -23.4556   -0.5448   29.1072 N   0  0  0  0  0  0  0  0  0  0  0  0
  -22.4655    0.2732   28.6269 C   0  0  0  0  0  0  0  0  0  0  0  0
  -21.1197   -0.2789   28.7008 C   0  0  0  0  0  0  0  0  0  0  0  0
  -23.0512   -1.8119   29.4041 C   0  0  0  0  0  0  0  0  0  0  0  0
  -22.6300    1.5776   28.0852 C   0  0  0  0  0  0  0  0  0  0  0  0
  -21.4987    2.1142   27.4789 N   0  0  0  0  0  0  0  0  0  0  0  0
  -20.9588   -1.5068   29.1077 N   0  0  0  0  0  0  0  0  0  0  0  0
  -21.9248   -2.2328   29.5120 C   0  0  0  0  0  0  0  0  0  0  0  0
  -23.7810    2.1280   27.8620 N   0  0  0  0  0  0  0  0  0  0  0  0
  -23.3946    3.3061   27.0289 C   0  0  0  0  0  0  0  0  0  0  0  0
  -22.1852    3.1098   26.6960 N   0  0  0  0  0  0  0  0  0  0  0  0
  -24.4152    4.1601   26.5019 C   0  0  0  0  0  0  0  0  0  0  0  0
  -25.5065    4.1053   26.8790 C   0  0  0  0  0  0  0  0  0  0  0  0
  1  2  2  0
  2  3  1  0
  3  4  1  0
  4  5  1  0
  5  6  1  0
  2  7  1  0
  4  8  1  0
  8  9  1  0
  8 11  1  0
  9 12  1  0
 12 13  2  0
 10 14  1  0
 12 16  1  0
 16 17  1  0
 13 18  1  0
 17 18  2  0
 17 19  1  0
 19 20  2  0
  9 10  1  0
 14 15  1  0
 15 11  1  0
  6  7  1  0
M  END

$$$$
