No_3065-gen_results/8p0m/2024-11-26-14-13-15/
     RDKit          3D

 28 30  0  0  0  0  0  0  0  0999 V2000
  -28.0162   -0.8135   28.8779 C   0  0  0  0  0  0  0  0  0  0  0  0
  -28.4690   -0.7850   29.8287 C   0  0  0  0  0  0  0  0  0  0  0  0
  -28.1816    0.4277   28.1134 C   0  0  0  0  0  0  0  0  0  0  0  0
  -27.4498    0.6435   26.8500 C   0  0  0  0  0  0  0  0  0  0  0  0
  -26.1815    0.0357   26.7145 C   0  0  0  0  0  0  0  0  0  0  0  0
  -25.7800   -0.9326   27.6938 C   0  0  0  0  0  0  0  0  0  0  0  0
  -24.4665   -1.4639   27.6888 C   0  0  0  0  0  0  0  0  0  0  0  0
  -26.6651   -1.2379   28.7939 C   0  0  0  0  0  0  0  0  0  0  0  0
  -28.4617   -2.0283   30.4760 F   0  0  0  0  0  0  0  0  0  0  0  0
  -29.9618   -0.7283   29.7364 F   0  0  0  0  0  0  0  0  0  0  0  0
  -28.2498    0.0296   30.8270 F   0  0  0  0  0  0  0  0  0  0  0  0
  -23.4612   -0.6479   28.5312 C   0  0  0  0  0  0  0  0  0  0  0  0
  -23.0961    0.5904   28.1647 C   0  0  0  0  0  0  0  0  0  0  0  0
  -22.1563    1.0832   27.8683 C   0  0  0  0  0  0  0  0  0  0  0  0
  -21.9658    2.4943   27.4646 C   0  0  0  0  0  0  0  0  0  0  0  0
  -23.2430    3.0646   27.2946 C   0  0  0  0  0  0  0  0  0  0  0  0
  -24.2324    1.6178   27.8396 C   0  0  0  0  0  0  0  0  0  0  0  0
  -27.8823    1.6784   25.9763 C   0  0  0  0  0  0  0  0  0  0  0  0
  -28.2168    1.1966   24.7736 C   0  0  0  0  0  0  0  0  0  0  0  0
  -29.3417    0.4417   24.6976 C   0  0  0  0  0  0  0  0  0  0  0  0
  -29.5538   -0.5580   23.9598 C   0  0  0  0  0  0  0  0  0  0  0  0
  -30.1112   -1.8076   24.0007 C   0  0  0  0  0  0  0  0  0  0  0  0
  -31.0833   -1.8841   25.0797 C   0  0  0  0  0  0  0  0  0  0  0  0
  -31.1435   -0.7374   25.9768 C   0  0  0  0  0  0  0  0  0  0  0  0
  -30.2407    0.3194   25.8683 C   0  0  0  0  0  0  0  0  0  0  0  0
  -27.9177    3.0424   26.2850 C   0  0  0  0  0  0  0  0  0  0  0  0
  -26.8988    3.6392   26.8569 C   0  0  0  0  0  0  0  0  0  0  0  0
  -26.8422    5.0194   27.1958 C   0  0  0  0  0  0  0  0  0  0  0  0
  1  2  1  0
  6  7  1  0
  2  9  1  0
  2 10  1  0
  2 11  1  0
  7 12  1  0
 12 13  1  0
 13 14  2  0
 14 15  1  0
 15 16  2  0
 13 17  1  0
 16 17  1  0
  4 18  1  0
 18 19  1  0
 19 20  1  0
 18 26  1  0
 26 27  2  3
 27 28  1  0
  1  3  2  0
  3  4  1  0
  4  5  2  0
  5  6  1  0
  6  8  2  0
  8  1  1  0
 20 21  2  0
 21 22  1  0
 22 23  2  0
 23 24  1  0
 24 25  2  0
 25 20  1  0
M  END

$$$$
