No_3949-gen_results/8p0m/2024-11-26-14-13-15/
     RDKit          3D

 26 28  0  0  0  0  0  0  0  0999 V2000
  -28.0162   -0.8135   28.8779 C   0  0  0  0  0  0  0  0  0  0  0  0
  -28.4690   -0.7850   29.8287 C   0  0  0  0  0  0  0  0  0  0  0  0
  -26.5455   -0.8762   28.8500 C   0  0  0  0  0  0  0  0  0  0  0  0
  -25.8041   -1.0324   30.0571 C   0  0  0  0  0  0  0  0  0  0  0  0
  -27.9437   -0.9869   31.2075 C   0  0  0  0  0  0  0  0  0  0  0  0
  -24.4008   -1.0969   30.0965 C   0  0  0  0  0  0  0  0  0  0  0  0
  -26.5612   -1.0746   31.2270 C   0  0  0  0  0  0  0  0  0  0  0  0
  -23.7342    0.1405   29.9379 C   0  0  0  0  0  0  0  0  0  0  0  0
  -22.4073    0.1808   29.4004 C   0  0  0  0  0  0  0  0  0  0  0  0
  -21.7778   -1.0662   29.1520 C   0  0  0  0  0  0  0  0  0  0  0  0
  -22.5489   -2.1421   29.0806 N   0  0  0  0  0  0  0  0  0  0  0  0
  -23.7927   -2.2744   29.5423 C   0  0  0  0  0  0  0  0  0  0  0  0
  -24.3532   -3.4227   29.5135 N   0  0  0  0  0  0  0  0  0  0  0  0
  -30.0879   -0.6967   29.9144 C   0  0  0  0  0  0  0  0  0  0  0  0
  -30.5141   -0.1953   28.9775 O   0  0  0  0  0  0  0  0  0  0  0  0
  -30.7898   -1.1385   30.9675 N   0  0  0  0  0  0  0  0  0  0  0  0
  -32.2223   -1.0400   30.9598 C   0  0  0  0  0  0  0  0  0  0  0  0
  -32.9043   -0.3058   30.5781 C   0  0  0  0  0  0  0  0  0  0  0  0
  -34.3304   -0.3062   30.5919 C   0  0  0  0  0  0  0  0  0  0  0  0
  -32.7391   -2.2328   31.6863 C   0  0  0  0  0  0  0  0  0  0  0  0
  -34.1325   -2.3106   31.7786 C   0  0  0  0  0  0  0  0  0  0  0  0
  -34.8979   -1.3456   31.2825 C   0  0  0  0  0  0  0  0  0  0  0  0
  -36.2091   -1.4327   31.4013 F   0  0  0  0  0  0  0  0  0  0  0  0
  -24.3244    1.4277   30.4759 C   0  0  0  0  0  0  0  0  0  0  0  0
  -24.6826    2.3350   29.6633 O   0  0  0  0  0  0  0  0  0  0  0  0
  -24.1153    1.7494   31.7703 O   0  0  0  0  0  0  0  0  0  0  0  0
  4  6  1  0
 12 13  1  0
  2 14  1  0
 14 15  2  0
 14 16  1  0
 16 17  1  0
 22 23  1  0
  8 24  1  0
 24 25  2  0
 24 26  1  0
 17 18  2  0
 18 19  1  0
 19 22  2  0
 22 21  1  0
 21 20  2  0
 20 17  1  0
  6  8  2  0
  8  9  1  0
  9 10  2  0
 10 11  1  0
 11 12  2  0
 12  6  1  0
  1  2  2  0
  2  5  1  0
  5  7  2  0
  7  4  1  0
  4  3  2  0
  3  1  1  0
M  END

$$$$
