No_3264-gen_results/8p0m/2024-11-26-14-13-15/
     RDKit          3D

 18 19  0  0  0  0  0  0  0  0999 V2000
  -28.0162   -0.8135   28.8779 C   0  0  0  0  0  0  0  0  0  0  0  0
  -27.0636   -0.1190   28.6079 C   0  0  0  0  0  0  0  0  0  0  0  0
  -25.7923   -0.4302   29.0761 C   0  0  0  0  0  0  0  0  0  0  0  0
  -25.5756   -1.5654   29.9363 C   0  0  0  0  0  0  0  0  0  0  0  0
  -26.7354   -2.3004   30.2173 C   0  0  0  0  0  0  0  0  0  0  0  0
  -27.9184   -1.9537   29.7629 C   0  0  0  0  0  0  0  0  0  0  0  0
  -28.9649   -2.6957   30.0722 F   0  0  0  0  0  0  0  0  0  0  0  0
  -24.6807    0.5315   28.7646 C   0  0  0  0  0  0  0  0  0  0  0  0
  -24.6691    1.7998   29.3181 C   0  0  0  0  0  0  0  0  0  0  0  0
  -23.8203    2.7514   28.7206 C   0  0  0  0  0  0  0  0  0  0  0  0
  -22.8504    2.3651   27.7446 C   0  0  0  0  0  0  0  0  0  0  0  0
  -22.8069    1.0502   27.3046 C   0  0  0  0  0  0  0  0  0  0  0  0
  -23.7367    0.1666   27.7362 C   0  0  0  0  0  0  0  0  0  0  0  0
  -25.5789    2.2584   30.3261 C   0  0  0  0  0  0  0  0  0  0  0  0
  -25.2225    2.1709   31.4282 O   0  0  0  0  0  0  0  0  0  0  0  0
  -26.5279    3.0045   29.9911 O   0  0  0  0  0  0  0  0  0  0  0  0
  -27.2328    3.7614   30.8041 C   0  0  0  0  0  0  0  0  0  0  0  0
  -27.5971    3.3354   31.8189 C   0  0  0  0  0  0  0  0  0  0  0  0
  6  7  1  0
  3  8  1  0
  9 14  1  0
 14 15  2  0
 14 16  1  0
 16 17  1  0
 17 18  2  0
  1  2  2  0
  2  3  1  0
  3  4  2  0
  4  5  1  0
  5  6  2  0
  6  1  1  0
  8  9  2  0
  9 10  1  0
 10 11  2  0
 11 12  1  0
 12 13  2  0
 13  8  1  0
M  END

$$$$
