No_3889-gen_results/8p0m/2024-11-26-14-13-15/
     RDKit          3D

 29 32  0  0  0  0  0  0  0  0999 V2000
  -28.0162   -0.8135   28.8779 C   0  0  0  0  0  0  0  0  0  0  0  0
  -28.4690   -0.7850   29.8287 C   0  0  0  0  0  0  0  0  0  0  0  0
  -28.1816    0.4277   28.1134 C   0  0  0  0  0  0  0  0  0  0  0  0
  -28.9841    1.4155   28.5154 C   0  0  0  0  0  0  0  0  0  0  0  0
  -29.1348   -0.0357   30.3781 C   0  0  0  0  0  0  0  0  0  0  0  0
  -29.4533    1.1975   29.7711 C   0  0  0  0  0  0  0  0  0  0  0  0
  -27.5453    0.4915   26.8211 N   0  0  0  0  0  0  0  0  0  0  0  0
  -27.8997    0.7550   25.8197 C   0  0  0  0  0  0  0  0  0  0  0  0
  -26.0561    0.2186   26.8583 C   0  0  0  0  0  0  0  0  0  0  0  0
  -25.3331   -0.0245   27.9666 C   0  0  0  0  0  0  0  0  0  0  0  0
  -23.9798    0.0109   27.9966 C   0  0  0  0  0  0  0  0  0  0  0  0
  -23.1910   -0.3119   29.1744 C   0  0  0  0  0  0  0  0  0  0  0  0
  -23.8315   -0.8956   30.2568 C   0  0  0  0  0  0  0  0  0  0  0  0
  -25.1624   -1.0130   30.2862 C   0  0  0  0  0  0  0  0  0  0  0  0
  -25.8837   -0.6211   29.2337 C   0  0  0  0  0  0  0  0  0  0  0  0
  -27.0723   -0.9441   29.2896 O   0  0  0  0  0  0  0  0  0  0  0  0
  -28.7161   -2.2625   30.4535 C   0  0  0  0  0  0  0  0  0  0  0  0
  -25.2308    0.4380   25.4068 Cl  0  0  0  0  0  0  0  0  0  0  0  0
  -27.9386   -3.0882   30.6656 O   0  0  0  0  0  0  0  0  0  0  0  0
  -30.0102   -2.5434   30.8172 N   0  0  0  0  0  0  0  0  0  0  0  0
  -30.4073   -3.8285   31.3955 C   0  0  0  0  0  0  0  0  0  0  0  0
  -28.4204    2.0841   25.5270 C   0  0  0  0  0  0  0  0  0  0  0  0
  -28.4551   -0.1790   24.8881 C   0  0  0  0  0  0  0  0  0  0  0  0
  -29.3293    0.0895   23.9022 C   0  0  0  0  0  0  0  0  0  0  0  0
  -29.1735    2.4882   24.4302 C   0  0  0  0  0  0  0  0  0  0  0  0
  -29.6083    1.4739   23.5815 C   0  0  0  0  0  0  0  0  0  0  0  0
  -21.8737   -0.1897   29.1035 F   0  0  0  0  0  0  0  0  0  0  0  0
  -30.4024    2.2484   30.4186 C   0  0  0  0  0  0  0  0  0  0  0  0
  -30.6220    2.3989   31.4885 O   0  0  0  0  0  0  0  0  0  0  0  0
  3  7  1  0
  7  8  1  0
  7  9  1  0
  9 10  1  0
  1 16  1  0
 15 16  1  0
  2 17  1  0
  9 18  1  0
 17 19  2  0
 17 20  1  0
 20 21  1  0
 12 27  1  0
  6 28  1  0
 28 29  2  0
  8 22  2  0
 22 25  1  0
 25 26  2  0
 26 24  1  0
 24 23  2  0
 23  8  1  0
  1  2  2  0
  2  5  1  0
  5  6  2  0
  6  4  1  0
  4  3  2  0
  3  1  1  0
 10 11  2  0
 11 12  1  0
 12 13  2  0
 13 14  1  0
 14 15  2  0
 15 10  1  0
M  END

$$$$
