No_3074-gen_results/8p0m/2024-11-26-14-13-15/
     RDKit          3D

 21 23  0  0  0  0  0  0  0  0999 V2000
  -28.0162   -0.8135   28.8779 C   0  0  0  0  0  0  0  0  0  0  0  0
  -27.0636   -0.1189   28.6079 C   0  0  0  0  0  0  0  0  0  0  0  0
  -25.7647   -0.3897   29.0360 C   0  0  0  0  0  0  0  0  0  0  0  0
  -25.5296   -1.5302   29.9014 C   0  0  0  0  0  0  0  0  0  0  0  0
  -26.6888   -2.2893   30.1810 C   0  0  0  0  0  0  0  0  0  0  0  0
  -27.8727   -1.9508   29.7373 C   0  0  0  0  0  0  0  0  0  0  0  0
  -24.5491    0.4100   28.7341 C   0  0  0  0  0  0  0  0  0  0  0  0
  -24.0931    1.3779   29.5761 C   0  0  0  0  0  0  0  0  0  0  0  0
  -22.9779    2.1400   29.2464 C   0  0  0  0  0  0  0  0  0  0  0  0
  -22.2677    1.9029   28.0361 C   0  0  0  0  0  0  0  0  0  0  0  0
  -22.7430    0.9704   27.1898 C   0  0  0  0  0  0  0  0  0  0  0  0
  -23.8526    0.2276   27.4988 C   0  0  0  0  0  0  0  0  0  0  0  0
  -24.7481    1.6171   30.9103 C   0  0  0  0  0  0  0  0  0  0  0  0
  -24.8646    0.8279   31.8444 N   0  0  0  0  0  0  0  0  0  0  0  0
  -25.6629    1.0787   32.9689 C   0  0  0  0  0  0  0  0  0  0  0  0
  -25.3289    2.9438   31.0699 C   0  0  0  0  0  0  0  0  0  0  0  0
  -25.9887    3.3096   32.1805 C   0  0  0  0  0  0  0  0  0  0  0  0
  -26.1472    2.3391   33.1984 C   0  0  0  0  0  0  0  0  0  0  0  0
  -27.2100    1.1118   27.7231 C   0  0  0  0  0  0  0  0  0  0  0  0
  -27.3205    2.2322   28.1821 C   0  0  0  0  0  0  0  0  0  0  0  0
  -27.5052    3.4331   27.4390 C   0  0  0  0  0  0  0  0  0  0  0  0
  3  7  1  0
  8 13  1  0
  2 19  1  0
 19 20  2  3
 20 21  1  0
  1  2  2  0
  2  3  1  0
  3  4  2  0
  4  5  1  0
  5  6  2  0
  6  1  1  0
 13 14  2  0
 14 15  1  0
 15 18  2  0
 18 17  1  0
 17 16  2  0
 16 13  1  0
  7  8  1  0
  8  9  2  0
  9 10  1  0
 10 11  2  0
 11 12  1  0
 12  7  2  0
M  END

$$$$
