No_369-gen_results/8p0m/2024-11-26-14-13-15/
     RDKit          3D

 16 17  0  0  0  0  0  0  0  0999 V2000
  -28.0162   -0.8135   28.8779 C   0  0  0  0  0  0  0  0  0  0  0  0
  -27.0636   -0.1189   28.6079 C   0  0  0  0  0  0  0  0  0  0  0  0
  -25.7923   -0.4302   29.0761 C   0  0  0  0  0  0  0  0  0  0  0  0
  -24.5456    0.3494   28.8225 C   0  0  0  0  0  0  0  0  0  0  0  0
  -23.2409    0.0217   29.3323 C   0  0  0  0  0  0  0  0  0  0  0  0
  -27.8820   -1.8995   29.8633 C   0  0  0  0  0  0  0  0  0  0  0  0
  -26.6706   -2.3272   30.3212 C   0  0  0  0  0  0  0  0  0  0  0  0
  -25.5256   -1.5687   29.9818 C   0  0  0  0  0  0  0  0  0  0  0  0
  -22.1698    0.7965   28.9549 C   0  0  0  0  0  0  0  0  0  0  0  0
  -22.1316    1.7520   27.9916 C   0  0  0  0  0  0  0  0  0  0  0  0
  -24.5371    1.3821   27.7945 C   0  0  0  0  0  0  0  0  0  0  0  0
  -23.3474    2.0449   27.4322 C   0  0  0  0  0  0  0  0  0  0  0  0
  -29.2557   -2.8403   30.3436 Cl  0  0  0  0  0  0  0  0  0  0  0  0
  -23.4582    2.9998   26.4732 O   0  0  0  0  0  0  0  0  0  0  0  0
  -24.6339    2.7804   25.6838 C   0  0  0  0  0  0  0  0  0  0  0  0
  -25.5303    1.5697   27.0675 F   0  0  0  0  0  0  0  0  0  0  0  0
  3  4  1  0
  6 13  1  0
 12 14  1  0
 14 15  1  0
 11 16  1  0
  1  2  2  0
  2  3  1  0
  3  8  2  0
  8  7  1  0
  7  6  2  0
  6  1  1  0
  4  5  2  0
  5  9  1  0
  9 10  2  0
 10 12  1  0
 12 11  2  0
 11  4  1  0
M  END

$$$$
