No_3845-gen_results/8p0m/2024-11-26-14-13-15/
     RDKit          3D

 23 24  0  0  0  0  0  0  0  0999 V2000
  -28.0162   -0.8135   28.8779 C   0  0  0  0  0  0  0  0  0  0  0  0
  -27.0636   -0.1189   28.6079 C   0  0  0  0  0  0  0  0  0  0  0  0
  -25.7647   -0.3897   29.0360 C   0  0  0  0  0  0  0  0  0  0  0  0
  -25.5296   -1.5302   29.9014 C   0  0  0  0  0  0  0  0  0  0  0  0
  -24.2910   -1.8751   30.3797 C   0  0  0  0  0  0  0  0  0  0  0  0
  -27.9084   -1.9224   29.8277 C   0  0  0  0  0  0  0  0  0  0  0  0
  -26.6512   -2.2902   30.3071 C   0  0  0  0  0  0  0  0  0  0  0  0
  -23.6310   -0.8510   31.1806 C   0  0  0  0  0  0  0  0  0  0  0  0
  -27.1352    1.1006   27.7400 C   0  0  0  0  0  0  0  0  0  0  0  0
  -26.5285    2.0661   27.6541 C   0  0  0  0  0  0  0  0  0  0  0  0
  -26.6208    3.1709   26.7182 C   0  0  0  0  0  0  0  0  0  0  0  0
  -27.5402    3.0167   25.6822 C   0  0  0  0  0  0  0  0  0  0  0  0
  -28.1259    0.9575   26.5696 C   0  0  0  0  0  0  0  0  0  0  0  0
  -28.2516    1.9283   25.6489 C   0  0  0  0  0  0  0  0  0  0  0  0
  -22.5064   -0.1668   30.6521 C   0  0  0  0  0  0  0  0  0  0  0  0
  -24.1620   -0.5080   32.5043 C   0  0  0  0  0  0  0  0  0  0  0  0
  -29.0075   -2.6118   30.1866 O   0  0  0  0  0  0  0  0  0  0  0  0
  -29.3215   -2.8034   31.5203 C   0  0  0  0  0  0  0  0  0  0  0  0
  -29.7082   -4.0933   31.8503 C   0  0  0  0  0  0  0  0  0  0  0  0
  -29.7680   -4.9991   30.8311 C   0  0  0  0  0  0  0  0  0  0  0  0
  -30.9320   -4.9958   30.1806 N   0  0  0  0  0  0  0  0  0  0  0  0
  -31.3382   -4.3246   29.4872 C   0  0  0  0  0  0  0  0  0  0  0  0
  -32.3394   -4.6311   28.7230 O   0  0  0  0  0  0  0  0  0  0  0  0
  4  5  1  0
  5  8  1  0
  2  9  1  0
  8 15  1  0
  8 16  1  0
  6 17  1  0
 17 18  1  0
 18 19  1  0
 19 20  1  0
 20 21  1  0
 21 22  1  0
 22 23  2  0
  9 10  2  0
 10 11  1  0
 11 12  2  0
 12 14  1  0
 14 13  2  0
 13  9  1  0
  1  2  2  0
  2  3  1  0
  3  4  2  0
  4  7  1  0
  7  6  2  0
  6  1  1  0
M  END

$$$$
