No_3203-gen_results/8p0m/2024-11-26-14-13-15/
     RDKit          3D

 35 38  0  0  0  0  0  0  0  0999 V2000
  -28.0162   -0.8135   28.8779 C   0  0  0  0  0  0  0  0  0  0  0  0
  -27.0636   -0.1190   28.6079 C   0  0  0  0  0  0  0  0  0  0  0  0
  -25.7923   -0.4302   29.0761 C   0  0  0  0  0  0  0  0  0  0  0  0
  -24.5456    0.3494   28.8225 C   0  0  0  0  0  0  0  0  0  0  0  0
  -24.6586    1.4196   27.8878 C   0  0  0  0  0  0  0  0  0  0  0  0
  -25.9471    1.6811   27.3792 C   0  0  0  0  0  0  0  0  0  0  0  0
  -27.0439    0.9739   27.6871 C   0  0  0  0  0  0  0  0  0  0  0  0
  -28.6703   -0.4455   30.2080 C   0  0  0  0  0  0  0  0  0  0  0  0
  -29.7395   -1.2324   30.6778 C   0  0  0  0  0  0  0  0  0  0  0  0
  -23.4434    2.1502   27.6024 C   0  0  0  0  0  0  0  0  0  0  0  0
  -22.4958    1.8709   27.3617 N   0  0  0  0  0  0  0  0  0  0  0  0
  -23.8255    3.3865   26.9047 N   0  0  0  0  0  0  0  0  0  0  0  0
  -30.2072   -2.0157   30.1704 O   0  0  0  0  0  0  0  0  0  0  0  0
  -30.0138   -1.1619   32.0248 O   0  0  0  0  0  0  0  0  0  0  0  0
  -28.3457    1.3059   27.0788 C   0  0  0  0  0  0  0  0  0  0  0  0
  -29.1173    1.9395   27.6270 O   0  0  0  0  0  0  0  0  0  0  0  0
  -28.6260    0.5180   25.9490 O   0  0  0  0  0  0  0  0  0  0  0  0
  -21.8647    0.9077   28.2949 C   0  0  0  0  0  0  0  0  0  0  0  0
  -23.3056   -0.1319   29.2360 C   0  0  0  0  0  0  0  0  0  0  0  0
  -22.1099    0.1840   28.8010 C   0  0  0  0  0  0  0  0  0  0  0  0
  -20.3273    1.0623   27.9957 N   0  0  0  0  0  0  0  0  0  0  0  0
  -29.9064    0.4809   25.4481 C   0  0  0  0  0  0  0  0  0  0  0  0
  -30.8140    0.4474   25.9557 C   0  0  0  0  0  0  0  0  0  0  0  0
  -32.1501    0.2596   25.3081 C   0  0  0  0  0  0  0  0  0  0  0  0
  -32.0609    0.0789   23.9485 C   0  0  0  0  0  0  0  0  0  0  0  0
  -29.7766    0.0975   24.0833 C   0  0  0  0  0  0  0  0  0  0  0  0
  -30.8910   -0.0630   23.3318 C   0  0  0  0  0  0  0  0  0  0  0  0
  -28.5653    0.0092   23.4750 O   0  0  0  0  0  0  0  0  0  0  0  0
  -28.3381    0.7231   30.8966 N   0  0  0  0  0  0  0  0  0  0  0  0
  -29.0832    1.7754   30.9686 C   0  0  0  0  0  0  0  0  0  0  0  0
  -28.4316    2.8855   31.4951 C   0  0  0  0  0  0  0  0  0  0  0  0
  -27.0885    2.4376   31.8176 C   0  0  0  0  0  0  0  0  0  0  0  0
  -27.4047    0.7619   31.9705 C   0  0  0  0  0  0  0  0  0  0  0  0
  -26.5412    2.9460   33.1753 C   0  0  0  0  0  0  0  0  0  0  0  0
  -26.8014    2.5050   34.2055 C   0  0  0  0  0  0  0  0  0  0  0  0
  1  2  1  0
  1  8  1  0
  8  9  1  0
  5 10  1  0
 10 11  2  0
 10 12  1  0
  9 13  2  0
  9 14  1  0
  7 15  1  0
 15 16  2  0
 15 17  1  0
 11 18  1  0
  4 19  1  0
 18 20  2  0
 19 20  2  0
 18 21  1  0
 17 22  1  0
 26 28  1  0
  8 29  1  0
 29 30  1  0
 30 31  2  0
 31 32  1  0
 29 33  1  0
 32 33  1  0
 32 34  1  0
 34 35  2  0
  2  3  2  0
  3  4  1  0
  4  5  2  0
  5  6  1  0
  6  7  2  0
  7  2  1  0
 22 23  2  0
 23 24  1  0
 24 25  2  0
 25 27  1  0
 27 26  2  0
 26 22  1  0
M  END

$$$$
