No_3802-gen_results/8p0m/2024-11-26-14-13-15/
     RDKit          3D

 16 18  0  0  0  0  0  0  0  0999 V2000
  -28.0162   -0.8135   28.8779 C   0  0  0  0  0  0  0  0  0  0  0  0
  -27.0636   -0.1189   28.6079 C   0  0  0  0  0  0  0  0  0  0  0  0
  -26.9716    0.7139   27.5060 C   0  0  0  0  0  0  0  0  0  0  0  0
  -25.8205    1.4909   27.1160 C   0  0  0  0  0  0  0  0  0  0  0  0
  -24.6562    1.4242   27.9180 C   0  0  0  0  0  0  0  0  0  0  0  0
  -24.7114    0.5419   29.0507 C   0  0  0  0  0  0  0  0  0  0  0  0
  -25.8042   -0.2058   29.3881 C   0  0  0  0  0  0  0  0  0  0  0  0
  -28.0673   -1.5382   30.1911 C   0  0  0  0  0  0  0  0  0  0  0  0
  -26.8381   -1.7680   30.8773 C   0  0  0  0  0  0  0  0  0  0  0  0
  -25.7411   -1.0297   30.5541 C   0  0  0  0  0  0  0  0  0  0  0  0
  -28.0790    0.8472   26.5259 C   0  0  0  0  0  0  0  0  0  0  0  0
  -27.9849    1.1957   25.2795 C   0  0  0  0  0  0  0  0  0  0  0  0
  -29.1203    1.2455   24.4989 C   0  0  0  0  0  0  0  0  0  0  0  0
  -30.3195    0.7591   24.9207 C   0  0  0  0  0  0  0  0  0  0  0  0
  -30.4044    0.2955   26.2151 C   0  0  0  0  0  0  0  0  0  0  0  0
  -29.3752    0.3507   27.0426 C   0  0  0  0  0  0  0  0  0  0  0  0
  3 11  1  0
 11 12  2  0
 12 13  1  0
 13 14  2  0
 14 15  1  0
 15 16  2  0
 16 11  1  0
  2  3  1  0
  3  4  2  0
  4  5  1  0
  5  6  2  0
  6  7  1  0
  1  2  2  0
  2  7  1  0
  7 10  2  0
 10  9  1  0
  9  8  2  0
  8  1  1  0
M  END

$$$$
