No_3618-gen_results/8p0m/2024-11-26-14-13-15/
     RDKit          3D

 33 37  0  0  0  0  0  0  0  0999 V2000
  -28.0162   -0.8135   28.8779 C   0  0  0  0  0  0  0  0  0  0  0  0
  -27.0636   -0.1190   28.6079 C   0  0  0  0  0  0  0  0  0  0  0  0
  -26.8756    1.1325   28.9134 C   0  0  0  0  0  0  0  0  0  0  0  0
  -25.6883    1.9515   28.5672 C   0  0  0  0  0  0  0  0  0  0  0  0
  -24.6394    1.2834   27.8753 C   0  0  0  0  0  0  0  0  0  0  0  0
  -24.8068   -0.0513   27.6040 C   0  0  0  0  0  0  0  0  0  0  0  0
  -25.9019   -0.7670   27.9511 C   0  0  0  0  0  0  0  0  0  0  0  0
  -28.6455   -0.5282   30.2428 C   0  0  0  0  0  0  0  0  0  0  0  0
  -29.5544   -1.0303   30.6491 C   0  0  0  0  0  0  0  0  0  0  0  0
  -23.4415    1.9721   27.4600 C   0  0  0  0  0  0  0  0  0  0  0  0
  -23.4187    2.5143   26.4677 F   0  0  0  0  0  0  0  0  0  0  0  0
  -22.9816    2.8394   28.4805 F   0  0  0  0  0  0  0  0  0  0  0  0
  -22.3363    1.0837   27.4904 F   0  0  0  0  0  0  0  0  0  0  0  0
  -30.0654   -0.9070   31.9434 C   0  0  0  0  0  0  0  0  0  0  0  0
  -29.4739    0.0739   32.7933 C   0  0  0  0  0  0  0  0  0  0  0  0
  -28.3494    0.7059   32.3396 C   0  0  0  0  0  0  0  0  0  0  0  0
  -27.8920    0.4072   31.1159 C   0  0  0  0  0  0  0  0  0  0  0  0
  -26.9502    1.3651   30.6516 C   0  0  0  0  0  0  0  0  0  0  0  0
  -28.0332    2.0751   28.3045 C   0  0  0  0  0  0  0  0  0  0  0  0
  -27.7979    3.3623   28.2309 C   0  0  0  0  0  0  0  0  0  0  0  0
  -28.7312    4.1657   27.4487 C   0  0  0  0  0  0  0  0  0  0  0  0
  -28.3083    1.6408   26.8493 C   0  0  0  0  0  0  0  0  0  0  0  0
  -29.4521    2.2619   26.2778 C   0  0  0  0  0  0  0  0  0  0  0  0
  -30.1420    3.1117   26.8060 O   0  0  0  0  0  0  0  0  0  0  0  0
  -30.6007    1.1851   25.9851 C   0  0  0  0  0  0  0  0  0  0  0  0
  -31.4448    1.6470   25.3044 O   0  0  0  0  0  0  0  0  0  0  0  0
  -30.5607   -0.0006   26.4229 O   0  0  0  0  0  0  0  0  0  0  0  0
  -28.9970    5.4930   27.1748 C   0  0  0  0  0  0  0  0  0  0  0  0
  -27.0597    2.7520   31.1164 C   0  0  0  0  0  0  0  0  0  0  0  0
  -25.4976    0.8481   31.1704 C   0  0  0  0  0  0  0  0  0  0  0  0
  -24.7725    1.7647   31.9083 C   0  0  0  0  0  0  0  0  0  0  0  0
  -26.2168    3.5984   31.8573 C   0  0  0  0  0  0  0  0  0  0  0  0
  -25.0321    3.0513   32.2870 C   0  0  0  0  0  0  0  0  0  0  0  0
  2  3  1  0
  3  4  1  0
  4  5  1  0
  5  6  1  0
  2  7  1  0
  6  7  1  0
  1  8  1  0
  5 10  1  0
 10 11  1  0
 10 12  1  0
 10 13  1  0
  3 18  1  0
 17 18  1  0
  3 19  1  0
 19 20  2  0
 20 21  1  0
 19 22  1  0
 22 23  1  0
 21 24  1  0
 23 24  1  0
 23 25  1  0
 25 26  2  0
 25 27  1  0
 21 28  1  0
 18 29  1  0
 18 30  1  0
 31 33  1  0
 32 33  1  0
  2  1  1  0
 29 32  1  0
 31 30  1  0
  8  9  2  0
  9 14  1  0
 14 15  2  0
 15 16  1  0
 16 17  2  0
 17  8  1  0
M  END

$$$$
