No_3275-gen_results/8p0m/2024-11-26-14-13-15/
     RDKit          3D

 18 20  0  0  0  0  0  0  0  0999 V2000
  -28.0162   -0.8135   28.8779 C   0  0  0  0  0  0  0  0  0  0  0  0
  -27.0636   -0.1190   28.6079 C   0  0  0  0  0  0  0  0  0  0  0  0
  -25.7923   -0.4302   29.0761 C   0  0  0  0  0  0  0  0  0  0  0  0
  -25.5756   -1.5654   29.9363 C   0  0  0  0  0  0  0  0  0  0  0  0
  -26.7354   -2.3004   30.2173 C   0  0  0  0  0  0  0  0  0  0  0  0
  -27.9184   -1.9537   29.7629 C   0  0  0  0  0  0  0  0  0  0  0  0
  -27.3243    1.0850   27.8190 C   0  0  0  0  0  0  0  0  0  0  0  0
  -27.6406    1.1118   26.7083 N   0  0  0  0  0  0  0  0  0  0  0  0
  -27.9924   -0.0062   26.0870 C   0  0  0  0  0  0  0  0  0  0  0  0
  -28.7299    0.0426   25.2755 C   0  0  0  0  0  0  0  0  0  0  0  0
  -27.9199    2.2568   25.9631 C   0  0  0  0  0  0  0  0  0  0  0  0
  -27.6161    3.5538   26.6011 C   0  0  0  0  0  0  0  0  0  0  0  0
  -28.7674    2.0032   24.9167 C   0  0  0  0  0  0  0  0  0  0  0  0
  -26.8276    2.1930   28.5081 N   0  0  0  0  0  0  0  0  0  0  0  0
  -27.0383    3.4755   27.8672 C   0  0  0  0  0  0  0  0  0  0  0  0
  -26.5426    4.6537   28.5747 C   0  0  0  0  0  0  0  0  0  0  0  0
  -27.0900    5.6260   28.4741 O   0  0  0  0  0  0  0  0  0  0  0  0
  -25.3844    4.4647   29.2732 O   0  0  0  0  0  0  0  0  0  0  0  0
  2  7  1  0
  7  8  1  0
  8  9  1  0
  9 10  2  0
  8 11  1  0
 11 12  1  0
 10 13  1  0
 11 13  1  0
 12 15  1  0
 14 15  1  0
 15 16  1  0
 16 17  2  0
 16 18  1  0
  7 14  1  0
  1  2  2  0
  2  3  1  0
  3  4  2  0
  4  5  1  0
  5  6  2  0
  6  1  1  0
M  END

$$$$
