No_3300-gen_results/8p0m/2024-11-26-14-13-15/
     RDKit          3D

 16 17  0  0  0  0  0  0  0  0999 V2000
  -28.0162   -0.8135   28.8779 C   0  0  0  0  0  0  0  0  0  0  0  0
  -28.4690   -0.7850   29.8287 C   0  0  0  0  0  0  0  0  0  0  0  0
  -27.0871    0.2903   28.6377 C   0  0  0  0  0  0  0  0  0  0  0  0
  -26.8317    1.2487   29.5869 C   0  0  0  0  0  0  0  0  0  0  0  0
  -28.3914    0.0801   31.0065 C   0  0  0  0  0  0  0  0  0  0  0  0
  -27.4940    1.1521   30.7841 C   0  0  0  0  0  0  0  0  0  0  0  0
  -26.3172    0.3994   27.3653 C   0  0  0  0  0  0  0  0  0  0  0  0
  -24.9405    0.2550   27.5028 C   0  0  0  0  0  0  0  0  0  0  0  0
  -24.1902    0.7222   26.3382 C   0  0  0  0  0  0  0  0  0  0  0  0
  -22.8277    1.0867   26.5756 C   0  0  0  0  0  0  0  0  0  0  0  0
  -22.2516    0.9346   27.8549 C   0  0  0  0  0  0  0  0  0  0  0  0
  -23.0282    0.4098   28.9059 C   0  0  0  0  0  0  0  0  0  0  0  0
  -24.3807    0.1782   28.7599 C   0  0  0  0  0  0  0  0  0  0  0  0
  -27.0239    0.3928   26.1785 C   0  0  0  0  0  0  0  0  0  0  0  0
  -27.6679    1.0801   25.6729 N   0  0  0  0  0  0  0  0  0  0  0  0
  -28.3092    0.8403   24.4527 C   0  0  0  0  0  0  0  0  0  0  0  0
  3  7  1  0
  7 14  1  0
 14 15  2  3
 15 16  1  0
  7  8  1  0
  8  9  2  0
  9 10  1  0
 10 11  2  0
 11 12  1  0
 12 13  2  0
 13  8  1  0
  1  2  2  0
  2  5  1  0
  5  6  2  0
  6  4  1  0
  4  3  2  0
  3  1  1  0
M  END

$$$$
