No_3931-gen_results/8p0m/2024-11-26-14-13-15/
     RDKit          3D

 17 18  0  0  0  0  0  0  0  0999 V2000
  -28.0162   -0.8135   28.8779 C   0  0  0  0  0  0  0  0  0  0  0  0
  -27.0636   -0.1190   28.6079 C   0  0  0  0  0  0  0  0  0  0  0  0
  -25.7923   -0.4302   29.0761 C   0  0  0  0  0  0  0  0  0  0  0  0
  -24.5456    0.3494   28.8225 C   0  0  0  0  0  0  0  0  0  0  0  0
  -24.6586    1.4196   27.8878 C   0  0  0  0  0  0  0  0  0  0  0  0
  -25.9471    1.6811   27.3792 C   0  0  0  0  0  0  0  0  0  0  0  0
  -27.0439    0.9739   27.6871 C   0  0  0  0  0  0  0  0  0  0  0  0
  -28.0241   -1.6475   30.1263 C   0  0  0  0  0  0  0  0  0  0  0  0
  -26.7278   -2.0846   30.5807 C   0  0  0  0  0  0  0  0  0  0  0  0
  -25.5915   -1.4064   30.1489 C   0  0  0  0  0  0  0  0  0  0  0  0
  -23.4486    2.1675   27.5241 C   0  0  0  0  0  0  0  0  0  0  0  0
  -22.2409    1.6190   27.7589 N   0  0  0  0  0  0  0  0  0  0  0  0
  -23.5779    3.3910   27.2087 O   0  0  0  0  0  0  0  0  0  0  0  0
  -29.1604   -2.4713   30.5352 C   0  0  0  0  0  0  0  0  0  0  0  0
  -29.1419   -3.6238   30.9016 N   0  0  0  0  0  0  0  0  0  0  0  0
  -30.2871   -1.8770   30.4713 F   0  0  0  0  0  0  0  0  0  0  0  0
  -28.1808   -4.4565   30.9935 C   0  0  0  0  0  0  0  0  0  0  0  0
  5 11  1  0
 11 12  1  0
 11 13  2  0
  8 14  1  0
 14 15  2  3
 14 16  1  0
 15 17  1  0
  3  4  1  0
  4  5  2  0
  5  6  1  0
  6  7  2  0
  7  2  1  0
  1  2  2  0
  2  3  1  0
  3 10  2  0
 10  9  1  0
  9  8  2  0
  8  1  1  0
M  END

$$$$
