No_371-gen_results/8p0m/2024-11-26-14-13-15/
     RDKit          3D

 14 14  0  0  0  0  0  0  0  0999 V2000
  -28.0162   -0.8135   28.8779 C   0  0  0  0  0  0  0  0  0  0  0  0
  -27.0636   -0.1190   28.6079 C   0  0  0  0  0  0  0  0  0  0  0  0
  -26.9716    0.7139   27.5060 C   0  0  0  0  0  0  0  0  0  0  0  0
  -28.1053    0.7744   26.6421 C   0  0  0  0  0  0  0  0  0  0  0  0
  -29.2008    0.1044   27.0527 C   0  0  0  0  0  0  0  0  0  0  0  0
  -29.2096   -0.6029   28.1853 C   0  0  0  0  0  0  0  0  0  0  0  0
  -30.7000    0.2517   25.9564 Br  0  0  0  0  0  0  0  0  0  0  0  0
  -25.6957   -0.2353   29.4191 C   0  0  0  0  0  0  0  0  0  0  0  0
  -24.9699    0.7769   29.7609 C   0  0  0  0  0  0  0  0  0  0  0  0
  -23.7189    0.8762   28.9036 C   0  0  0  0  0  0  0  0  0  0  0  0
  -23.1806    2.0640   28.4560 C   0  0  0  0  0  0  0  0  0  0  0  0
  -21.9958    1.9614   27.6045 C   0  0  0  0  0  0  0  0  0  0  0  0
  -21.4161    0.9156   27.7145 C   0  0  0  0  0  0  0  0  0  0  0  0
  -21.6197   -0.2220   28.4171 C   0  0  0  0  0  0  0  0  0  0  0  0
  5  7  1  0
  2  8  1  0
  8  9  1  0
  9 10  2  3
 10 11  1  0
 11 12  2  3
 12 13  1  0
 13 14  2  0
  1  2  2  0
  2  3  1  0
  3  4  2  0
  4  5  1  0
  5  6  2  0
  6  1  1  0
M  END

$$$$
