No_3956-gen_results/8p0m/2024-11-26-14-13-15/
     RDKit          3D

 15 15  0  0  0  0  0  0  0  0999 V2000
  -28.0162   -0.8135   28.8779 C   0  0  0  0  0  0  0  0  0  0  0  0
  -27.0636   -0.1189   28.6079 C   0  0  0  0  0  0  0  0  0  0  0  0
  -27.0010    0.6913   27.4910 C   0  0  0  0  0  0  0  0  0  0  0  0
  -28.1420    0.8282   26.7994 C   0  0  0  0  0  0  0  0  0  0  0  0
  -29.2898   -0.4871   28.3661 C   0  0  0  0  0  0  0  0  0  0  0  0
  -28.1796    1.6545   25.6431 C   0  0  0  0  0  0  0  0  0  0  0  0
  -29.2994    0.2379   27.2252 C   0  0  0  0  0  0  0  0  0  0  0  0
  -27.9959   -1.5720   30.0506 F   0  0  0  0  0  0  0  0  0  0  0  0
  -27.1702    1.8671   24.9298 F   0  0  0  0  0  0  0  0  0  0  0  0
  -28.5655    2.9702   25.9746 F   0  0  0  0  0  0  0  0  0  0  0  0
  -29.2005    1.2455   24.7525 F   0  0  0  0  0  0  0  0  0  0  0  0
  -25.7509   -0.2966   29.2499 O   0  0  0  0  0  0  0  0  0  0  0  0
  -25.1832    0.5607   30.0435 C   0  0  0  0  0  0  0  0  0  0  0  0
  -25.1852    0.7061   31.1252 C   0  0  0  0  0  0  0  0  0  0  0  0
  -24.5923    1.8152   31.9533 C   0  0  0  0  0  0  0  0  0  0  0  0
  4  6  1  0
  1  8  1  0
  6  9  1  0
  6 10  1  0
  6 11  1  0
  2 12  1  0
 12 13  1  0
 13 14  2  3
 14 15  1  0
  1  2  2  0
  2  3  1  0
  3  4  2  0
  4  7  1  0
  7  5  2  0
  5  1  1  0
M  END

$$$$
