No_3906-gen_results/8p0m/2024-11-26-14-13-15/
     RDKit          3D

 16 17  0  0  0  0  0  0  0  0999 V2000
  -28.0162   -0.8135   28.8779 C   0  0  0  0  0  0  0  0  0  0  0  0
  -28.4690   -0.7850   29.8287 C   0  0  0  0  0  0  0  0  0  0  0  0
  -26.5042   -0.7777   28.8766 C   0  0  0  0  0  0  0  0  0  0  0  0
  -25.8103   -0.8531   30.1028 C   0  0  0  0  0  0  0  0  0  0  0  0
  -30.0136   -0.8410   29.8508 C   0  0  0  0  0  0  0  0  0  0  0  0
  -26.5670   -0.8850   31.2517 C   0  0  0  0  0  0  0  0  0  0  0  0
  -27.9411   -0.9069   31.1850 C   0  0  0  0  0  0  0  0  0  0  0  0
  -30.6493   -0.0573   30.6757 O   0  0  0  0  0  0  0  0  0  0  0  0
  -30.6033   -1.6021   29.0401 O   0  0  0  0  0  0  0  0  0  0  0  0
  -25.6386   -0.7164   27.6713 C   0  0  0  0  0  0  0  0  0  0  0  0
  -24.3327   -0.2619   27.8252 C   0  0  0  0  0  0  0  0  0  0  0  0
  -23.6656   -0.4509   29.0722 C   0  0  0  0  0  0  0  0  0  0  0  0
  -24.3925   -0.6101   30.2141 C   0  0  0  0  0  0  0  0  0  0  0  0
  -22.2015   -0.1698   29.1145 C   0  0  0  0  0  0  0  0  0  0  0  0
  -21.2574    0.6271   28.9760 N   0  0  0  0  0  0  0  0  0  0  0  0
  -23.7064   -0.5784   31.5114 C   0  0  0  0  0  0  0  0  0  0  0  0
  2  5  1  0
  5  8  2  0
  5  9  1  0
 12 14  1  0
 14 15  3  0
 13 16  1  0
  4 13  2  0
 13 12  1  0
 12 11  2  0
 11 10  1  0
 10  3  2  0
  1  2  2  0
  2  7  1  0
  7  6  2  0
  6  4  1  0
  4  3  1  0
  3  1  1  0
M  END

$$$$
