No_3149-gen_results/8p0m/2024-11-26-14-13-15/
     RDKit          3D

 15 16  0  0  0  0  0  0  0  0999 V2000
  -28.0162   -0.8135   28.8779 C   0  0  0  0  0  0  0  0  0  0  0  0
  -28.4690   -0.7850   29.8287 C   0  0  0  0  0  0  0  0  0  0  0  0
  -28.1960    0.3478   28.0550 C   0  0  0  0  0  0  0  0  0  0  0  0
  -29.0191    1.3501   28.3782 C   0  0  0  0  0  0  0  0  0  0  0  0
  -29.4107    0.1803   30.3782 C   0  0  0  0  0  0  0  0  0  0  0  0
  -29.6059    1.2495   29.6193 C   0  0  0  0  0  0  0  0  0  0  0  0
  -27.6704    0.4416   26.7791 F   0  0  0  0  0  0  0  0  0  0  0  0
  -29.9936   -0.0253   31.7658 C   0  0  0  0  0  0  0  0  0  0  0  0
  -29.8940    0.9512   32.5888 C   0  0  0  0  0  0  0  0  0  0  0  0
  -30.6010    0.8766   33.8816 C   0  0  0  0  0  0  0  0  0  0  0  0
  -30.5132    1.9299   34.8319 C   0  0  0  0  0  0  0  0  0  0  0  0
  -29.7482    3.0624   34.4617 C   0  0  0  0  0  0  0  0  0  0  0  0
  -29.0590    3.1496   33.2655 C   0  0  0  0  0  0  0  0  0  0  0  0
  -29.0886    2.0991   32.3601 C   0  0  0  0  0  0  0  0  0  0  0  0
  -31.3819   -0.5983   31.5389 C   0  0  0  0  0  0  0  0  0  0  0  0
  3  7  1  0
  5  8  1  0
  8 15  1  0
  8  9  1  0
  9 10  2  0
 10 11  1  0
 11 12  2  0
 12 13  1  0
 13 14  2  0
 14  9  1  0
  1  2  2  0
  2  5  1  0
  5  6  2  0
  6  4  1  0
  4  3  2  0
  3  1  1  0
M  END

$$$$
