No_3040-gen_results/8p0m/2024-11-26-14-13-15/
     RDKit          3D

  6  5  0  0  0  0  0  0  0  0999 V2000
  -28.1493   -0.8198   28.9079 Cl  0  0  0  0  0  0  0  0  0  0  0  0
  -27.8339    0.4961   29.0598 C   0  0  0  0  0  0  0  0  0  0  0  0
  -27.8833    1.0376   30.1944 F   0  0  0  0  0  0  0  0  0  0  0  0
  -27.4481    1.3047   27.9430 C   0  0  0  0  0  0  0  0  0  0  0  0
  -27.4807    0.8076   26.9405 F   0  0  0  0  0  0  0  0  0  0  0  0
  -26.1709    1.7612   28.2381 F   0  0  0  0  0  0  0  0  0  0  0  0
  1  2  1  0
  2  3  1  0
  2  4  1  0
  4  5  1  0
  4  6  1  0
M  END

$$$$
