No_3298-gen_results/8p0m/2024-11-26-14-13-15/
     RDKit          3D

 19 20  0  0  0  0  0  0  0  0999 V2000
  -28.0162   -0.8135   28.8779 C   0  0  0  0  0  0  0  0  0  0  0  0
  -27.0636   -0.1189   28.6079 C   0  0  0  0  0  0  0  0  0  0  0  0
  -25.7647   -0.3897   29.0360 C   0  0  0  0  0  0  0  0  0  0  0  0
  -25.5296   -1.5302   29.9014 C   0  0  0  0  0  0  0  0  0  0  0  0
  -26.6577   -2.2915   30.2035 C   0  0  0  0  0  0  0  0  0  0  0  0
  -27.8548   -1.9555   29.7630 C   0  0  0  0  0  0  0  0  0  0  0  0
  -24.5349    0.4128   28.7431 C   0  0  0  0  0  0  0  0  0  0  0  0
  -24.4835    1.2431   27.7398 C   0  0  0  0  0  0  0  0  0  0  0  0
  -23.2788    1.9376   27.4159 C   0  0  0  0  0  0  0  0  0  0  0  0
  -22.0791    1.6509   28.0212 C   0  0  0  0  0  0  0  0  0  0  0  0
  -23.2748    0.1108   29.4386 C   0  0  0  0  0  0  0  0  0  0  0  0
  -22.0811    0.7712   29.0649 C   0  0  0  0  0  0  0  0  0  0  0  0
  -28.9270   -2.7270   30.1273 O   0  0  0  0  0  0  0  0  0  0  0  0
  -30.0378   -2.2196   30.5990 C   0  0  0  0  0  0  0  0  0  0  0  0
  -30.5017   -2.9674   31.6724 C   0  0  0  0  0  0  0  0  0  0  0  0
  -29.6516   -3.6837   32.4389 C   0  0  0  0  0  0  0  0  0  0  0  0
  -31.2958   -2.0724   32.6189 N   0  0  0  0  0  0  0  0  0  0  0  0
  -32.0498   -1.1626   32.1946 C   0  0  0  0  0  0  0  0  0  0  0  0
  -32.5279   -0.1781   33.0501 C   0  0  0  0  0  0  0  0  0  0  0  0
  3  7  1  0
  6 13  1  0
 13 14  1  0
 14 15  1  0
 15 16  2  0
 15 17  1  0
 17 18  1  0
 18 19  2  0
  7  8  2  0
  8  9  1  0
  9 10  2  0
 10 12  1  0
 12 11  2  0
 11  7  1  0
  1  2  2  0
  2  3  1  0
  3  4  2  0
  4  5  1  0
  5  6  2  0
  6  1  1  0
M  END

$$$$
