No_3658-gen_results/8p0m/2024-11-26-14-13-15/
     RDKit          3D

 13 14  0  0  0  0  0  0  0  0999 V2000
  -28.0162   -0.8135   28.8779 C   0  0  0  0  0  0  0  0  0  0  0  0
  -28.4690   -0.7850   29.8287 C   0  0  0  0  0  0  0  0  0  0  0  0
  -26.5455   -0.8762   28.8500 C   0  0  0  0  0  0  0  0  0  0  0  0
  -25.8041   -1.0324   30.0571 C   0  0  0  0  0  0  0  0  0  0  0  0
  -26.5373   -1.0386   31.2171 C   0  0  0  0  0  0  0  0  0  0  0  0
  -27.8929   -0.9601   31.1743 C   0  0  0  0  0  0  0  0  0  0  0  0
  -25.8001   -0.8259   27.7108 O   0  0  0  0  0  0  0  0  0  0  0  0
  -25.7838    0.3630   27.0424 C   0  0  0  0  0  0  0  0  0  0  0  0
  -24.5590    0.8791   26.9823 C   0  0  0  0  0  0  0  0  0  0  0  0
  -24.3298    2.0878   26.2065 C   0  0  0  0  0  0  0  0  0  0  0  0
  -26.7360    0.6347   26.1154 C   0  0  0  0  0  0  0  0  0  0  0  0
  -26.6239    1.7683   25.3473 C   0  0  0  0  0  0  0  0  0  0  0  0
  -25.3751    2.5314   25.3870 C   0  0  0  0  0  0  0  0  0  0  0  0
  3  7  1  0
  7  8  1  0
  1  2  2  0
  2  6  1  0
  6  5  2  0
  5  4  1  0
  4  3  2  0
  3  1  1  0
  8  9  2  0
  9 10  1  0
 10 13  2  0
 13 12  1  0
 12 11  2  0
 11  8  1  0
M  END

$$$$
