No_3066-gen_results/8p0m/2024-11-26-14-13-15/
     RDKit          3D

 18 19  0  0  0  0  0  0  0  0999 V2000
  -28.0162   -0.8135   28.8779 C   0  0  0  0  0  0  0  0  0  0  0  0
  -27.0636   -0.1189   28.6079 C   0  0  0  0  0  0  0  0  0  0  0  0
  -26.9287    1.1713   29.0083 C   0  0  0  0  0  0  0  0  0  0  0  0
  -25.7702    2.0341   28.6884 C   0  0  0  0  0  0  0  0  0  0  0  0
  -24.7141    1.4431   27.9188 C   0  0  0  0  0  0  0  0  0  0  0  0
  -24.8590    0.0783   27.5836 C   0  0  0  0  0  0  0  0  0  0  0  0
  -25.9647   -0.6606   27.9164 C   0  0  0  0  0  0  0  0  0  0  0  0
  -29.1701   -0.2984   28.9471 N   0  0  0  0  0  0  0  0  0  0  0  0
  -30.1841   -0.8920   29.7048 C   0  0  0  0  0  0  0  0  0  0  0  0
  -23.5181    2.1584   27.5785 C   0  0  0  0  0  0  0  0  0  0  0  0
  -23.1355    2.8056   26.8607 N   0  0  0  0  0  0  0  0  0  0  0  0
  -22.2944    1.6172   28.4347 C   0  0  0  0  0  0  0  0  0  0  0  0
  -29.8595   -2.0675   30.3683 C   0  0  0  0  0  0  0  0  0  0  0  0
  -28.5718   -2.5775   30.4274 C   0  0  0  0  0  0  0  0  0  0  0  0
  -27.6242   -1.8779   29.8489 C   0  0  0  0  0  0  0  0  0  0  0  0
  -31.3822   -0.5149   29.5841 O   0  0  0  0  0  0  0  0  0  0  0  0
  -22.4671    2.5163   25.8273 C   0  0  0  0  0  0  0  0  0  0  0  0
  -22.4701    0.7334   29.4314 N   0  0  0  0  0  0  0  0  0  0  0  0
  1  2  1  0
  1  8  1  0
  8  9  1  0
  5 10  1  0
 10 11  1  0
 10 12  1  0
  9 13  1  0
  1 15  1  0
 14 15  1  0
  9 16  2  0
 11 17  1  0
 12 18  1  0
 14 13  1  0
  2  3  2  0
  3  4  1  0
  4  5  2  0
  5  6  1  0
  6  7  2  0
  7  2  1  0
M  END

$$$$
