No_3409-gen_results/8p0m/2024-11-26-14-13-15/
     RDKit          3D

 23 25  0  0  0  0  0  0  0  0999 V2000
  -28.0162   -0.8135   28.8779 C   0  0  0  0  0  0  0  0  0  0  0  0
  -27.0636   -0.1190   28.6079 C   0  0  0  0  0  0  0  0  0  0  0  0
  -26.9716    0.7139   27.5060 C   0  0  0  0  0  0  0  0  0  0  0  0
  -28.1053    0.7744   26.6421 C   0  0  0  0  0  0  0  0  0  0  0  0
  -29.2008    0.1044   27.0527 C   0  0  0  0  0  0  0  0  0  0  0  0
  -29.2096   -0.6029   28.1853 C   0  0  0  0  0  0  0  0  0  0  0  0
  -30.6913    0.2536   25.9499 Br  0  0  0  0  0  0  0  0  0  0  0  0
  -25.6962   -0.2340   29.4204 C   0  0  0  0  0  0  0  0  0  0  0  0
  -24.7999   -1.0864   29.0629 N   0  0  0  0  0  0  0  0  0  0  0  0
  -23.6102   -1.2414   29.4235 C   0  0  0  0  0  0  0  0  0  0  0  0
  -22.8222   -0.0696   29.5531 C   0  0  0  0  0  0  0  0  0  0  0  0
  -23.5401    1.0138   30.2191 C   0  0  0  0  0  0  0  0  0  0  0  0
  -24.9133    1.2026   29.3399 C   0  0  0  0  0  0  0  0  0  0  0  0
  -26.0437   -0.4419   30.9366 C   0  0  0  0  0  0  0  0  0  0  0  0
  -25.1987   -2.0912   27.9533 C   0  0  0  0  0  0  0  0  0  0  0  0
  -25.6586    2.3628   30.0005 C   0  0  0  0  0  0  0  0  0  0  0  0
  -25.8378    3.4924   29.1289 C   0  0  0  0  0  0  0  0  0  0  0  0
  -26.4646    4.6583   29.6651 C   0  0  0  0  0  0  0  0  0  0  0  0
  -26.9931    4.6331   30.9503 C   0  0  0  0  0  0  0  0  0  0  0  0
  -26.8273    3.4898   31.7342 C   0  0  0  0  0  0  0  0  0  0  0  0
  -26.1286    2.4233   31.3065 C   0  0  0  0  0  0  0  0  0  0  0  0
  -24.4450    1.5074   27.9025 C   0  0  0  0  0  0  0  0  0  0  0  0
  -23.1152    1.0172   27.7338 C   0  0  0  0  0  0  0  0  0  0  0  0
  5  7  1  0
  2  8  1  0
  8  9  1  0
  9 10  1  0
 10 11  1  0
 11 12  3  0
  8 13  1  0
 12 13  1  0
  8 14  1  0
  9 15  1  0
 13 16  1  0
 13 22  1  0
 22 23  1  0
  1  2  2  0
  2  3  1  0
  3  4  2  0
  4  5  1  0
  5  6  2  0
  6  1  1  0
 16 17  2  0
 17 18  1  0
 18 19  2  0
 19 20  1  0
 20 21  2  0
 21 16  1  0
M  END

$$$$
