No_3242-gen_results/8p0m/2024-11-26-14-13-15/
     RDKit          3D

 19 20  0  0  0  0  0  0  0  0999 V2000
  -28.0162   -0.8135   28.8779 C   0  0  0  0  0  0  0  0  0  0  0  0
  -27.0636   -0.1190   28.6079 C   0  0  0  0  0  0  0  0  0  0  0  0
  -25.7647   -0.3897   29.0360 C   0  0  0  0  0  0  0  0  0  0  0  0
  -24.5516    0.4058   28.7646 C   0  0  0  0  0  0  0  0  0  0  0  0
  -24.6957    1.4480   27.7988 C   0  0  0  0  0  0  0  0  0  0  0  0
  -26.0010    1.6784   27.2965 C   0  0  0  0  0  0  0  0  0  0  0  0
  -27.0736    0.9682   27.6500 C   0  0  0  0  0  0  0  0  0  0  0  0
  -28.6562   -0.5986   30.0686 N   0  0  0  0  0  0  0  0  0  0  0  0
  -28.4566    0.3656   30.7387 C   0  0  0  0  0  0  0  0  0  0  0  0
  -28.7161    0.8494   31.6658 N   0  0  0  0  0  0  0  0  0  0  0  0
  -23.5233    2.2203   27.4830 C   0  0  0  0  0  0  0  0  0  0  0  0
  -22.3373    1.7157   27.7449 N   0  0  0  0  0  0  0  0  0  0  0  0
  -22.1619    0.7363   28.7110 C   0  0  0  0  0  0  0  0  0  0  0  0
  -23.2317   -0.0056   29.1618 C   0  0  0  0  0  0  0  0  0  0  0  0
  -23.5981    3.1985   26.6778 O   0  0  0  0  0  0  0  0  0  0  0  0
  -28.2277    2.1317   32.1290 C   0  0  0  0  0  0  0  0  0  0  0  0
  -28.3582    2.9546   32.9031 C   0  0  0  0  0  0  0  0  0  0  0  0
  -26.9679    2.2799   31.2567 C   0  0  0  0  0  0  0  0  0  0  0  0
  -26.1193    3.4820   31.4250 C   0  0  0  0  0  0  0  0  0  0  0  0
  1  8  1  0
  8  9  2  0
  9 10  2  0
  5 11  1  0
 11 12  1  0
  4 14  1  0
 13 14  1  0
 11 15  2  0
 10 16  1  0
 16 17  1  0
 16 18  1  0
 18 19  1  0
  1  2  1  0
 13 12  1  0
  2  3  2  0
  3  4  1  0
  4  5  2  0
  5  6  1  0
  6  7  2  0
  7  2  1  0
M  END

$$$$
