No_3573-gen_results/8p0m/2024-11-26-14-13-15/
     RDKit          3D

 23 25  0  0  0  0  0  0  0  0999 V2000
  -28.0162   -0.8135   28.8779 C   0  0  0  0  0  0  0  0  0  0  0  0
  -27.0636   -0.1189   28.6079 C   0  0  0  0  0  0  0  0  0  0  0  0
  -27.0010    0.6913   27.4910 C   0  0  0  0  0  0  0  0  0  0  0  0
  -28.1373    0.7363   26.6350 C   0  0  0  0  0  0  0  0  0  0  0  0
  -29.2360    0.0765   27.0690 C   0  0  0  0  0  0  0  0  0  0  0  0
  -29.2177   -0.6429   28.1747 C   0  0  0  0  0  0  0  0  0  0  0  0
  -28.0030   -1.6604   30.1266 C   0  0  0  0  0  0  0  0  0  0  0  0
  -27.1218   -2.5017   30.2445 O   0  0  0  0  0  0  0  0  0  0  0  0
  -28.7049   -1.3635   31.1697 O   0  0  0  0  0  0  0  0  0  0  0  0
  -30.4189    0.1660   26.1798 C   0  0  0  0  0  0  0  0  0  0  0  0
  -30.4663    0.2582   24.9905 O   0  0  0  0  0  0  0  0  0  0  0  0
  -31.6033   -0.4232   26.7690 N   0  0  0  0  0  0  0  0  0  0  0  0
  -32.7888   -0.5653   26.0085 C   0  0  0  0  0  0  0  0  0  0  0  0
  -25.7369    1.4041   27.0438 C   0  0  0  0  0  0  0  0  0  0  0  0
  -25.3371    2.4948   27.8689 C   0  0  0  0  0  0  0  0  0  0  0  0
  -24.3976    3.0883   28.0598 C   0  0  0  0  0  0  0  0  0  0  0  0
  -26.5727    3.2561   28.5497 C   0  0  0  0  0  0  0  0  0  0  0  0
  -26.3393    4.4190   29.2393 C   0  0  0  0  0  0  0  0  0  0  0  0
  -23.1471    2.4187   27.3663 C   0  0  0  0  0  0  0  0  0  0  0  0
  -25.1022    5.0024   29.2117 C   0  0  0  0  0  0  0  0  0  0  0  0
  -24.0440    4.3834   28.6128 C   0  0  0  0  0  0  0  0  0  0  0  0
  -25.0308    0.9876   25.9818 C   0  0  0  0  0  0  0  0  0  0  0  0
  -23.5392    1.5280   26.2531 C   0  0  0  0  0  0  0  0  0  0  0  0
  1  7  1  0
  7  8  2  0
  7  9  1  0
  5 10  1  0
 10 11  2  0
 10 12  1  0
 12 13  1  0
  3 14  1  0
 16 21  1  0
 21 20  2  0
 20 18  1  0
 18 17  2  0
 17 15  1  0
  1  2  2  0
  2  3  1  0
  3  4  2  0
  4  5  1  0
  5  6  2  0
  6  1  1  0
 14 15  2  0
 15 16  1  0
 16 19  2  0
 19 23  1  0
 23 22  2  0
 22 14  1  0
M  END

$$$$
