No_3524-gen_results/8p0m/2024-11-26-14-13-15/
     RDKit          3D

 20 20  0  0  0  0  0  0  0  0999 V2000
  -28.0162   -0.8135   28.8779 C   0  0  0  0  0  0  0  0  0  0  0  0
  -28.4690   -0.7850   29.8287 C   0  0  0  0  0  0  0  0  0  0  0  0
  -27.0871    0.2903   28.6377 C   0  0  0  0  0  0  0  0  0  0  0  0
  -26.8317    1.2487   29.5869 C   0  0  0  0  0  0  0  0  0  0  0  0
  -28.3914    0.0801   31.0065 C   0  0  0  0  0  0  0  0  0  0  0  0
  -27.4940    1.1521   30.7841 C   0  0  0  0  0  0  0  0  0  0  0  0
  -26.3109    0.3917   27.3640 C   0  0  0  0  0  0  0  0  0  0  0  0
  -26.8602    0.4028   26.3801 F   0  0  0  0  0  0  0  0  0  0  0  0
  -25.3019   -0.5689   27.4053 F   0  0  0  0  0  0  0  0  0  0  0  0
  -25.5002    1.5642   27.2854 F   0  0  0  0  0  0  0  0  0  0  0  0
  -29.3904   -1.9546   30.1929 N   0  0  0  0  0  0  0  0  0  0  0  0
  -28.9402   -3.2785   30.4396 C   0  0  0  0  0  0  0  0  0  0  0  0
  -29.8373   -4.2566   30.6084 N   0  0  0  0  0  0  0  0  0  0  0  0
  -27.7207   -3.4865   30.7591 O   0  0  0  0  0  0  0  0  0  0  0  0
  -29.4978   -5.6399   30.8519 C   0  0  0  0  0  0  0  0  0  0  0  0
  -31.2385   -4.0031   30.3658 C   0  0  0  0  0  0  0  0  0  0  0  0
  -31.8159   -5.0651   29.8182 C   0  0  0  0  0  0  0  0  0  0  0  0
  -32.0945   -5.0580   28.8344 C   0  0  0  0  0  0  0  0  0  0  0  0
  -31.4810   -5.2554   27.9000 C   0  0  0  0  0  0  0  0  0  0  0  0
  -31.7883   -5.3371   26.4423 C   0  0  0  0  0  0  0  0  0  0  0  0
  3  7  1  0
  7  8  1  0
  7  9  1  0
  7 10  1  0
  2 11  1  0
 11 12  1  0
 12 13  1  0
 12 14  2  0
 13 15  1  0
 13 16  1  0
 16 17  1  0
 17 18  1  0
 18 19  2  3
 19 20  1  0
  1  2  2  0
  2  5  1  0
  5  6  2  0
  6  4  1  0
  4  3  2  0
  3  1  1  0
M  END

$$$$
