No_3435-gen_results/8p0m/2024-11-26-14-13-15/
     RDKit          3D

 15 16  0  0  0  0  0  0  0  0999 V2000
  -28.0162   -0.8135   28.8779 C   0  0  0  0  0  0  0  0  0  0  0  0
  -27.0636   -0.1189   28.6079 C   0  0  0  0  0  0  0  0  0  0  0  0
  -26.9849    0.5972   27.5218 N   0  0  0  0  0  0  0  0  0  0  0  0
  -27.9606   -1.5421   30.1660 C   0  0  0  0  0  0  0  0  0  0  0  0
  -26.7814   -1.6198   30.8836 C   0  0  0  0  0  0  0  0  0  0  0  0
  -25.7036   -0.9461   30.3328 C   0  0  0  0  0  0  0  0  0  0  0  0
  -25.7596   -0.1866   29.2380 C   0  0  0  0  0  0  0  0  0  0  0  0
  -26.7997    1.8989   27.4114 C   0  0  0  0  0  0  0  0  0  0  0  0
  -26.6142    2.5548   26.1511 C   0  0  0  0  0  0  0  0  0  0  0  0
  -27.1643    0.0228   26.1872 C   0  0  0  0  0  0  0  0  0  0  0  0
  -27.1269    0.5516   24.9610 C   0  0  0  0  0  0  0  0  0  0  0  0
  -26.8379    1.8968   24.9063 C   0  0  0  0  0  0  0  0  0  0  0  0
  -29.1268   -2.3398   30.6635 C   0  0  0  0  0  0  0  0  0  0  0  0
  -29.8195   -1.9132   31.3553 O   0  0  0  0  0  0  0  0  0  0  0  0
  -28.9587   -3.6419   30.4411 O   0  0  0  0  0  0  0  0  0  0  0  0
  2  3  1  0
  3  8  1  0
  3 10  1  0
  9 12  1  0
 11 12  1  0
  4 13  1  0
 13 14  2  0
 13 15  1  0
  8  9  1  0
 11 10  1  0
  1  2  2  0
  2  7  1  0
  7  6  2  0
  6  5  1  0
  5  4  2  0
  4  1  1  0
M  END

$$$$
