No_3683-gen_results/8p0m/2024-11-26-14-13-15/
     RDKit          3D

 11 12  0  0  0  0  0  0  0  0999 V2000
  -28.1229   -1.3353   28.4874 O   0  0  0  0  0  0  0  0  0  0  0  0
  -27.0637   -0.8242   28.8687 C   0  0  0  0  0  0  0  0  0  0  0  0
  -25.9464   -1.0396   28.8492 C   0  0  0  0  0  0  0  0  0  0  0  0
  -24.7602   -0.1562   29.1644 C   0  0  0  0  0  0  0  0  0  0  0  0
  -23.3890   -0.4551   29.0162 C   0  0  0  0  0  0  0  0  0  0  0  0
  -27.3395    0.3833   29.7633 N   0  0  0  0  0  0  0  0  0  0  0  0
  -26.4205    1.2770   30.1889 C   0  0  0  0  0  0  0  0  0  0  0  0
  -25.0644    1.0553   29.9319 C   0  0  0  0  0  0  0  0  0  0  0  0
  -22.3605    0.0911   29.5905 C   0  0  0  0  0  0  0  0  0  0  0  0
  -22.7326    1.4294   30.2412 C   0  0  0  0  0  0  0  0  0  0  0  0
  -24.0013    1.7798   30.4432 C   0  0  0  0  0  0  0  0  0  0  0  0
  1  2  2  0
  2  3  1  0
  3  4  1  0
  2  6  1  0
  7  8  1  0
  7  6  1  0
  4  5  2  0
  5  9  1  0
  9 10  2  0
 10 11  1  0
 11  8  2  0
  8  4  1  0
M  END

$$$$
