No_3505-gen_results/8p0m/2024-11-26-14-13-15/
     RDKit          3D

 21 24  0  0  0  0  0  0  0  0999 V2000
  -28.1229   -1.3353   28.4874 O   0  0  0  0  0  0  0  0  0  0  0  0
  -27.0637   -0.8242   28.8687 C   0  0  0  0  0  0  0  0  0  0  0  0
  -27.0246    0.1877   29.7358 C   0  0  0  0  0  0  0  0  0  0  0  0
  -25.8391    0.8513   29.9958 C   0  0  0  0  0  0  0  0  0  0  0  0
  -25.7786   -0.9958   28.1896 N   0  0  0  0  0  0  0  0  0  0  0  0
  -24.6123   -0.4253   28.4392 C   0  0  0  0  0  0  0  0  0  0  0  0
  -24.5862    0.5561   29.3701 C   0  0  0  0  0  0  0  0  0  0  0  0
  -23.3251    1.2198   29.6320 C   0  0  0  0  0  0  0  0  0  0  0  0
  -23.3170    2.1515   30.3443 O   0  0  0  0  0  0  0  0  0  0  0  0
  -22.2075    0.7241   29.2082 O   0  0  0  0  0  0  0  0  0  0  0  0
  -28.9514   -1.4839   29.5453 C   0  0  0  0  0  0  0  0  0  0  0  0
  -29.5746   -2.5155   29.5101 C   0  0  0  0  0  0  0  0  0  0  0  0
  -30.5545   -2.8628   30.6795 C   0  0  0  0  0  0  0  0  0  0  0  0
  -30.7739   -1.8785   31.6196 C   0  0  0  0  0  0  0  0  0  0  0  0
  -30.0568   -0.7305   31.5497 C   0  0  0  0  0  0  0  0  0  0  0  0
  -29.1613   -0.5033   30.5081 C   0  0  0  0  0  0  0  0  0  0  0  0
  -28.1310    0.3463   30.6705 C   0  0  0  0  0  0  0  0  0  0  0  0
  -28.1177    1.4289   31.6837 C   0  0  0  0  0  0  0  0  0  0  0  0
  -27.3500    2.4395   31.7312 C   0  0  0  0  0  0  0  0  0  0  0  0
  -26.0401    2.5767   31.1966 C   0  0  0  0  0  0  0  0  0  0  0  0
  -25.7122    1.8451   30.9115 C   0  0  0  0  0  0  0  0  0  0  0  0
  1  2  1  0
  7  8  1  0
  8  9  2  0
  8 10  1  0
  1 11  1  0
  3 17  1  0
 16 17  1  0
 17 18  1  0
 18 19  2  0
 19 20  1  0
  4 21  1  0
 20 21  1  0
 11 12  2  0
 12 13  1  0
 13 14  2  0
 14 15  1  0
 15 16  2  0
 16 11  1  0
  2  3  2  0
  3  4  1  0
  4  7  2  0
  7  6  1  0
  6  5  2  0
  5  2  1  0
M  END

$$$$
