No_3614-gen_results/8p0m/2024-11-26-14-13-15/
     RDKit          3D

 15 15  0  0  0  0  0  0  0  0999 V2000
  -28.0162   -0.8135   28.8779 C   0  0  0  0  0  0  0  0  0  0  0  0
  -28.4690   -0.7850   29.8287 C   0  0  0  0  0  0  0  0  0  0  0  0
  -26.5455   -0.8762   28.8500 C   0  0  0  0  0  0  0  0  0  0  0  0
  -25.8041   -1.0324   30.0571 C   0  0  0  0  0  0  0  0  0  0  0  0
  -24.3697   -1.0998   30.0718 C   0  0  0  0  0  0  0  0  0  0  0  0
  -27.9902   -1.0051   31.2092 C   0  0  0  0  0  0  0  0  0  0  0  0
  -26.5616   -1.1368   31.2600 C   0  0  0  0  0  0  0  0  0  0  0  0
  -23.7274    0.1713   30.0259 C   0  0  0  0  0  0  0  0  0  0  0  0
  -24.0505    1.2537   30.5567 C   0  0  0  0  0  0  0  0  0  0  0  0
  -24.7486    1.2743   31.5224 F   0  0  0  0  0  0  0  0  0  0  0  0
  -23.8016    2.3559   30.0234 F   0  0  0  0  0  0  0  0  0  0  0  0
  -25.8193   -0.8034   27.7237 O   0  0  0  0  0  0  0  0  0  0  0  0
  -25.7053    0.4432   27.0571 C   0  0  0  0  0  0  0  0  0  0  0  0
  -22.4318    0.0818   29.1508 C   0  0  0  0  0  0  0  0  0  0  0  0
  -24.9658    0.4975   25.9421 C   0  0  0  0  0  0  0  0  0  0  0  0
  4  5  1  0
  5  8  1  0
  8  9  1  0
  9 10  1  0
  9 11  1  0
  3 12  1  0
 12 13  1  0
  8 14  1  0
 13 15  2  0
  1  2  2  0
  2  6  1  0
  6  7  2  0
  7  4  1  0
  4  3  2  0
  3  1  1  0
M  END

$$$$
