No_3911-gen_results/8p0m/2024-11-26-14-13-15/
     RDKit          3D

 24 26  0  0  0  0  0  0  0  0999 V2000
  -28.0162   -0.8135   28.8779 C   0  0  0  0  0  0  0  0  0  0  0  0
  -27.0636   -0.1189   28.6079 C   0  0  0  0  0  0  0  0  0  0  0  0
  -26.9287    1.1713   29.0083 C   0  0  0  0  0  0  0  0  0  0  0  0
  -27.9560    1.7411   29.7840 C   0  0  0  0  0  0  0  0  0  0  0  0
  -29.0569   -0.3271   29.7466 C   0  0  0  0  0  0  0  0  0  0  0  0
  -28.9828    0.9722   30.1516 C   0  0  0  0  0  0  0  0  0  0  0  0
  -25.8907   -0.6263   27.7857 C   0  0  0  0  0  0  0  0  0  0  0  0
  -25.4633    0.1123   26.6815 C   0  0  0  0  0  0  0  0  0  0  0  0
  -26.2851    1.1179   26.2361 C   0  0  0  0  0  0  0  0  0  0  0  0
  -25.6302    1.9474   25.3034 C   0  0  0  0  0  0  0  0  0  0  0  0
  -24.4284    2.2534   25.4947 C   0  0  0  0  0  0  0  0  0  0  0  0
  -23.4878    1.3400   26.2433 C   0  0  0  0  0  0  0  0  0  0  0  0
  -24.0926    0.4760   27.0417 C   0  0  0  0  0  0  0  0  0  0  0  0
  -22.0954    1.8280   26.4757 C   0  0  0  0  0  0  0  0  0  0  0  0
  -21.5827    2.6719   25.8899 F   0  0  0  0  0  0  0  0  0  0  0  0
  -21.9857    2.2000   27.8897 F   0  0  0  0  0  0  0  0  0  0  0  0
  -21.3998    0.7392   26.6257 F   0  0  0  0  0  0  0  0  0  0  0  0
  -27.7771    3.1721   30.2338 C   0  0  0  0  0  0  0  0  0  0  0  0
  -28.2314    3.7978   30.9027 C   0  0  0  0  0  0  0  0  0  0  0  0
  -28.1663    4.9583   31.3890 C   0  0  0  0  0  0  0  0  0  0  0  0
  -27.0976    5.7837   30.8144 C   0  0  0  0  0  0  0  0  0  0  0  0
  -26.3114    5.1672   29.8297 C   0  0  0  0  0  0  0  0  0  0  0  0
  -26.5403    3.8001   29.4976 C   0  0  0  0  0  0  0  0  0  0  0  0
  -25.2764    5.8174   29.2457 O   0  0  0  0  0  0  0  0  0  0  0  0
  2  7  1  0
 12 14  1  0
 14 15  1  0
 14 16  1  0
 14 17  1  0
  4 18  1  0
 22 24  1  0
  7  8  1  0
 18 19  2  0
 19 20  1  0
 20 21  2  0
 21 22  1  0
 22 23  2  0
 23 18  1  0
  1  2  2  0
  2  3  1  0
  3  4  2  0
  4  6  1  0
  6  5  2  0
  5  1  1  0
  8  9  2  0
  9 10  1  0
 10 11  2  0
 11 12  1  0
 12 13  2  0
 13  8  1  0
M  END

$$$$
