No_3373-gen_results/8p0m/2024-11-26-14-13-15/
     RDKit          3D

 19 22  0  0  0  0  0  0  0  0999 V2000
  -28.1229   -1.3353   28.4874 O   0  0  0  0  0  0  0  0  0  0  0  0
  -27.4806   -0.4044   28.7094 C   0  0  0  0  0  0  0  0  0  0  0  0
  -26.3804   -0.0867   27.9394 C   0  0  0  0  0  0  0  0  0  0  0  0
  -27.4232    0.1749   30.0549 N   0  0  0  0  0  0  0  0  0  0  0  0
  -26.1558    0.1159   26.9677 C   0  0  0  0  0  0  0  0  0  0  0  0
  -24.8999    0.6041   26.2249 C   0  0  0  0  0  0  0  0  0  0  0  0
  -24.0303    1.0547   26.9836 C   0  0  0  0  0  0  0  0  0  0  0  0
  -24.0378    0.9051   28.3738 C   0  0  0  0  0  0  0  0  0  0  0  0
  -25.1577    0.4744   28.9583 C   0  0  0  0  0  0  0  0  0  0  0  0
  -28.5463    0.0962   30.7916 C   0  0  0  0  0  0  0  0  0  0  0  0
  -22.8277    1.6589   26.4283 O   0  0  0  0  0  0  0  0  0  0  0  0
  -21.9133    2.1219   27.3668 C   0  0  0  0  0  0  0  0  0  0  0  0
  -22.9853    1.3992   29.1364 C   0  0  0  0  0  0  0  0  0  0  0  0
  -21.9216    2.0001   28.6155 O   0  0  0  0  0  0  0  0  0  0  0  0
  -28.3811    0.3022   32.0184 C   0  0  0  0  0  0  0  0  0  0  0  0
  -27.2258    0.9239   32.5910 C   0  0  0  0  0  0  0  0  0  0  0  0
  -26.1132    0.9853   31.7469 C   0  0  0  0  0  0  0  0  0  0  0  0
  -26.2501    0.5511   30.4850 C   0  0  0  0  0  0  0  0  0  0  0  0
  -25.3636   -0.3021   30.3205 C   0  0  0  0  0  0  0  0  0  0  0  0
  1  2  2  0
  2  3  1  0
  2  4  1  0
  4 10  1  0
  7 11  1  0
 11 12  1  0
  8 13  1  0
 12 14  1  0
 13 14  1  0
 15 16  1  0
  4 18  1  0
 17 18  1  0
  9 19  1  0
 18 19  1  0
 10 15  1  0
 16 17  1  0
  3  5  2  0
  5  6  1  0
  6  7  2  0
  7  8  1  0
  8  9  2  0
  9  3  1  0
M  END

$$$$
