No_3649-gen_results/8p0m/2024-11-26-14-13-15/
     RDKit          3D

 22 24  0  0  0  0  0  0  0  0999 V2000
  -28.0162   -0.8135   28.8779 C   0  0  0  0  0  0  0  0  0  0  0  0
  -27.0636   -0.1190   28.6079 C   0  0  0  0  0  0  0  0  0  0  0  0
  -25.7923   -0.4302   29.0761 C   0  0  0  0  0  0  0  0  0  0  0  0
  -24.5456    0.3494   28.8225 C   0  0  0  0  0  0  0  0  0  0  0  0
  -23.2409    0.0217   29.3323 C   0  0  0  0  0  0  0  0  0  0  0  0
  -28.1914   -1.2584   30.0884 C   0  0  0  0  0  0  0  0  0  0  0  0
  -26.9910   -1.6815   30.8192 C   0  0  0  0  0  0  0  0  0  0  0  0
  -25.6985   -1.1664   30.3669 C   0  0  0  0  0  0  0  0  0  0  0  0
  -22.1119    0.6649   28.8308 C   0  0  0  0  0  0  0  0  0  0  0  0
  -22.0831    1.5286   27.7731 C   0  0  0  0  0  0  0  0  0  0  0  0
  -24.5040    1.2240   27.6434 C   0  0  0  0  0  0  0  0  0  0  0  0
  -23.3238    1.8178   27.2050 C   0  0  0  0  0  0  0  0  0  0  0  0
  -29.4130   -1.9806   30.5937 C   0  0  0  0  0  0  0  0  0  0  0  0
  -29.7168   -1.8840   31.8174 O   0  0  0  0  0  0  0  0  0  0  0  0
  -30.1326   -2.5943   29.8071 O   0  0  0  0  0  0  0  0  0  0  0  0
  -23.3683    2.7140   26.1825 O   0  0  0  0  0  0  0  0  0  0  0  0
  -24.6067    3.1919   25.9195 C   0  0  0  0  0  0  0  0  0  0  0  0
  -26.9981    0.5978   27.3969 O   0  0  0  0  0  0  0  0  0  0  0  0
  -26.3289    1.3955   26.8770 C   0  0  0  0  0  0  0  0  0  0  0  0
  -24.1266    1.1449   26.6197 Cl  0  0  0  0  0  0  0  0  0  0  0  0
  -26.1399    2.5138   26.0994 C   0  0  0  0  0  0  0  0  0  0  0  0
  -27.1389    2.1373   27.0618 C   0  0  0  0  0  0  0  0  0  0  0  0
  3  4  1  0
  6 13  1  0
 13 14  1  0
 13 15  2  0
 12 16  1  0
 16 17  1  0
  2 18  1  0
 18 19  1  0
 11 20  1  0
 17 21  2  3
 19 21  1  0
 19 22  1  0
  1  2  2  0
  2  3  1  0
  3  8  2  0
  8  7  1  0
  7  6  2  0
  6  1  1  0
  4  5  2  0
  5  9  1  0
  9 10  2  0
 10 12  1  0
 12 11  2  0
 11  4  1  0
M  END

$$$$
