No_3712-gen_results/8p0m/2024-11-26-14-13-15/
     RDKit          3D

 20 21  0  0  0  0  0  0  0  0999 V2000
  -28.0162   -0.8135   28.8779 C   0  0  0  0  0  0  0  0  0  0  0  0
  -27.0636   -0.1190   28.6079 C   0  0  0  0  0  0  0  0  0  0  0  0
  -26.9287    1.1713   29.0083 C   0  0  0  0  0  0  0  0  0  0  0  0
  -25.7702    2.0341   28.6884 C   0  0  0  0  0  0  0  0  0  0  0  0
  -24.7141    1.4431   27.9188 C   0  0  0  0  0  0  0  0  0  0  0  0
  -24.8590    0.0783   27.5836 C   0  0  0  0  0  0  0  0  0  0  0  0
  -25.9647   -0.6606   27.9164 C   0  0  0  0  0  0  0  0  0  0  0  0
  -28.6995   -0.6441   30.0766 N   0  0  0  0  0  0  0  0  0  0  0  0
  -29.8035   -1.3645   30.5061 C   0  0  0  0  0  0  0  0  0  0  0  0
  -30.3751   -2.1790   29.7448 C   0  0  0  0  0  0  0  0  0  0  0  0
  -30.4580   -3.5170   30.2214 C   0  0  0  0  0  0  0  0  0  0  0  0
  -31.0648   -4.4893   29.3941 C   0  0  0  0  0  0  0  0  0  0  0  0
  -31.9986   -4.1161   28.4469 C   0  0  0  0  0  0  0  0  0  0  0  0
  -32.0514   -2.7283   28.1172 C   0  0  0  0  0  0  0  0  0  0  0  0
  -31.3108   -1.8111   28.7925 C   0  0  0  0  0  0  0  0  0  0  0  0
  -30.0754   -1.1576   31.7607 O   0  0  0  0  0  0  0  0  0  0  0  0
  -23.5171    2.1431   27.5669 C   0  0  0  0  0  0  0  0  0  0  0  0
  -23.3438    2.7346   26.6685 F   0  0  0  0  0  0  0  0  0  0  0  0
  -22.9855    2.8175   28.6905 F   0  0  0  0  0  0  0  0  0  0  0  0
  -22.4149    1.1109   27.5713 F   0  0  0  0  0  0  0  0  0  0  0  0
  1  2  1  0
  1  8  1  0
  8  9  1  0
  9 10  1  0
  9 16  2  0
  5 17  1  0
 17 18  1  0
 17 19  1  0
 17 20  1  0
  2  3  2  0
  3  4  1  0
  4  5  2  0
  5  6  1  0
  6  7  2  0
  7  2  1  0
 10 11  2  0
 11 12  1  0
 12 13  2  0
 13 14  1  0
 14 15  2  0
 15 10  1  0
M  END

$$$$
