No_3312-gen_results/8p0m/2024-11-26-14-13-15/
     RDKit          3D

 35 36  0  0  0  0  0  0  0  0999 V2000
  -28.0162   -0.8135   28.8779 C   0  0  0  0  0  0  0  0  0  0  0  0
  -27.0636   -0.1190   28.6079 C   0  0  0  0  0  0  0  0  0  0  0  0
  -27.0010    0.6913   27.4910 C   0  0  0  0  0  0  0  0  0  0  0  0
  -28.1420    0.8282   26.7994 C   0  0  0  0  0  0  0  0  0  0  0  0
  -29.2898   -0.4871   28.3661 C   0  0  0  0  0  0  0  0  0  0  0  0
  -29.2849    0.2608   27.2623 C   0  0  0  0  0  0  0  0  0  0  0  0
  -28.1334   -1.5894   30.1632 C   0  0  0  0  0  0  0  0  0  0  0  0
  -27.3944   -2.6825   30.1386 O   0  0  0  0  0  0  0  0  0  0  0  0
  -30.5213    0.4614   26.4496 C   0  0  0  0  0  0  0  0  0  0  0  0
  -31.4203   -0.1517   26.8325 F   0  0  0  0  0  0  0  0  0  0  0  0
  -30.7836    1.7735   26.4151 F   0  0  0  0  0  0  0  0  0  0  0  0
  -30.2996    0.0899   25.1342 F   0  0  0  0  0  0  0  0  0  0  0  0
  -28.4994   -1.2075   31.2517 O   0  0  0  0  0  0  0  0  0  0  0  0
  -25.6241    1.1088   27.0873 C   0  0  0  0  0  0  0  0  0  0  0  0
  -24.5640    0.7827   27.7264 C   0  0  0  0  0  0  0  0  0  0  0  0
  -23.2553    1.3247   27.4746 C   0  0  0  0  0  0  0  0  0  0  0  0
  -23.1212    2.0728   26.2986 C   0  0  0  0  0  0  0  0  0  0  0  0
  -24.2293    2.3876   25.5708 C   0  0  0  0  0  0  0  0  0  0  0  0
  -25.4850    1.9390   25.9371 C   0  0  0  0  0  0  0  0  0  0  0  0
  -22.0680    0.9812   28.2350 C   0  0  0  0  0  0  0  0  0  0  0  0
  -21.0164    1.6536   28.1439 N   0  0  0  0  0  0  0  0  0  0  0  0
  -22.2039    0.2216   29.4578 C   0  0  0  0  0  0  0  0  0  0  0  0
  -23.0683    0.2059   30.2385 O   0  0  0  0  0  0  0  0  0  0  0  0
  -21.1992   -0.6855   29.6254 O   0  0  0  0  0  0  0  0  0  0  0  0
  -29.3678   -1.9475   31.9882 C   0  0  0  0  0  0  0  0  0  0  0  0
  -29.9483   -3.0089   31.4010 C   0  0  0  0  0  0  0  0  0  0  0  0
  -30.6470   -2.8591   30.2946 C   0  0  0  0  0  0  0  0  0  0  0  0
  -31.8478   -2.1945   30.4795 C   0  0  0  0  0  0  0  0  0  0  0  0
  -32.8966   -2.9263   30.7796 C   0  0  0  0  0  0  0  0  0  0  0  0
  -30.8224   -3.7501   32.3487 O   0  0  0  0  0  0  0  0  0  0  0  0
  -30.9561   -4.0451   29.5468 O   0  0  0  0  0  0  0  0  0  0  0  0
  -32.8213   -4.0180   29.7829 C   0  0  0  0  0  0  0  0  0  0  0  0
  -30.1626   -4.8242   29.7564 C   0  0  0  0  0  0  0  0  0  0  0  0
  -32.8399   -5.2837   30.2170 O   0  0  0  0  0  0  0  0  0  0  0  0
  -32.2480   -1.1175   29.4667 O   0  0  0  0  0  0  0  0  0  0  0  0
  1  7  1  0
  7  8  2  0
  6  9  1  0
  9 10  1  0
  9 11  1  0
  9 12  1  0
  7 13  1  0
  3 14  1  0
 16 20  1  0
 20 21  2  0
 20 22  1  0
 22 23  2  0
 22 24  1  0
 13 25  1  0
 25 26  1  0
 26 27  2  3
 27 28  1  0
 28 29  1  0
 26 30  1  0
 27 31  1  0
 29 32  1  0
 31 33  1  0
 32 34  1  0
 28 35  1  0
 14 15  2  0
 15 16  1  0
 16 17  2  0
 17 18  1  0
 18 19  2  0
 19 14  1  0
  1  2  2  0
  2  3  1  0
  3  4  2  0
  4  6  1  0
  6  5  2  0
  5  1  1  0
M  END

$$$$
