No_3389-gen_results/8p0m/2024-11-26-14-13-15/
     RDKit          3D

 34 36  0  0  0  0  0  0  0  0999 V2000
  -28.0162   -0.8135   28.8779 C   0  0  0  0  0  0  0  0  0  0  0  0
  -27.0636   -0.1190   28.6079 C   0  0  0  0  0  0  0  0  0  0  0  0
  -27.0010    0.6913   27.4910 C   0  0  0  0  0  0  0  0  0  0  0  0
  -28.1373    0.7363   26.6350 C   0  0  0  0  0  0  0  0  0  0  0  0
  -29.2360    0.0765   27.0690 C   0  0  0  0  0  0  0  0  0  0  0  0
  -29.2177   -0.6429   28.1747 C   0  0  0  0  0  0  0  0  0  0  0  0
  -30.6116    0.1653   26.0711 Cl  0  0  0  0  0  0  0  0  0  0  0  0
  -25.7122   -0.2157   29.4104 C   0  0  0  0  0  0  0  0  0  0  0  0
  -24.6344   -0.5874   28.8773 N   0  0  0  0  0  0  0  0  0  0  0  0
  -23.4909   -0.8524   29.4185 C   0  0  0  0  0  0  0  0  0  0  0  0
  -23.3541   -0.6058   30.7548 C   0  0  0  0  0  0  0  0  0  0  0  0
  -25.7018   -0.0143   30.8047 C   0  0  0  0  0  0  0  0  0  0  0  0
  -24.4814   -0.1633   31.5230 C   0  0  0  0  0  0  0  0  0  0  0  0
  -28.0769   -1.6434   29.9944 O   0  0  0  0  0  0  0  0  0  0  0  0
  -28.7499   -1.8961   30.9114 C   0  0  0  0  0  0  0  0  0  0  0  0
  -28.8597   -1.0629   31.9571 C   0  0  0  0  0  0  0  0  0  0  0  0
  -28.0117   -0.1873   32.1274 F   0  0  0  0  0  0  0  0  0  0  0  0
  -30.0972   -0.6998   32.1973 F   0  0  0  0  0  0  0  0  0  0  0  0
  -28.3745   -3.1677   31.2851 F   0  0  0  0  0  0  0  0  0  0  0  0
  -28.6345   -1.8355   33.1693 F   0  0  0  0  0  0  0  0  0  0  0  0
  -29.9347   -2.2107   30.2844 F   0  0  0  0  0  0  0  0  0  0  0  0
  -22.3570   -1.1629   28.7674 N   0  0  0  0  0  0  0  0  0  0  0  0
  -28.0808    1.5964   25.4757 C   0  0  0  0  0  0  0  0  0  0  0  0
  -27.0144    1.4357   24.8475 F   0  0  0  0  0  0  0  0  0  0  0  0
  -29.0594    1.2247   24.6043 F   0  0  0  0  0  0  0  0  0  0  0  0
  -28.2336    3.2823   25.9062 Cl  0  0  0  0  0  0  0  0  0  0  0  0
  -21.1231   -0.5953   29.0887 C   0  0  0  0  0  0  0  0  0  0  0  0
  -20.6131    0.4725   28.4651 N   0  0  0  0  0  0  0  0  0  0  0  0
  -21.3341    1.4675   27.8608 C   0  0  0  0  0  0  0  0  0  0  0  0
  -22.6505    1.8438   28.3659 C   0  0  0  0  0  0  0  0  0  0  0  0
  -23.5200    2.7028   27.6155 C   0  0  0  0  0  0  0  0  0  0  0  0
  -23.3888    2.7261   26.2256 C   0  0  0  0  0  0  0  0  0  0  0  0
  -22.2587    2.0638   25.6085 C   0  0  0  0  0  0  0  0  0  0  0  0
  -21.2811    1.6218   26.4248 C   0  0  0  0  0  0  0  0  0  0  0  0
  5  7  1  0
  2  8  1  0
  1 14  1  0
 14 15  1  0
 15 16  1  0
 16 17  1  0
 16 18  1  0
 15 19  1  0
 16 20  1  0
 15 21  1  0
 10 22  1  0
  4 23  1  0
 23 24  1  0
 23 25  1  0
 23 26  1  0
 22 27  1  0
 27 28  1  0
 28 29  1  0
 29 30  2  0
 30 31  1  0
 31 32  2  0
 32 33  1  0
 33 34  2  0
 34 29  1  0
  1  2  2  0
  2  3  1  0
  3  4  2  0
  4  5  1  0
  5  6  2  0
  6  1  1  0
  8  9  2  0
  9 10  1  0
 10 11  2  0
 11 13  1  0
 13 12  2  0
 12  8  1  0
M  END

$$$$
