No_3959-gen_results/8p0m/2024-11-26-14-13-15/
     RDKit          3D

 19 19  0  0  0  0  0  0  0  0999 V2000
  -28.0162   -0.8135   28.8779 C   0  0  0  0  0  0  0  0  0  0  0  0
  -28.4690   -0.7850   29.8287 C   0  0  0  0  0  0  0  0  0  0  0  0
  -28.1960    0.3478   28.0550 C   0  0  0  0  0  0  0  0  0  0  0  0
  -29.0191    1.3501   28.3782 C   0  0  0  0  0  0  0  0  0  0  0  0
  -29.4107    0.1803   30.3782 C   0  0  0  0  0  0  0  0  0  0  0  0
  -29.6059    1.2495   29.6193 C   0  0  0  0  0  0  0  0  0  0  0  0
  -27.3467    0.3759   26.5145 Cl  0  0  0  0  0  0  0  0  0  0  0  0
  -30.2389    0.0168   31.9197 Cl  0  0  0  0  0  0  0  0  0  0  0  0
  -29.2003    2.4866   27.4973 C   0  0  0  0  0  0  0  0  0  0  0  0
  -29.9429    2.4425   26.3112 C   0  0  0  0  0  0  0  0  0  0  0  0
  -29.5707    3.7223   28.2778 C   0  0  0  0  0  0  0  0  0  0  0  0
  -27.7275    3.0597   27.0080 C   0  0  0  0  0  0  0  0  0  0  0  0
  -26.7466    3.2633   28.0009 C   0  0  0  0  0  0  0  0  0  0  0  0
  -25.3461    3.3261   27.6357 C   0  0  0  0  0  0  0  0  0  0  0  0
  -24.4148    2.4913   28.2730 C   0  0  0  0  0  0  0  0  0  0  0  0
  -23.1543    2.3040   27.6084 C   0  0  0  0  0  0  0  0  0  0  0  0
  -22.1501    1.5044   28.2709 C   0  0  0  0  0  0  0  0  0  0  0  0
  -22.4887    0.7904   29.4093 C   0  0  0  0  0  0  0  0  0  0  0  0
  -23.7405    0.9086   30.0234 C   0  0  0  0  0  0  0  0  0  0  0  0
  3  7  1  0
  5  8  1  0
  4  9  1  0
  9 10  1  0
  9 11  1  0
  9 12  1  0
 12 13  1  0
 13 14  1  0
 14 15  2  3
 15 16  1  0
 16 17  2  3
 17 18  1  0
 18 19  2  0
  1  2  2  0
  2  5  1  0
  5  6  2  0
  6  4  1  0
  4  3  2  0
  3  1  1  0
M  END

$$$$
