No_3980-gen_results/8p0m/2024-11-26-14-13-15/
     RDKit          3D

 21 23  0  0  0  0  0  0  0  0999 V2000
  -28.0162   -0.8135   28.8779 C   0  0  0  0  0  0  0  0  0  0  0  0
  -28.4690   -0.7850   29.8287 C   0  0  0  0  0  0  0  0  0  0  0  0
  -28.1816    0.4277   28.1134 C   0  0  0  0  0  0  0  0  0  0  0  0
  -28.9841    1.4155   28.5154 C   0  0  0  0  0  0  0  0  0  0  0  0
  -29.3802    0.1384   30.4612 C   0  0  0  0  0  0  0  0  0  0  0  0
  -29.5415    1.2736   29.7242 C   0  0  0  0  0  0  0  0  0  0  0  0
  -27.4586    0.4934   26.7701 C   0  0  0  0  0  0  0  0  0  0  0  0
  -27.8805    0.6637   25.7783 N   0  0  0  0  0  0  0  0  0  0  0  0
  -25.9360    0.3119   26.8304 C   0  0  0  0  0  0  0  0  0  0  0  0
  -25.1240    0.1300   27.9284 C   0  0  0  0  0  0  0  0  0  0  0  0
  -24.0085    0.3216   28.1533 C   0  0  0  0  0  0  0  0  0  0  0  0
  -23.2362    1.0189   27.0810 C   0  0  0  0  0  0  0  0  0  0  0  0
  -23.9411    1.4485   25.9497 C   0  0  0  0  0  0  0  0  0  0  0  0
  -25.3210    1.2382   25.8205 C   0  0  0  0  0  0  0  0  0  0  0  0
  -28.7317   -0.0473   25.1753 C   0  0  0  0  0  0  0  0  0  0  0  0
  -29.2392    0.3819   23.9152 C   0  0  0  0  0  0  0  0  0  0  0  0
  -30.4658    0.0532   23.5888 C   0  0  0  0  0  0  0  0  0  0  0  0
  -31.2876    0.7395   22.7520 C   0  0  0  0  0  0  0  0  0  0  0  0
  -30.8481    2.1039   22.3883 C   0  0  0  0  0  0  0  0  0  0  0  0
  -29.6362    2.5542   22.9664 C   0  0  0  0  0  0  0  0  0  0  0  0
  -28.9742    1.8090   23.7668 C   0  0  0  0  0  0  0  0  0  0  0  0
  3  7  1  0
  7  8  2  3
  7  9  1  0
  8 15  1  0
 15 16  1  0
  9 10  2  0
 10 11  1  0
 11 12  2  0
 12 13  1  0
 13 14  2  0
 14  9  1  0
  1  2  2  0
  2  5  1  0
  5  6  2  0
  6  4  1  0
  4  3  2  0
  3  1  1  0
 16 17  2  0
 17 18  1  0
 18 19  2  0
 19 20  1  0
 20 21  2  0
 21 16  1  0
M  END

$$$$
