No_3428-gen_results/8p0m/2024-11-26-14-13-15/
     RDKit          3D

 16 16  0  0  0  0  0  0  0  0999 V2000
  -28.0162   -0.8135   28.8779 C   0  0  0  0  0  0  0  0  0  0  0  0
  -27.0636   -0.1189   28.6079 C   0  0  0  0  0  0  0  0  0  0  0  0
  -25.7647   -0.3897   29.0360 C   0  0  0  0  0  0  0  0  0  0  0  0
  -24.5516    0.4058   28.7646 C   0  0  0  0  0  0  0  0  0  0  0  0
  -24.6957    1.4480   27.7988 C   0  0  0  0  0  0  0  0  0  0  0  0
  -25.9755    1.7250   27.3077 C   0  0  0  0  0  0  0  0  0  0  0  0
  -27.0718    1.0134   27.6535 C   0  0  0  0  0  0  0  0  0  0  0  0
  -28.6178   -0.4695   30.2207 C   0  0  0  0  0  0  0  0  0  0  0  0
  -29.6245   -1.2712   30.6820 O   0  0  0  0  0  0  0  0  0  0  0  0
  -23.4834    2.1873   27.4808 C   0  0  0  0  0  0  0  0  0  0  0  0
  -23.5540    3.1441   26.6990 O   0  0  0  0  0  0  0  0  0  0  0  0
  -22.2324    1.6628   27.6576 O   0  0  0  0  0  0  0  0  0  0  0  0
  -28.2371    0.3594   30.8982 O   0  0  0  0  0  0  0  0  0  0  0  0
  -28.3748    1.3201   27.0379 C   0  0  0  0  0  0  0  0  0  0  0  0
  -28.9487    2.4193   27.5625 C   0  0  0  0  0  0  0  0  0  0  0  0
  -30.2410    2.8518   27.0101 C   0  0  0  0  0  0  0  0  0  0  0  0
  1  8  1  0
  8  9  1  0
  5 10  1  0
 10 11  2  0
 10 12  1  0
  8 13  2  0
  7 14  1  0
 14 15  2  3
 15 16  1  0
  1  2  1  0
  2  3  2  0
  3  4  1  0
  4  5  2  0
  5  6  1  0
  6  7  2  0
  7  2  1  0
M  END

$$$$
