No_3704-gen_results/8p0m/2024-11-26-14-13-15/
     RDKit          3D

 25 26  0  0  0  0  0  0  0  0999 V2000
  -28.1493   -0.8198   28.9079 Cl  0  0  0  0  0  0  0  0  0  0  0  0
  -28.5324   -0.0471   29.7727 C   0  0  0  0  0  0  0  0  0  0  0  0
  -27.6024    0.7852   30.3185 C   0  0  0  0  0  0  0  0  0  0  0  0
  -27.9264    1.8091   31.3693 C   0  0  0  0  0  0  0  0  0  0  0  0
  -29.2820    1.8300   31.7435 C   0  0  0  0  0  0  0  0  0  0  0  0
  -30.1642    1.0016   31.2423 C   0  0  0  0  0  0  0  0  0  0  0  0
  -29.8161    0.0491   30.2948 C   0  0  0  0  0  0  0  0  0  0  0  0
  -29.2201    2.9705   32.7473 C   0  0  0  0  0  0  0  0  0  0  0  0
  -28.8837    3.9298   32.9634 C   0  0  0  0  0  0  0  0  0  0  0  0
  -28.3481    4.8963   32.9143 C   0  0  0  0  0  0  0  0  0  0  0  0
  -27.5652    6.0326   32.6507 C   0  0  0  0  0  0  0  0  0  0  0  0
  -30.2780    2.5516   33.9400 C   0  0  0  0  0  0  0  0  0  0  0  0
  -27.0427    6.4388   31.4629 C   0  0  0  0  0  0  0  0  0  0  0  0
  -27.2268    5.8785   30.2932 C   0  0  0  0  0  0  0  0  0  0  0  0
  -26.4973    6.2683   29.1534 C   0  0  0  0  0  0  0  0  0  0  0  0
  -26.3398    5.3549   28.0884 C   0  0  0  0  0  0  0  0  0  0  0  0
  -27.0583    4.1731   28.1490 C   0  0  0  0  0  0  0  0  0  0  0  0
  -27.9503    3.9204   29.2051 C   0  0  0  0  0  0  0  0  0  0  0  0
  -27.9343    4.7607   30.3179 C   0  0  0  0  0  0  0  0  0  0  0  0
  -29.2166    4.8695   30.6855 C   0  0  0  0  0  0  0  0  0  0  0  0
  -29.9784    5.7108   29.7259 N   0  0  0  0  0  0  0  0  0  0  0  0
  -31.3008    5.9886   29.8246 C   0  0  0  0  0  0  0  0  0  0  0  0
  -31.8179    6.7180   28.8206 C   0  0  0  0  0  0  0  0  0  0  0  0
  -28.6327    5.4080   33.9450 F   0  0  0  0  0  0  0  0  0  0  0  0
  -28.3677    3.6623   34.0322 O   0  0  0  0  0  0  0  0  0  0  0  0
  1  2  1  0
  5  8  1  0
  8  9  2  3
  9 10  1  0
 10 11  2  3
  8 12  1  0
 11 13  1  0
 13 14  1  0
 19 20  1  0
 20 21  1  0
 21 22  1  0
 22 23  2  0
 10 24  1  0
  9 25  1  0
  2  3  2  0
  3  4  1  0
  4  5  2  0
  5  6  1  0
  6  7  2  0
  7  2  1  0
 14 15  2  0
 15 16  1  0
 16 17  2  0
 17 18  1  0
 18 19  2  0
 19 14  1  0
M  END

$$$$
