No_3979-gen_results/8p0m/2024-11-26-14-13-15/
     RDKit          3D

 16 17  0  0  0  0  0  0  0  0999 V2000
  -28.1229   -1.3353   28.4874 O   0  0  0  0  0  0  0  0  0  0  0  0
  -28.5208   -0.4363   29.0779 C   0  0  0  0  0  0  0  0  0  0  0  0
  -27.9150    0.0780   30.0386 O   0  0  0  0  0  0  0  0  0  0  0  0
  -29.8074    0.1885   28.6630 C   0  0  0  0  0  0  0  0  0  0  0  0
  -29.7096    1.3760   28.1635 C   0  0  0  0  0  0  0  0  0  0  0  0
  -29.9900    2.0162   27.3858 C   0  0  0  0  0  0  0  0  0  0  0  0
  -29.7734    3.5079   26.9867 C   0  0  0  0  0  0  0  0  0  0  0  0
  -28.7957    4.1330   27.7903 C   0  0  0  0  0  0  0  0  0  0  0  0
  -28.2277    3.3795   28.7849 C   0  0  0  0  0  0  0  0  0  0  0  0
  -28.5760    2.0965   29.0270 C   0  0  0  0  0  0  0  0  0  0  0  0
  -27.6772    1.4688   29.8765 C   0  0  0  0  0  0  0  0  0  0  0  0
  -26.6588    2.0114   30.7951 C   0  0  0  0  0  0  0  0  0  0  0  0
  -25.5820    2.5224   30.2224 C   0  0  0  0  0  0  0  0  0  0  0  0
  -25.5341    3.1918   29.2228 Cl  0  0  0  0  0  0  0  0  0  0  0  0
  -24.7763    3.1424   31.1981 F   0  0  0  0  0  0  0  0  0  0  0  0
  -24.7006    1.3611   30.1679 F   0  0  0  0  0  0  0  0  0  0  0  0
  1  2  2  0
  2  3  1  0
  2  4  1  0
  4  5  1  0
  3 11  1  0
 10 11  1  0
 11 12  1  0
 12 13  1  0
 13 14  1  0
 13 15  1  0
 13 16  1  0
  5  6  2  0
  6  7  1  0
  7  8  2  0
  8  9  1  0
  9 10  2  0
 10  5  1  0
M  END

$$$$
