No_3808-gen_results/8p0m/2024-11-26-14-13-15/
     RDKit          3D

 33 37  0  0  0  0  0  0  0  0999 V2000
  -28.1229   -1.3353   28.4874 O   0  0  0  0  0  0  0  0  0  0  0  0
  -27.4806   -0.4044   28.7094 C   0  0  0  0  0  0  0  0  0  0  0  0
  -27.1904    0.2460   29.5268 C   0  0  0  0  0  0  0  0  0  0  0  0
  -26.8157    0.1371   27.4262 N   0  0  0  0  0  0  0  0  0  0  0  0
  -26.3550    1.4196   29.7643 C   0  0  0  0  0  0  0  0  0  0  0  0
  -26.0793    1.1044   27.4711 C   0  0  0  0  0  0  0  0  0  0  0  0
  -25.7677    1.8659   28.6045 C   0  0  0  0  0  0  0  0  0  0  0  0
  -27.7596   -0.2149   31.0042 C   0  0  0  0  0  0  0  0  0  0  0  0
  -29.0102    0.5023   31.3154 C   0  0  0  0  0  0  0  0  0  0  0  0
  -29.6748    0.0001   32.2062 C   0  0  0  0  0  0  0  0  0  0  0  0
  -29.2739   -1.1723   33.0282 C   0  0  0  0  0  0  0  0  0  0  0  0
  -28.1476   -1.8238   32.6185 C   0  0  0  0  0  0  0  0  0  0  0  0
  -27.3786   -1.3784   31.5661 C   0  0  0  0  0  0  0  0  0  0  0  0
  -25.4483    1.5566   26.2605 N   0  0  0  0  0  0  0  0  0  0  0  0
  -24.4643    2.5211   26.2431 C   0  0  0  0  0  0  0  0  0  0  0  0
  -24.2812    3.2899   27.4238 C   0  0  0  0  0  0  0  0  0  0  0  0
  -24.8673    2.9748   28.5620 C   0  0  0  0  0  0  0  0  0  0  0  0
  -26.0959    2.1513   31.0992 C   0  0  0  0  0  0  0  0  0  0  0  0
  -25.0017    1.7903   31.7904 C   0  0  0  0  0  0  0  0  0  0  0  0
  -26.9881    3.1857   31.3936 C   0  0  0  0  0  0  0  0  0  0  0  0
  -26.6606    4.1765   31.6440 C   0  0  0  0  0  0  0  0  0  0  0  0
  -25.4323    4.1763   32.6034 C   0  0  0  0  0  0  0  0  0  0  0  0
  -24.5306    3.1170   32.4979 C   0  0  0  0  0  0  0  0  0  0  0  0
  -24.9722    5.4126   33.3112 C   0  0  0  0  0  0  0  0  0  0  0  0
  -23.8691    5.9139   33.1323 O   0  0  0  0  0  0  0  0  0  0  0  0
  -25.9762    6.2491   33.8250 N   0  0  0  0  0  0  0  0  0  0  0  0
  -27.3214    5.9239   33.9862 C   0  0  0  0  0  0  0  0  0  0  0  0
  -28.0857    6.9317   34.4208 C   0  0  0  0  0  0  0  0  0  0  0  0
  -29.4495    6.7018   34.6599 C   0  0  0  0  0  0  0  0  0  0  0  0
  -29.9621    5.4083   34.3747 C   0  0  0  0  0  0  0  0  0  0  0  0
  -29.1482    4.4040   33.9259 C   0  0  0  0  0  0  0  0  0  0  0  0
  -27.7760    4.6353   33.8308 C   0  0  0  0  0  0  0  0  0  0  0  0
  -27.0667    3.5474   34.0264 O   0  0  0  0  0  0  0  0  0  0  0  0
  1  2  2  0
  2  3  1  0
  2  4  1  0
  3  5  1  0
  5  7  1  0
  3  8  1  0
  5 18  1  0
 22 24  1  0
 24 25  2  0
 24 26  1  0
 26 27  1  0
 28 29  1  0
 30 31  1  0
 27 32  1  0
 31 32  1  0
 32 33  2  0
  6  4  1  0
 27 28  1  0
 29 30  1  0
 18 19  2  0
 19 23  1  0
 23 22  2  0
 22 21  1  0
 21 20  2  0
 20 18  1  0
  6  7  2  0
  7 17  1  0
 17 16  2  0
 16 15  1  0
 15 14  2  0
 14  6  1  0
  8  9  2  0
  9 10  1  0
 10 11  2  0
 11 12  1  0
 12 13  2  0
 13  8  1  0
M  END

$$$$
