No_3602-gen_results/8p0m/2024-11-26-14-13-15/
     RDKit          3D

 16 17  0  0  0  0  0  0  0  0999 V2000
  -28.0162   -0.8135   28.8779 C   0  0  0  0  0  0  0  0  0  0  0  0
  -28.4690   -0.7850   29.8287 C   0  0  0  0  0  0  0  0  0  0  0  0
  -28.1816    0.4277   28.1134 C   0  0  0  0  0  0  0  0  0  0  0  0
  -28.9841    1.4155   28.5154 C   0  0  0  0  0  0  0  0  0  0  0  0
  -29.3802    0.1384   30.4612 C   0  0  0  0  0  0  0  0  0  0  0  0
  -29.5415    1.2736   29.7242 C   0  0  0  0  0  0  0  0  0  0  0  0
  -27.4586    0.4934   26.7701 C   0  0  0  0  0  0  0  0  0  0  0  0
  -26.0264    0.3840   26.7617 C   0  0  0  0  0  0  0  0  0  0  0  0
  -25.2897    0.9319   25.7830 C   0  0  0  0  0  0  0  0  0  0  0  0
  -23.8971    0.9071   25.8407 C   0  0  0  0  0  0  0  0  0  0  0  0
  -23.2134    1.9523   25.2032 C   0  0  0  0  0  0  0  0  0  0  0  0
  -25.3008    0.1757   28.0175 C   0  0  0  0  0  0  0  0  0  0  0  0
  -23.9070    0.3530   28.1570 C   0  0  0  0  0  0  0  0  0  0  0  0
  -23.3657    0.8711   27.2085 C   0  0  0  0  0  0  0  0  0  0  0  0
  -28.2049    0.5297   25.6254 C   0  0  0  0  0  0  0  0  0  0  0  0
  -28.2425    1.6767   25.1452 O   0  0  0  0  0  0  0  0  0  0  0  0
  3  7  1  0
  7  8  1  0
 10 11  1  0
  7 15  1  0
 15 16  2  0
  8  9  2  0
  9 10  1  0
 10 14  2  0
 14 13  1  0
 13 12  2  0
 12  8  1  0
  1  2  2  0
  2  5  1  0
  5  6  2  0
  6  4  1  0
  4  3  2  0
  3  1  1  0
M  END

$$$$
