No_3047-gen_results/8p0m/2024-11-26-14-13-15/
     RDKit          3D

 17 19  0  0  0  0  0  0  0  0999 V2000
  -28.0162   -0.8135   28.8779 C   0  0  0  0  0  0  0  0  0  0  0  0
  -28.4690   -0.7850   29.8287 C   0  0  0  0  0  0  0  0  0  0  0  0
  -27.1356    0.2359   28.5352 C   0  0  0  0  0  0  0  0  0  0  0  0
  -26.8745    1.2825   29.3982 C   0  0  0  0  0  0  0  0  0  0  0  0
  -28.3613    0.1987   30.9244 C   0  0  0  0  0  0  0  0  0  0  0  0
  -27.5277    1.2234   30.6356 C   0  0  0  0  0  0  0  0  0  0  0  0
  -26.3987    0.2949   27.2279 C   0  0  0  0  0  0  0  0  0  0  0  0
  -25.1481    0.1287   27.3794 N   0  0  0  0  0  0  0  0  0  0  0  0
  -26.9663    0.4125   26.1001 N   0  0  0  0  0  0  0  0  0  0  0  0
  -25.8684    0.2839   25.2081 C   0  0  0  0  0  0  0  0  0  0  0  0
  -24.3048   -0.0531   28.4221 C   0  0  0  0  0  0  0  0  0  0  0  0
  -24.7328    0.1196   25.9412 C   0  0  0  0  0  0  0  0  0  0  0  0
  -23.2929    1.0116   28.6219 C   0  0  0  0  0  0  0  0  0  0  0  0
  -24.2640   -1.1990   29.1678 C   0  0  0  0  0  0  0  0  0  0  0  0
  -22.3002    0.7376   29.6410 C   0  0  0  0  0  0  0  0  0  0  0  0
  -23.3250   -1.3789   30.1906 C   0  0  0  0  0  0  0  0  0  0  0  0
  -22.3595   -0.3756   30.4136 C   0  0  0  0  0  0  0  0  0  0  0  0
  3  7  1  0
  7  8  1  0
  7  9  2  0
  9 10  1  0
  8 11  1  0
  8 12  1  0
 10 12  1  0
  1  2  2  0
  2  5  1  0
  5  6  2  0
  6  4  1  0
  4  3  2  0
  3  1  1  0
 11 13  2  0
 13 15  1  0
 15 17  2  0
 17 16  1  0
 16 14  2  0
 14 11  1  0
M  END

$$$$
