No_3694-gen_results/8p0m/2024-11-26-14-13-15/
     RDKit          3D

 27 30  0  0  0  0  0  0  0  0999 V2000
  -28.0162   -0.8135   28.8779 C   0  0  0  0  0  0  0  0  0  0  0  0
  -27.0636   -0.1190   28.6079 C   0  0  0  0  0  0  0  0  0  0  0  0
  -27.0010    0.6913   27.4910 C   0  0  0  0  0  0  0  0  0  0  0  0
  -25.8548    1.4825   27.0830 C   0  0  0  0  0  0  0  0  0  0  0  0
  -24.6901    1.4526   27.8807 C   0  0  0  0  0  0  0  0  0  0  0  0
  -24.7379    0.6010   29.0416 C   0  0  0  0  0  0  0  0  0  0  0  0
  -25.8234   -0.1688   29.3887 C   0  0  0  0  0  0  0  0  0  0  0  0
  -28.7568   -0.5479   30.0191 N   0  0  0  0  0  0  0  0  0  0  0  0
  -29.7597   -1.3260   30.5171 C   0  0  0  0  0  0  0  0  0  0  0  0
  -30.3964   -0.9170   31.6880 C   0  0  0  0  0  0  0  0  0  0  0  0
  -28.2208    0.2085   30.9807 C   0  0  0  0  0  0  0  0  0  0  0  0
  -28.8605    0.6851   32.1335 C   0  0  0  0  0  0  0  0  0  0  0  0
  -29.9090    0.0183   32.5348 C   0  0  0  0  0  0  0  0  0  0  0  0
  -23.4877    2.1492   27.5324 C   0  0  0  0  0  0  0  0  0  0  0  0
  -22.4282    2.1183   28.4197 C   0  0  0  0  0  0  0  0  0  0  0  0
  -22.4788    1.1486   29.4364 C   0  0  0  0  0  0  0  0  0  0  0  0
  -23.5642    0.5196   29.8495 C   0  0  0  0  0  0  0  0  0  0  0  0
  -27.9393    0.8214   26.5966 O   0  0  0  0  0  0  0  0  0  0  0  0
  -28.3833    1.9199   26.1505 C   0  0  0  0  0  0  0  0  0  0  0  0
  -23.5851   -0.2990   31.0809 C   0  0  0  0  0  0  0  0  0  0  0  0
  -23.9910   -0.1721   32.1461 C   0  0  0  0  0  0  0  0  0  0  0  0
  -25.0541    0.8810   32.4404 C   0  0  0  0  0  0  0  0  0  0  0  0
  -25.6592    0.9745   33.7020 C   0  0  0  0  0  0  0  0  0  0  0  0
  -25.4887   -0.0754   34.5964 C   0  0  0  0  0  0  0  0  0  0  0  0
  -24.6084   -1.1554   34.3314 C   0  0  0  0  0  0  0  0  0  0  0  0
  -23.9193   -1.2326   33.1668 C   0  0  0  0  0  0  0  0  0  0  0  0
  -23.0704   -1.5012   30.7013 O   0  0  0  0  0  0  0  0  0  0  0  0
  1  2  1  0
  1  8  1  0
  8  9  1  0
  8 11  1  0
 10 13  1  0
 12 13  1  0
  3 18  1  0
 18 19  1  0
 17 20  1  0
 20 21  1  0
 20 27  2  0
  9 10  1  0
 12 11  1  0
  2  3  2  0
  3  4  1  0
  4  5  2  0
  6  7  2  0
  7  2  1  0
  5  6  1  0
  6 17  1  0
 17 16  2  0
 16 15  1  0
 15 14  2  0
 14  5  1  0
 21 22  2  0
 22 23  1  0
 23 24  2  0
 24 25  1  0
 25 26  2  0
 26 21  1  0
M  END

$$$$
