No_3639-gen_results/8p0m/2024-11-26-14-13-15/
     RDKit          3D

 24 26  0  0  0  0  0  0  0  0999 V2000
  -28.0162   -0.8135   28.8779 C   0  0  0  0  0  0  0  0  0  0  0  0
  -28.4690   -0.7850   29.8287 C   0  0  0  0  0  0  0  0  0  0  0  0
  -26.5042   -0.7777   28.8766 C   0  0  0  0  0  0  0  0  0  0  0  0
  -25.8103   -0.8531   30.1028 C   0  0  0  0  0  0  0  0  0  0  0  0
  -27.9906   -0.8916   31.2257 C   0  0  0  0  0  0  0  0  0  0  0  0
  -26.6042   -0.8676   31.2652 C   0  0  0  0  0  0  0  0  0  0  0  0
  -29.9385   -0.8194   29.8358 O   0  0  0  0  0  0  0  0  0  0  0  0
  -30.5356   -0.1119   28.9448 C   0  0  0  0  0  0  0  0  0  0  0  0
  -31.4501   -0.5434   28.1111 C   0  0  0  0  0  0  0  0  0  0  0  0
  -31.7759   -0.2280   27.2086 C   0  0  0  0  0  0  0  0  0  0  0  0
  -31.3722    1.1250   26.6759 C   0  0  0  0  0  0  0  0  0  0  0  0
  -30.4374    1.7418   27.4456 C   0  0  0  0  0  0  0  0  0  0  0  0
  -29.9032    1.0960   28.5505 C   0  0  0  0  0  0  0  0  0  0  0  0
  -25.6285   -0.7192   27.6583 C   0  0  0  0  0  0  0  0  0  0  0  0
  -25.2284    0.6455   27.3100 C   0  0  0  0  0  0  0  0  0  0  0  0
  -25.5316    1.0971   26.0690 C   0  0  0  0  0  0  0  0  0  0  0  0
  -25.0926    2.3354   25.6980 C   0  0  0  0  0  0  0  0  0  0  0  0
  -24.3323    3.1539   26.6520 C   0  0  0  0  0  0  0  0  0  0  0  0
  -23.9857    2.6350   27.8488 C   0  0  0  0  0  0  0  0  0  0  0  0
  -24.4186    1.3706   28.2021 C   0  0  0  0  0  0  0  0  0  0  0  0
  -31.9653    1.7615   25.4858 C   0  0  0  0  0  0  0  0  0  0  0  0
  -31.9635    1.2140   24.3997 C   0  0  0  0  0  0  0  0  0  0  0  0
  -31.4492   -0.1102   24.2495 C   0  0  0  0  0  0  0  0  0  0  0  0
  -31.8104   -1.1533   25.0363 C   0  0  0  0  0  0  0  0  0  0  0  0
  2  7  1  0
  7  8  1  0
  3 14  1  0
 14 15  1  0
 11 21  1  0
 21 22  2  3
 22 23  1  0
 23 24  2  0
 15 16  2  0
 16 17  1  0
 17 18  2  0
 18 19  1  0
 19 20  2  0
 20 15  1  0
  8  9  2  0
  9 10  1  0
 10 11  2  0
 11 12  1  0
 12 13  2  0
 13  8  1  0
  1  2  2  0
  2  5  1  0
  5  6  2  0
  6  4  1  0
  4  3  2  0
  3  1  1  0
M  END

$$$$
