No_3562-gen_results/8p0m/2024-11-26-14-13-15/
     RDKit          3D

 11 12  0  0  0  0  0  0  0  0999 V2000
  -28.0162   -0.8135   28.8779 C   0  0  0  0  0  0  0  0  0  0  0  0
  -28.4690   -0.7850   29.8287 C   0  0  0  0  0  0  0  0  0  0  0  0
  -27.1356    0.2359   28.5352 C   0  0  0  0  0  0  0  0  0  0  0  0
  -26.8745    1.2825   29.3982 C   0  0  0  0  0  0  0  0  0  0  0  0
  -27.5070    1.2380   30.6295 C   0  0  0  0  0  0  0  0  0  0  0  0
  -28.3484    0.0500   30.8819 C   0  0  0  0  0  0  0  0  0  0  0  0
  -26.4067    0.3285   27.2239 C   0  0  0  0  0  0  0  0  0  0  0  0
  -25.5402    1.3303   27.0555 N   0  0  0  0  0  0  0  0  0  0  0  0
  -24.7915    1.8400   27.8753 C   0  0  0  0  0  0  0  0  0  0  0  0
  -25.5741    2.0936   29.1792 C   0  0  0  0  0  0  0  0  0  0  0  0
  -24.1072    3.0955   27.4843 C   0  0  0  0  0  0  0  0  0  0  0  0
  9 11  1  0
  4 10  2  0
 10  9  1  0
  9  8  2  0
  8  7  1  0
  7  3  2  0
  1  2  2  0
  2  6  1  0
  6  5  2  0
  5  4  1  0
  4  3  1  0
  3  1  1  0
M  END

$$$$
