No_3686-gen_results/8p0m/2024-11-26-14-13-15/
     RDKit          3D

 32 35  0  0  0  0  0  0  0  0999 V2000
  -28.0162   -0.8135   28.8779 C   0  0  0  0  0  0  0  0  0  0  0  0
  -28.4690   -0.7850   29.8287 C   0  0  0  0  0  0  0  0  0  0  0  0
  -26.5455   -0.8762   28.8500 C   0  0  0  0  0  0  0  0  0  0  0  0
  -25.8041   -1.0324   30.0571 C   0  0  0  0  0  0  0  0  0  0  0  0
  -27.9437   -0.9869   31.2075 C   0  0  0  0  0  0  0  0  0  0  0  0
  -26.5825   -1.0386   31.2231 C   0  0  0  0  0  0  0  0  0  0  0  0
  -30.0279   -0.6588   29.6965 C   0  0  0  0  0  0  0  0  0  0  0  0
  -30.7763   -1.4156   30.1892 O   0  0  0  0  0  0  0  0  0  0  0  0
  -30.4606    0.5516   29.3639 O   0  0  0  0  0  0  0  0  0  0  0  0
  -24.3713   -1.1188   30.0868 C   0  0  0  0  0  0  0  0  0  0  0  0
  -23.6901    0.1570   30.0926 C   0  0  0  0  0  0  0  0  0  0  0  0
  -23.2885    0.7872   28.9174 C   0  0  0  0  0  0  0  0  0  0  0  0
  -22.0040    0.6868   28.6066 C   0  0  0  0  0  0  0  0  0  0  0  0
  -24.2102    1.4481   28.1608 C   0  0  0  0  0  0  0  0  0  0  0  0
  -23.7984    1.9005   26.8476 C   0  0  0  0  0  0  0  0  0  0  0  0
  -21.4746    1.2797   27.4058 C   0  0  0  0  0  0  0  0  0  0  0  0
  -22.3706    1.9654   26.6179 C   0  0  0  0  0  0  0  0  0  0  0  0
  -23.6009    0.9196   31.3611 C   0  0  0  0  0  0  0  0  0  0  0  0
  -24.8091    2.6621   25.7953 Cl  0  0  0  0  0  0  0  0  0  0  0  0
  -31.4949    0.9647   29.1267 C   0  0  0  0  0  0  0  0  0  0  0  0
  -31.7538    1.2911   27.9471 C   0  0  0  0  0  0  0  0  0  0  0  0
  -33.1039    1.7544   27.5308 C   0  0  0  0  0  0  0  0  0  0  0  0
  -33.3686    2.0896   26.1889 C   0  0  0  0  0  0  0  0  0  0  0  0
  -31.0727    0.9127   26.7819 C   0  0  0  0  0  0  0  0  0  0  0  0
  -31.2947    1.1795   25.4729 C   0  0  0  0  0  0  0  0  0  0  0  0
  -32.4915    1.7988   25.1832 C   0  0  0  0  0  0  0  0  0  0  0  0
  -31.6666    2.1639   30.0811 N   0  0  0  0  0  0  0  0  0  0  0  0
  -32.5195    2.1340   31.2065 C   0  0  0  0  0  0  0  0  0  0  0  0
  -30.9717    3.3356   29.8242 C   0  0  0  0  0  0  0  0  0  0  0  0
  -31.1333    4.3900   30.5338 C   0  0  0  0  0  0  0  0  0  0  0  0
  -32.6846    3.2608   31.9561 C   0  0  0  0  0  0  0  0  0  0  0  0
  -31.9492    4.4132   31.6552 C   0  0  0  0  0  0  0  0  0  0  0  0
  2  7  1  0
  7  8  2  0
  7  9  1  0
  4 10  1  0
 10 11  1  0
 11 12  1  0
 11 18  1  0
 15 19  1  0
  9 20  1  0
 20 27  1  0
 27 28  1  0
 27 29  1  0
 30 32  1  0
 31 32  1  0
 20 21  1  0
 28 31  1  0
 30 29  1  0
 21 22  2  0
 22 23  1  0
 23 26  2  0
 26 25  1  0
 25 24  2  0
 24 21  1  0
  1  2  2  0
  2  5  1  0
  5  6  2  0
  6  4  1  0
  4  3  2  0
  3  1  1  0
 12 13  2  0
 13 16  1  0
 16 17  2  0
 17 15  1  0
 15 14  2  0
 14 12  1  0
M  END

$$$$
