No_3273-gen_results/8p0m/2024-11-26-14-13-15/
     RDKit          3D

 12 13  0  0  0  0  0  0  0  0999 V2000
  -28.0162   -0.8135   28.8779 C   0  0  0  0  0  0  0  0  0  0  0  0
  -27.0636   -0.1189   28.6079 C   0  0  0  0  0  0  0  0  0  0  0  0
  -26.8756    1.1325   28.9134 C   0  0  0  0  0  0  0  0  0  0  0  0
  -25.6883    1.9515   28.5672 C   0  0  0  0  0  0  0  0  0  0  0  0
  -24.6394    1.2834   27.8753 C   0  0  0  0  0  0  0  0  0  0  0  0
  -24.8181   -0.0802   27.6166 C   0  0  0  0  0  0  0  0  0  0  0  0
  -25.9311   -0.7717   27.9696 C   0  0  0  0  0  0  0  0  0  0  0  0
  -28.6536   -0.5272   30.2401 C   0  0  0  0  0  0  0  0  0  0  0  0
  -28.8474    0.8243   30.5135 C   0  0  0  0  0  0  0  0  0  0  0  0
  -27.6851    1.6562   30.0705 C   0  0  0  0  0  0  0  0  0  0  0  0
  -23.4724    1.9593   27.3589 C   0  0  0  0  0  0  0  0  0  0  0  0
  -22.3289    2.4034   27.6621 N   0  0  0  0  0  0  0  0  0  0  0  0
  5 11  1  0
 11 12  3  0
  3  4  1  0
  4  5  2  0
  5  6  1  0
  6  7  2  0
  7  2  1  0
  1  2  2  0
  2  3  1  0
  3 10  2  0
 10  9  1  0
  9  8  2  0
  8  1  1  0
M  END

$$$$
