No_3551-gen_results/8p0m/2024-11-26-14-13-15/
     RDKit          3D

 28 30  0  0  0  0  0  0  0  0999 V2000
  -28.0162   -0.8135   28.8779 C   0  0  0  0  0  0  0  0  0  0  0  0
  -27.0636   -0.1189   28.6079 C   0  0  0  0  0  0  0  0  0  0  0  0
  -26.9287    1.1713   29.0083 C   0  0  0  0  0  0  0  0  0  0  0  0
  -27.9560    1.7411   29.7840 C   0  0  0  0  0  0  0  0  0  0  0  0
  -29.0569   -0.3271   29.7466 C   0  0  0  0  0  0  0  0  0  0  0  0
  -28.9828    0.9722   30.1516 C   0  0  0  0  0  0  0  0  0  0  0  0
  -25.8815   -0.6260   27.7945 C   0  0  0  0  0  0  0  0  0  0  0  0
  -25.4215    0.1302   26.7096 C   0  0  0  0  0  0  0  0  0  0  0  0
  -25.0332   -1.6821   28.2396 C   0  0  0  0  0  0  0  0  0  0  0  0
  -23.8635   -1.4377   29.0263 C   0  0  0  0  0  0  0  0  0  0  0  0
  -23.2250   -2.2996   29.6844 C   0  0  0  0  0  0  0  0  0  0  0  0
  -23.0835   -0.1833   28.6181 C   0  0  0  0  0  0  0  0  0  0  0  0
  -21.7648    0.0256   29.2337 C   0  0  0  0  0  0  0  0  0  0  0  0
  -22.0346   -1.8960   30.4252 C   0  0  0  0  0  0  0  0  0  0  0  0
  -21.3318   -0.7344   30.1810 C   0  0  0  0  0  0  0  0  0  0  0  0
  -26.0690    1.2439   26.2670 C   0  0  0  0  0  0  0  0  0  0  0  0
  -25.6931    1.8185   25.1200 C   0  0  0  0  0  0  0  0  0  0  0  0
  -24.4724    1.3682   24.6166 C   0  0  0  0  0  0  0  0  0  0  0  0
  -24.3229   -0.0107   25.8432 C   0  0  0  0  0  0  0  0  0  0  0  0
  -27.8273    3.1987   30.1947 C   0  0  0  0  0  0  0  0  0  0  0  0
  -28.3462    3.7965   30.9171 O   0  0  0  0  0  0  0  0  0  0  0  0
  -26.5581    3.7357   29.7363 N   0  0  0  0  0  0  0  0  0  0  0  0
  -26.2260    5.0863   30.0807 C   0  0  0  0  0  0  0  0  0  0  0  0
  -25.8538    5.4754   31.1179 C   0  0  0  0  0  0  0  0  0  0  0  0
  -25.3129    6.8227   31.3590 C   0  0  0  0  0  0  0  0  0  0  0  0
  -24.8096    7.2988   32.6224 C   0  0  0  0  0  0  0  0  0  0  0  0
  -24.7932    6.4049   33.7097 C   0  0  0  0  0  0  0  0  0  0  0  0
  -25.2479    5.0869   33.5238 C   0  0  0  0  0  0  0  0  0  0  0  0
  2  7  1  0
  7  8  1  0
  7  9  1  0
  9 10  1  0
  8 16  2  0
 16 17  1  0
 17 18  2  0
  8 19  1  0
 18 19  1  0
  4 20  1  0
 20 21  2  0
 20 22  1  0
 22 23  1  0
 23 24  2  3
 24 25  1  0
 25 26  1  0
 26 27  2  3
 27 28  1  0
  1  2  2  0
  2  3  1  0
  3  4  2  0
  4  6  1  0
  6  5  2  0
  5  1  1  0
 10 11  2  0
 11 14  1  0
 14 15  2  0
 15 13  1  0
 13 12  2  0
 12 10  1  0
M  END

$$$$
