No_3464-gen_results/8p0m/2024-11-26-14-13-15/
     RDKit          3D

 35 38  0  0  0  0  0  0  0  0999 V2000
  -28.0162   -0.8135   28.8779 C   0  0  0  0  0  0  0  0  0  0  0  0
  -27.0636   -0.1189   28.6079 C   0  0  0  0  0  0  0  0  0  0  0  0
  -25.7923   -0.4302   29.0761 C   0  0  0  0  0  0  0  0  0  0  0  0
  -24.5456    0.3494   28.8225 C   0  0  0  0  0  0  0  0  0  0  0  0
  -23.2409    0.0217   29.3323 C   0  0  0  0  0  0  0  0  0  0  0  0
  -27.8820   -1.8995   29.8633 C   0  0  0  0  0  0  0  0  0  0  0  0
  -26.6706   -2.3272   30.3212 C   0  0  0  0  0  0  0  0  0  0  0  0
  -25.5433   -1.5852   29.9316 C   0  0  0  0  0  0  0  0  0  0  0  0
  -22.1884    0.8224   28.9928 C   0  0  0  0  0  0  0  0  0  0  0  0
  -22.1616    1.7773   28.0238 C   0  0  0  0  0  0  0  0  0  0  0  0
  -24.5484    1.3977   27.8309 C   0  0  0  0  0  0  0  0  0  0  0  0
  -23.3870    2.0761   27.4709 C   0  0  0  0  0  0  0  0  0  0  0  0
  -29.0623   -2.7219   30.2963 C   0  0  0  0  0  0  0  0  0  0  0  0
  -28.9730   -3.9254   30.3049 O   0  0  0  0  0  0  0  0  0  0  0  0
  -29.9712   -2.1026   31.0722 N   0  0  0  0  0  0  0  0  0  0  0  0
  -31.1046   -2.8894   31.6201 C   0  0  0  0  0  0  0  0  0  0  0  0
  -30.0378   -0.6831   31.2932 C   0  0  0  0  0  0  0  0  0  0  0  0
  -30.7320    0.0114   30.5280 C   0  0  0  0  0  0  0  0  0  0  0  0
  -31.5601    0.7414   30.9263 C   0  0  0  0  0  0  0  0  0  0  0  0
  -32.4958    1.4852   30.0498 C   0  0  0  0  0  0  0  0  0  0  0  0
  -32.2759    1.3605   28.6808 C   0  0  0  0  0  0  0  0  0  0  0  0
  -31.3168    0.5353   28.1916 C   0  0  0  0  0  0  0  0  0  0  0  0
  -30.5453   -0.1771   29.0784 C   0  0  0  0  0  0  0  0  0  0  0  0
  -31.1164    0.3963   26.7443 C   0  0  0  0  0  0  0  0  0  0  0  0
  -30.1226    0.9512   26.2151 N   0  0  0  0  0  0  0  0  0  0  0  0
  -29.6066    1.9816   26.5371 C   0  0  0  0  0  0  0  0  0  0  0  0
  -28.3890    2.4981   25.8122 C   0  0  0  0  0  0  0  0  0  0  0  0
  -29.3905    0.2696   25.1534 C   0  0  0  0  0  0  0  0  0  0  0  0
  -28.2881    0.6768   24.4169 C   0  0  0  0  0  0  0  0  0  0  0  0
  -27.7792    1.8863   24.8569 C   0  0  0  0  0  0  0  0  0  0  0  0
  -31.9362   -0.3419   26.1630 O   0  0  0  0  0  0  0  0  0  0  0  0
  -32.1114   -3.1867   30.7945 C   0  0  0  0  0  0  0  0  0  0  0  0
  -32.8422   -3.9752   30.9178 C   0  0  0  0  0  0  0  0  0  0  0  0
  -32.9273   -4.6744   32.1822 C   0  0  0  0  0  0  0  0  0  0  0  0
  -31.9221   -4.4640   33.0828 C   0  0  0  0  0  0  0  0  0  0  0  0
  3  4  1  0
  6 13  1  0
 13 14  2  0
 13 15  1  0
 15 16  1  0
 15 17  1  0
 22 24  1  0
 24 25  1  0
 25 26  1  0
 25 28  1  0
 27 30  1  0
 29 30  1  0
 24 31  2  0
 16 32  1  0
 32 33  2  3
 33 34  1  0
 34 35  2  0
 17 18  1  0
 26 27  1  0
 29 28  1  0
 18 19  2  0
 19 20  1  0
 20 21  2  0
 21 22  1  0
 22 23  2  0
 23 18  1  0
  1  2  2  0
  2  3  1  0
  3  8  2  0
  8  7  1  0
  7  6  2  0
  6  1  1  0
  4  5  2  0
  5  9  1  0
  9 10  2  0
 10 12  1  0
 12 11  2  0
 11  4  1  0
M  END

$$$$
