No_3962-gen_results/8p0m/2024-11-26-14-13-15/
     RDKit          3D

 14 15  0  0  0  0  0  0  0  0999 V2000
  -28.0162   -0.8135   28.8779 C   0  0  0  0  0  0  0  0  0  0  0  0
  -27.0636   -0.1190   28.6079 C   0  0  0  0  0  0  0  0  0  0  0  0
  -25.7647   -0.3897   29.0360 C   0  0  0  0  0  0  0  0  0  0  0  0
  -24.5516    0.4058   28.7646 C   0  0  0  0  0  0  0  0  0  0  0  0
  -24.6957    1.4480   27.7988 C   0  0  0  0  0  0  0  0  0  0  0  0
  -25.9755    1.7250   27.3077 C   0  0  0  0  0  0  0  0  0  0  0  0
  -27.0718    1.0134   27.6535 C   0  0  0  0  0  0  0  0  0  0  0  0
  -29.1869   -0.1649   29.1026 N   0  0  0  0  0  0  0  0  0  0  0  0
  -23.4964    2.1689   27.4760 C   0  0  0  0  0  0  0  0  0  0  0  0
  -22.2362    1.6392   27.8619 C   0  0  0  0  0  0  0  0  0  0  0  0
  -22.1862    0.6201   28.8290 C   0  0  0  0  0  0  0  0  0  0  0  0
  -23.3020   -0.0988   29.2079 C   0  0  0  0  0  0  0  0  0  0  0  0
  -30.1281   -0.3766   29.4789 C   0  0  0  0  0  0  0  0  0  0  0  0
  -30.4360   -1.8646   30.1965 Cl  0  0  0  0  0  0  0  0  0  0  0  0
  1  8  1  0
  8 13  2  3
 13 14  1  0
  1  2  1  0
  2  3  2  0
  3  4  1  0
  5  6  1  0
  6  7  2  0
  7  2  1  0
  4  5  2  0
  5  9  1  0
  9 10  2  0
 10 11  1  0
 11 12  2  0
 12  4  1  0
M  END

$$$$
