No_3003-gen_results/8p0m/2024-11-26-14-13-15/
     RDKit          3D

 12 13  0  0  0  0  0  0  0  0999 V2000
  -28.1229   -1.3353   28.4874 O   0  0  0  0  0  0  0  0  0  0  0  0
  -27.4806   -0.4044   28.7094 C   0  0  0  0  0  0  0  0  0  0  0  0
  -27.2412    0.3910   29.5098 N   0  0  0  0  0  0  0  0  0  0  0  0
  -26.4066   -0.1069   27.4496 C   0  0  0  0  0  0  0  0  0  0  0  0
  -25.4358    0.8473   27.6341 C   0  0  0  0  0  0  0  0  0  0  0  0
  -25.4291    1.6632   28.7353 C   0  0  0  0  0  0  0  0  0  0  0  0
  -26.3097    1.3583   29.7618 C   0  0  0  0  0  0  0  0  0  0  0  0
  -24.5036    1.1224   26.5299 C   0  0  0  0  0  0  0  0  0  0  0  0
  -23.4084    1.9948   26.7978 C   0  0  0  0  0  0  0  0  0  0  0  0
  -23.3631    2.6902   28.0587 C   0  0  0  0  0  0  0  0  0  0  0  0
  -24.2959    2.5266   28.9368 C   0  0  0  0  0  0  0  0  0  0  0  0
  -22.4983    2.3205   25.9116 O   0  0  0  0  0  0  0  0  0  0  0  0
  1  2  2  0
  2  3  1  0
  2  4  1  0
  4  5  1  0
  6  7  1  0
  9 12  1  0
  3  7  1  0
  5  8  2  0
  8  9  1  0
  9 10  2  0
 10 11  1  0
 11  6  2  0
  6  5  1  0
M  END

$$$$
