No_3009-gen_results/8p0m/2024-11-26-14-13-15/
     RDKit          3D

 25 26  0  0  0  0  0  0  0  0999 V2000
  -28.0162   -0.8135   28.8779 C   0  0  0  0  0  0  0  0  0  0  0  0
  -28.4690   -0.7850   29.8287 C   0  0  0  0  0  0  0  0  0  0  0  0
  -28.1960    0.3478   28.0550 C   0  0  0  0  0  0  0  0  0  0  0  0
  -27.4421    0.5100   26.7946 C   0  0  0  0  0  0  0  0  0  0  0  0
  -27.8427    1.3330   25.8056 C   0  0  0  0  0  0  0  0  0  0  0  0
  -29.4956    0.1092   30.3452 C   0  0  0  0  0  0  0  0  0  0  0  0
  -29.7284    1.1870   29.5687 C   0  0  0  0  0  0  0  0  0  0  0  0
  -29.0420    1.3665   28.3718 C   0  0  0  0  0  0  0  0  0  0  0  0
  -26.1281   -0.0671   26.6257 C   0  0  0  0  0  0  0  0  0  0  0  0
  -25.2466   -0.2457   27.7552 C   0  0  0  0  0  0  0  0  0  0  0  0
  -24.2715    0.4354   28.2098 C   0  0  0  0  0  0  0  0  0  0  0  0
  -23.4094    0.0736   29.2523 C   0  0  0  0  0  0  0  0  0  0  0  0
  -23.5515   -1.2086   29.7706 C   0  0  0  0  0  0  0  0  0  0  0  0
  -25.0341   -1.6275   28.3725 C   0  0  0  0  0  0  0  0  0  0  0  0
  -24.3524   -2.0592   29.2823 C   0  0  0  0  0  0  0  0  0  0  0  0
  -25.7022   -0.3197   25.4529 N   0  0  0  0  0  0  0  0  0  0  0  0
  -28.5774    1.0295   25.0432 C   0  0  0  0  0  0  0  0  0  0  0  0
  -29.2679   -0.2757   25.0106 C   0  0  0  0  0  0  0  0  0  0  0  0
  -30.1993   -0.6098   23.9839 C   0  0  0  0  0  0  0  0  0  0  0  0
  -30.9202   -1.7727   24.2377 C   0  0  0  0  0  0  0  0  0  0  0  0
  -32.1871   -1.7344   24.9039 C   0  0  0  0  0  0  0  0  0  0  0  0
  -32.7399   -2.8795   25.5100 C   0  0  0  0  0  0  0  0  0  0  0  0
  -32.8917   -3.1237   26.7688 C   0  0  0  0  0  0  0  0  0  0  0  0
  -32.6087   -2.0484   27.4875 N   0  0  0  0  0  0  0  0  0  0  0  0
  -32.5055   -0.7694   27.0350 C   0  0  0  0  0  0  0  0  0  0  0  0
  3  4  1  0
  4  5  1  0
  4  9  1  0
  9 10  1  0
  9 16  1  0
  5 17  2  3
 17 18  1  0
 18 19  1  0
 19 20  2  3
 20 21  1  0
 21 22  3  0
 22 23  1  0
 23 24  1  0
 24 25  2  0
 10 11  2  0
 11 12  1  0
 12 13  2  0
 13 15  1  0
 15 14  2  0
 14 10  1  0
  1  2  2  0
  2  6  1  0
  6  7  2  0
  7  8  1  0
  8  3  2  0
  3  1  1  0
M  END

$$$$
