No_3668-gen_results/8p0m/2024-11-26-14-13-15/
     RDKit          3D

 21 22  0  0  0  0  0  0  0  0999 V2000
  -28.0162   -0.8135   28.8779 C   0  0  0  0  0  0  0  0  0  0  0  0
  -27.0636   -0.1189   28.6079 C   0  0  0  0  0  0  0  0  0  0  0  0
  -26.9716    0.7139   27.5060 C   0  0  0  0  0  0  0  0  0  0  0  0
  -28.1053    0.7744   26.6421 C   0  0  0  0  0  0  0  0  0  0  0  0
  -29.2041    0.1179   27.0477 C   0  0  0  0  0  0  0  0  0  0  0  0
  -29.2127   -0.6088   28.1281 C   0  0  0  0  0  0  0  0  0  0  0  0
  -25.7106    1.4519   27.1380 C   0  0  0  0  0  0  0  0  0  0  0  0
  -25.3772    2.0455   26.1737 C   0  0  0  0  0  0  0  0  0  0  0  0
  -24.0750    2.7193   25.9782 C   0  0  0  0  0  0  0  0  0  0  0  0
  -23.0770    2.4988   26.9483 C   0  0  0  0  0  0  0  0  0  0  0  0
  -23.3639    1.6220   28.0103 C   0  0  0  0  0  0  0  0  0  0  0  0
  -24.6236    1.0878   28.1748 C   0  0  0  0  0  0  0  0  0  0  0  0
  -22.3822    1.4672   28.8736 F   0  0  0  0  0  0  0  0  0  0  0  0
  -30.4150    0.2562   26.1887 C   0  0  0  0  0  0  0  0  0  0  0  0
  -30.9997   -0.7806   26.1038 F   0  0  0  0  0  0  0  0  0  0  0  0
  -31.2289    1.2041   26.6644 F   0  0  0  0  0  0  0  0  0  0  0  0
  -30.0888    0.6081   24.9253 F   0  0  0  0  0  0  0  0  0  0  0  0
  -28.1346   -1.7732   30.3079 Cl  0  0  0  0  0  0  0  0  0  0  0  0
  -30.3320   -1.2759   28.4738 O   0  0  0  0  0  0  0  0  0  0  0  0
  -30.4292   -1.7719   29.7692 C   0  0  0  0  0  0  0  0  0  0  0  0
  -31.6664   -2.2290   30.0552 O   0  0  0  0  0  0  0  0  0  0  0  0
  3  7  1  0
 11 13  1  0
  5 14  1  0
 14 15  1  0
 14 16  1  0
 14 17  1  0
  1 18  1  0
  6 19  1  0
 19 20  1  0
 20 21  2  0
  1  2  2  0
  2  3  1  0
  3  4  2  0
  4  5  1  0
  5  6  2  0
  6  1  1  0
  7  8  2  0
  8  9  1  0
  9 10  2  0
 10 11  1  0
 11 12  2  0
 12  7  1  0
M  END

$$$$
