No_3481-gen_results/8p0m/2024-11-26-14-13-15/
     RDKit          3D

 14 15  0  0  0  0  0  0  0  0999 V2000
  -28.0162   -0.8135   28.8779 C   0  0  0  0  0  0  0  0  0  0  0  0
  -28.4690   -0.7850   29.8287 C   0  0  0  0  0  0  0  0  0  0  0  0
  -27.0871    0.2903   28.6377 C   0  0  0  0  0  0  0  0  0  0  0  0
  -26.8317    1.2487   29.5869 C   0  0  0  0  0  0  0  0  0  0  0  0
  -28.3914    0.0801   31.0065 C   0  0  0  0  0  0  0  0  0  0  0  0
  -27.4940    1.1521   30.7841 C   0  0  0  0  0  0  0  0  0  0  0  0
  -26.4106    0.3574   27.4837 F   0  0  0  0  0  0  0  0  0  0  0  0
  -29.1048   -0.0510   32.2721 C   0  0  0  0  0  0  0  0  0  0  0  0
  -29.7630   -0.8792   32.5784 C   0  0  0  0  0  0  0  0  0  0  0  0
  -30.3713   -1.1833   33.3582 C   0  0  0  0  0  0  0  0  0  0  0  0
  -30.3655   -0.2047   34.5580 C   0  0  0  0  0  0  0  0  0  0  0  0
  -29.5933    0.8559   34.3941 C   0  0  0  0  0  0  0  0  0  0  0  0
  -28.8926    0.9984   33.2536 C   0  0  0  0  0  0  0  0  0  0  0  0
  -31.3117   -0.4898   35.9901 Cl  0  0  0  0  0  0  0  0  0  0  0  0
  3  7  1  0
  5  8  1  0
 11 14  1  0
  8  9  2  0
  9 10  1  0
 10 11  2  0
 11 12  1  0
 12 13  2  0
 13  8  1  0
  1  2  2  0
  2  5  1  0
  5  6  2  0
  6  4  1  0
  4  3  2  0
  3  1  1  0
M  END

$$$$
