No_3864-gen_results/8p0m/2024-11-26-14-13-15/
     RDKit          3D

 35 37  0  0  0  0  0  0  0  0999 V2000
  -28.0162   -0.8135   28.8779 C   0  0  0  0  0  0  0  0  0  0  0  0
  -27.0636   -0.1189   28.6079 C   0  0  0  0  0  0  0  0  0  0  0  0
  -25.7647   -0.3897   29.0360 C   0  0  0  0  0  0  0  0  0  0  0  0
  -24.5516    0.4058   28.7646 C   0  0  0  0  0  0  0  0  0  0  0  0
  -24.6957    1.4480   27.7988 C   0  0  0  0  0  0  0  0  0  0  0  0
  -25.9755    1.7250   27.3077 C   0  0  0  0  0  0  0  0  0  0  0  0
  -27.0718    1.0134   27.6535 C   0  0  0  0  0  0  0  0  0  0  0  0
  -28.6043   -0.4743   30.2323 C   0  0  0  0  0  0  0  0  0  0  0  0
  -29.6579   -1.2837   30.7259 C   0  0  0  0  0  0  0  0  0  0  0  0
  -23.4948    2.1975   27.4898 C   0  0  0  0  0  0  0  0  0  0  0  0
  -23.5825    3.1591   26.7173 O   0  0  0  0  0  0  0  0  0  0  0  0
  -22.2369    1.6895   27.6320 O   0  0  0  0  0  0  0  0  0  0  0  0
  -30.0281   -2.2853   30.0237 C   0  0  0  0  0  0  0  0  0  0  0  0
  -31.2709   -2.8734   30.4175 C   0  0  0  0  0  0  0  0  0  0  0  0
  -31.6184   -3.7840   29.7459 O   0  0  0  0  0  0  0  0  0  0  0  0
  -32.0844   -2.5716   31.4031 O   0  0  0  0  0  0  0  0  0  0  0  0
  -28.3859    1.2844   27.0565 C   0  0  0  0  0  0  0  0  0  0  0  0
  -29.2747    1.7089   27.6748 O   0  0  0  0  0  0  0  0  0  0  0  0
  -28.4621    0.9672   25.7297 N   0  0  0  0  0  0  0  0  0  0  0  0
  -29.6409    1.1026   24.9557 C   0  0  0  0  0  0  0  0  0  0  0  0
  -27.3250    0.5368   24.8961 C   0  0  0  0  0  0  0  0  0  0  0  0
  -25.4814   -1.5151   29.9851 C   0  0  0  0  0  0  0  0  0  0  0  0
  -24.3843   -2.2797   29.7577 C   0  0  0  0  0  0  0  0  0  0  0  0
  -25.5430   -1.1541   31.4842 C   0  0  0  0  0  0  0  0  0  0  0  0
  -26.6274   -2.6651   29.7106 C   0  0  0  0  0  0  0  0  0  0  0  0
  -26.0805   -3.9956   30.3471 C   0  0  0  0  0  0  0  0  0  0  0  0
  -27.0253   -5.0026   29.6519 C   0  0  0  0  0  0  0  0  0  0  0  0
  -26.6491   -2.9123   28.4101 O   0  0  0  0  0  0  0  0  0  0  0  0
  -24.4124   -0.4565   32.0009 C   0  0  0  0  0  0  0  0  0  0  0  0
  -24.7247    0.6100   32.9080 C   0  0  0  0  0  0  0  0  0  0  0  0
  -23.1135   -0.8896   31.7665 C   0  0  0  0  0  0  0  0  0  0  0  0
  -23.0396   -1.4006   30.1118 C   0  0  0  0  0  0  0  0  0  0  0  0
  -28.5091   -4.4650   29.8862 C   0  0  0  0  0  0  0  0  0  0  0  0
  -29.0183   -3.6651   30.6642 C   0  0  0  0  0  0  0  0  0  0  0  0
  -24.8394   -4.2564   29.7672 O   0  0  0  0  0  0  0  0  0  0  0  0
  1  2  2  3
  2  3  1  0
  3  4  1  0
  4  5  1  0
  5  6  1  0
  2  7  1  0
  6  7  1  0
  1  8  1  0
  8  9  1  0
  5 10  1  0
 10 11  2  0
 10 12  1  0
  9 13  2  3
 13 14  1  0
 14 15  2  0
 14 16  1  0
  7 17  1  0
 17 18  2  0
 17 19  1  0
 19 20  1  0
 19 21  1  0
  3 22  1  0
 22 23  1  0
 22 24  1  0
 22 25  1  0
 25 26  1  0
 26 27  1  0
 25 28  1  0
 24 29  1  0
 29 30  1  0
 29 31  1  0
 23 32  1  0
 31 32  1  0
 27 33  1  0
 13 34  1  0
 33 34  1  0
 26 35  1  0
M  END

$$$$
