No_3469-gen_results/8p0m/2024-11-26-14-13-15/
     RDKit          3D

 19 20  0  0  0  0  0  0  0  0999 V2000
  -28.0162   -0.8135   28.8779 C   0  0  0  0  0  0  0  0  0  0  0  0
  -27.0636   -0.1190   28.6079 C   0  0  0  0  0  0  0  0  0  0  0  0
  -25.7647   -0.3897   29.0360 C   0  0  0  0  0  0  0  0  0  0  0  0
  -25.5296   -1.5302   29.9014 C   0  0  0  0  0  0  0  0  0  0  0  0
  -26.6577   -2.2915   30.2035 C   0  0  0  0  0  0  0  0  0  0  0  0
  -27.8548   -1.9555   29.7630 C   0  0  0  0  0  0  0  0  0  0  0  0
  -24.5441    0.4126   28.7379 C   0  0  0  0  0  0  0  0  0  0  0  0
  -24.0952    1.3785   29.5751 C   0  0  0  0  0  0  0  0  0  0  0  0
  -22.9715    2.1447   29.2493 C   0  0  0  0  0  0  0  0  0  0  0  0
  -22.2339    1.9126   28.0417 C   0  0  0  0  0  0  0  0  0  0  0  0
  -23.7826    0.2867   27.5524 C   0  0  0  0  0  0  0  0  0  0  0  0
  -22.6965    1.0118   27.2313 C   0  0  0  0  0  0  0  0  0  0  0  0
  -24.7432    1.6126   30.9137 C   0  0  0  0  0  0  0  0  0  0  0  0
  -25.8647    1.8480   30.9108 O   0  0  0  0  0  0  0  0  0  0  0  0
  -23.9791    1.4918   31.9972 O   0  0  0  0  0  0  0  0  0  0  0  0
  -29.2026   -2.9320   30.1808 Cl  0  0  0  0  0  0  0  0  0  0  0  0
  -27.2195    1.0917   27.6850 C   0  0  0  0  0  0  0  0  0  0  0  0
  -27.4622    1.0013   26.5199 O   0  0  0  0  0  0  0  0  0  0  0  0
  -27.1006    2.3197   28.2430 O   0  0  0  0  0  0  0  0  0  0  0  0
  3  7  1  0
  8 13  1  0
 13 14  2  0
 13 15  1  0
  6 16  1  0
  2 17  1  0
 17 18  2  0
 17 19  1  0
  7  8  2  0
  8  9  1  0
  9 10  2  0
 10 12  1  0
 12 11  2  0
 11  7  1  0
  1  2  2  0
  2  3  1  0
  3  4  2  0
  4  5  1  0
  5  6  2  0
  6  1  1  0
M  END

$$$$
