No_39-gen_results/8p0m/2024-11-26-14-13-15/
     RDKit          3D

 14 14  0  0  0  0  0  0  0  0999 V2000
  -28.0162   -0.8135   28.8779 C   0  0  0  0  0  0  0  0  0  0  0  0
  -27.0636   -0.1190   28.6079 C   0  0  0  0  0  0  0  0  0  0  0  0
  -26.8756    1.1325   28.9134 C   0  0  0  0  0  0  0  0  0  0  0  0
  -25.6883    1.9515   28.5672 C   0  0  0  0  0  0  0  0  0  0  0  0
  -24.6394    1.2834   27.8753 C   0  0  0  0  0  0  0  0  0  0  0  0
  -24.8068   -0.0513   27.6040 C   0  0  0  0  0  0  0  0  0  0  0  0
  -25.9019   -0.7670   27.9511 C   0  0  0  0  0  0  0  0  0  0  0  0
  -29.2158   -0.1185   29.1813 C   0  0  0  0  0  0  0  0  0  0  0  0
  -30.2339   -0.7910   29.8154 C   0  0  0  0  0  0  0  0  0  0  0  0
  -23.4188    1.9753   27.5047 C   0  0  0  0  0  0  0  0  0  0  0  0
  -22.2441    2.1803   28.0603 N   0  0  0  0  0  0  0  0  0  0  0  0
  -23.4986    2.5754   26.0999 C   0  0  0  0  0  0  0  0  0  0  0  0
  -30.0680   -2.1301   30.2025 C   0  0  0  0  0  0  0  0  0  0  0  0
  -28.8239   -2.7329   30.2498 C   0  0  0  0  0  0  0  0  0  0  0  0
  1  2  2  3
  2  3  1  0
  3  4  1  0
  4  5  1  0
  5  6  1  0
  2  7  1  0
  6  7  1  0
  1  8  1  0
  8  9  2  3
  5 10  1  0
 10 11  2  0
 10 12  1  0
  9 13  1  0
 13 14  2  0
M  END

$$$$
