No_3182-gen_results/8p0m/2024-11-26-14-13-15/
     RDKit          3D

 15 16  0  0  0  0  0  0  0  0999 V2000
  -28.0162   -0.8135   28.8779 C   0  0  0  0  0  0  0  0  0  0  0  0
  -27.0636   -0.1189   28.6079 C   0  0  0  0  0  0  0  0  0  0  0  0
  -26.9716    0.7139   27.5060 C   0  0  0  0  0  0  0  0  0  0  0  0
  -28.1053    0.7744   26.6421 C   0  0  0  0  0  0  0  0  0  0  0  0
  -29.2041    0.1179   27.0477 C   0  0  0  0  0  0  0  0  0  0  0  0
  -29.2127   -0.6088   28.1281 C   0  0  0  0  0  0  0  0  0  0  0  0
  -25.8358    1.4265   27.1637 O   0  0  0  0  0  0  0  0  0  0  0  0
  -24.7312    1.2226   27.9231 C   0  0  0  0  0  0  0  0  0  0  0  0
  -24.5387    0.3895   28.8076 C   0  0  0  0  0  0  0  0  0  0  0  0
  -25.6737   -0.2983   29.3350 C   0  0  0  0  0  0  0  0  0  0  0  0
  -23.7133    2.2820   27.5070 C   0  0  0  0  0  0  0  0  0  0  0  0
  -23.9660    3.2613   26.8059 O   0  0  0  0  0  0  0  0  0  0  0  0
  -22.4250    2.1102   27.8262 O   0  0  0  0  0  0  0  0  0  0  0  0
  -30.5241    0.2219   26.3693 C   0  0  0  0  0  0  0  0  0  0  0  0
  -31.4293   -0.5868   26.4367 N   0  0  0  0  0  0  0  0  0  0  0  0
  3  7  1  0
  7  8  1  0
  8  9  2  0
  2 10  1  0
  9 10  1  0
  8 11  1  0
 11 12  2  0
 11 13  1  0
  5 14  1  0
 14 15  2  0
  1  2  2  0
  2  3  1  0
  3  4  2  0
  4  5  1  0
  5  6  2  0
  6  1  1  0
M  END

$$$$
