No_3189-gen_results/8p0m/2024-11-26-14-13-15/
     RDKit          3D

 25 26  0  0  0  0  0  0  0  0999 V2000
  -28.0162   -0.8135   28.8779 C   0  0  0  0  0  0  0  0  0  0  0  0
  -27.0636   -0.1190   28.6079 C   0  0  0  0  0  0  0  0  0  0  0  0
  -26.9716    0.7139   27.5060 C   0  0  0  0  0  0  0  0  0  0  0  0
  -25.8205    1.4909   27.1160 C   0  0  0  0  0  0  0  0  0  0  0  0
  -24.6562    1.4242   27.9180 C   0  0  0  0  0  0  0  0  0  0  0  0
  -24.6847    0.5901   29.0659 C   0  0  0  0  0  0  0  0  0  0  0  0
  -25.8099   -0.1266   29.3338 C   0  0  0  0  0  0  0  0  0  0  0  0
  -28.6943   -0.4734   30.1587 C   0  0  0  0  0  0  0  0  0  0  0  0
  -28.7309    0.5070   30.6385 O   0  0  0  0  0  0  0  0  0  0  0  0
  -29.5628   -1.5102   30.6280 O   0  0  0  0  0  0  0  0  0  0  0  0
  -23.4657    2.1950   27.5999 C   0  0  0  0  0  0  0  0  0  0  0  0
  -22.6409    1.6651   27.0840 F   0  0  0  0  0  0  0  0  0  0  0  0
  -23.0008    2.7995   28.7618 F   0  0  0  0  0  0  0  0  0  0  0  0
  -23.9162    3.3619   26.9312 F   0  0  0  0  0  0  0  0  0  0  0  0
  -28.1240    0.8247   26.5908 C   0  0  0  0  0  0  0  0  0  0  0  0
  -28.1109    0.6237   25.4226 O   0  0  0  0  0  0  0  0  0  0  0  0
  -29.3609    1.0811   27.1818 N   0  0  0  0  0  0  0  0  0  0  0  0
  -30.5334    1.2656   26.4189 C   0  0  0  0  0  0  0  0  0  0  0  0
  -31.3275    2.1311   26.9370 C   0  0  0  0  0  0  0  0  0  0  0  0
  -32.3184    2.6633   26.2515 C   0  0  0  0  0  0  0  0  0  0  0  0
  -33.2565    3.6596   26.7394 C   0  0  0  0  0  0  0  0  0  0  0  0
  -33.1699    4.0193   28.0896 C   0  0  0  0  0  0  0  0  0  0  0  0
  -32.2154    3.4288   28.8944 C   0  0  0  0  0  0  0  0  0  0  0  0
  -31.3363    2.5321   28.3931 C   0  0  0  0  0  0  0  0  0  0  0  0
  -30.7436    0.5559   25.5046 O   0  0  0  0  0  0  0  0  0  0  0  0
  1  8  1  0
  8  9  2  0
  8 10  1  0
  5 11  1  0
 11 12  1  0
 11 13  1  0
 11 14  1  0
  3 15  1  0
 15 16  2  0
 15 17  1  0
 17 18  1  0
 18 19  1  0
 18 25  2  0
  1  2  1  0
  2  3  2  0
  3  4  1  0
  4  5  2  0
  5  6  1  0
  6  7  2  0
  7  2  1  0
 19 20  2  0
 20 21  1  0
 21 22  2  0
 22 23  1  0
 23 24  2  0
 24 19  1  0
M  END

$$$$
