No_3454-gen_results/8p0m/2024-11-26-14-13-15/
     RDKit          3D

 28 30  0  0  0  0  0  0  0  0999 V2000
  -28.0162   -0.8135   28.8779 C   0  0  0  0  0  0  0  0  0  0  0  0
  -28.4690   -0.7850   29.8287 C   0  0  0  0  0  0  0  0  0  0  0  0
  -26.5042   -0.7777   28.8766 C   0  0  0  0  0  0  0  0  0  0  0  0
  -25.8103   -0.8531   30.1028 C   0  0  0  0  0  0  0  0  0  0  0  0
  -27.9906   -0.8916   31.2257 C   0  0  0  0  0  0  0  0  0  0  0  0
  -26.6042   -0.8676   31.2652 C   0  0  0  0  0  0  0  0  0  0  0  0
  -30.0739   -0.8360   29.8615 C   0  0  0  0  0  0  0  0  0  0  0  0
  -30.5608   -0.4417   28.9417 O   0  0  0  0  0  0  0  0  0  0  0  0
  -30.7384   -0.9996   31.0027 O   0  0  0  0  0  0  0  0  0  0  0  0
  -24.3674   -0.8039   30.1383 C   0  0  0  0  0  0  0  0  0  0  0  0
  -23.6569   -1.3689   30.7347 C   0  0  0  0  0  0  0  0  0  0  0  0
  -23.7640    0.2062   29.2037 C   0  0  0  0  0  0  0  0  0  0  0  0
  -22.3669    0.2988   29.1074 C   0  0  0  0  0  0  0  0  0  0  0  0
  -22.1938   -1.3453   30.8535 C   0  0  0  0  0  0  0  0  0  0  0  0
  -21.6165   -0.5196   29.8761 C   0  0  0  0  0  0  0  0  0  0  0  0
  -21.7687    1.1982   28.1187 C   0  0  0  0  0  0  0  0  0  0  0  0
  -22.4592    1.7062   27.1413 O   0  0  0  0  0  0  0  0  0  0  0  0
  -20.4839    1.4680   28.1804 O   0  0  0  0  0  0  0  0  0  0  0  0
  -31.8742   -1.3065   31.0333 C   0  0  0  0  0  0  0  0  0  0  0  0
  -32.8404   -0.3789   31.3047 C   0  0  0  0  0  0  0  0  0  0  0  0
  -32.5507    0.5771   32.1480 C   0  0  0  0  0  0  0  0  0  0  0  0
  -32.2460    0.3746   33.4194 C   0  0  0  0  0  0  0  0  0  0  0  0
  -31.8895    1.4047   34.3819 C   0  0  0  0  0  0  0  0  0  0  0  0
  -31.9793    2.7353   33.9027 C   0  0  0  0  0  0  0  0  0  0  0  0
  -32.3350    2.9929   32.6084 C   0  0  0  0  0  0  0  0  0  0  0  0
  -32.6013    1.9471   31.7253 C   0  0  0  0  0  0  0  0  0  0  0  0
  -32.1274   -2.7064   30.9883 C   0  0  0  0  0  0  0  0  0  0  0  0
  -33.0170   -3.2004   30.4647 O   0  0  0  0  0  0  0  0  0  0  0  0
  2  7  1  0
  7  8  2  0
  7  9  1  0
  4 10  1  0
 13 16  1  0
 16 17  2  0
 16 18  1  0
  9 19  1  0
 19 20  1  0
 20 21  1  0
 19 27  1  0
 27 28  2  0
 10 11  2  0
 11 14  1  0
 14 15  2  0
 15 13  1  0
 13 12  2  0
 12 10  1  0
  1  2  2  0
  2  5  1  0
  5  6  2  0
  6  4  1  0
  4  3  2  0
  3  1  1  0
 21 22  2  0
 22 23  1  0
 23 24  2  0
 24 25  1  0
 25 26  2  0
 26 21  1  0
M  END

$$$$
