No_3100-gen_results/8p0m/2024-11-26-14-13-15/
     RDKit          3D

 35 38  0  0  0  0  0  0  0  0999 V2000
  -28.0162   -0.8135   28.8779 C   0  0  0  0  0  0  0  0  0  0  0  0
  -27.0636   -0.1189   28.6079 C   0  0  0  0  0  0  0  0  0  0  0  0
  -27.0010    0.6913   27.4910 C   0  0  0  0  0  0  0  0  0  0  0  0
  -25.8548    1.4825   27.0830 C   0  0  0  0  0  0  0  0  0  0  0  0
  -24.9008    1.3894   27.5922 C   0  0  0  0  0  0  0  0  0  0  0  0
  -24.6783    0.5764   28.8299 C   0  0  0  0  0  0  0  0  0  0  0  0
  -25.7704   -0.2051   29.2800 C   0  0  0  0  0  0  0  0  0  0  0  0
  -28.6429   -0.4461   30.2385 C   0  0  0  0  0  0  0  0  0  0  0  0
  -29.6542   -0.5034   30.5380 C   0  0  0  0  0  0  0  0  0  0  0  0
  -30.1931   -0.1354   31.8946 C   0  0  0  0  0  0  0  0  0  0  0  0
  -29.2882    0.2689   32.8459 C   0  0  0  0  0  0  0  0  0  0  0  0
  -27.9300    0.2557   32.5094 C   0  0  0  0  0  0  0  0  0  0  0  0
  -27.5536   -0.0781   31.3033 C   0  0  0  0  0  0  0  0  0  0  0  0
  -23.3637    0.4897   29.5215 C   0  0  0  0  0  0  0  0  0  0  0  0
  -22.2813    0.2090   28.7368 C   0  0  0  0  0  0  0  0  0  0  0  0
  -21.3457    0.9471   28.6797 C   0  0  0  0  0  0  0  0  0  0  0  0
  -23.4350    0.4966   30.9201 C   0  0  0  0  0  0  0  0  0  0  0  0
  -21.4620    2.1732   28.8197 F   0  0  0  0  0  0  0  0  0  0  0  0
  -20.2143    0.5426   29.3887 F   0  0  0  0  0  0  0  0  0  0  0  0
  -28.2767    0.8026   26.6976 C   0  0  0  0  0  0  0  0  0  0  0  0
  -28.3205    0.6647   25.5769 O   0  0  0  0  0  0  0  0  0  0  0  0
  -29.3802    1.0048   27.3326 O   0  0  0  0  0  0  0  0  0  0  0  0
  -26.9270    0.6536   33.5205 C   0  0  0  0  0  0  0  0  0  0  0  0
  -25.6306    0.2771   33.3239 C   0  0  0  0  0  0  0  0  0  0  0  0
  -27.4130    0.2696   34.9484 C   0  0  0  0  0  0  0  0  0  0  0  0
  -26.9536    2.3077   33.5293 C   0  0  0  0  0  0  0  0  0  0  0  0
  -26.1887    2.8917   32.6141 C   0  0  0  0  0  0  0  0  0  0  0  0
  -26.2115    4.3910   32.5158 C   0  0  0  0  0  0  0  0  0  0  0  0
  -26.7794    4.9300   33.3279 C   0  0  0  0  0  0  0  0  0  0  0  0
  -27.5946    4.4246   34.3919 C   0  0  0  0  0  0  0  0  0  0  0  0
  -27.6196    3.0463   34.5158 C   0  0  0  0  0  0  0  0  0  0  0  0
  -26.7599   -0.5975   35.6347 C   0  0  0  0  0  0  0  0  0  0  0  0
  -24.9399   -0.7679   34.0579 C   0  0  0  0  0  0  0  0  0  0  0  0
  -25.4530   -1.0598   35.2651 C   0  0  0  0  0  0  0  0  0  0  0  0
  -28.6442    0.8138   35.4700 C   0  0  0  0  0  0  0  0  0  0  0  0
  1  2  1  0
  1  8  1  0
  6 14  1  0
 14 15  1  0
 15 16  2  3
 14 17  1  0
 16 18  1  0
 16 19  1  0
  3 20  1  0
 20 21  2  0
 20 22  1  0
 12 23  1  0
 23 24  1  0
 23 25  1  0
 23 26  1  0
 32 34  1  0
 33 34  1  0
 25 35  1  0
 24 33  1  0
 32 25  1  0
 26 27  2  0
 27 28  1  0
 28 29  2  0
 29 30  1  0
 30 31  2  0
 31 26  1  0
  2  3  2  0
  3  4  1  0
  4  5  2  0
  5  6  1  0
  6  7  2  0
  7  2  1  0
  8  9  2  0
  9 10  1  0
 10 11  2  0
 11 12  1  0
 12 13  2  0
 13  8  1  0
M  END

$$$$
