No_3421-gen_results/8p0m/2024-11-26-14-13-15/
     RDKit          3D

 35 39  0  0  0  0  0  0  0  0999 V2000
  -28.0162   -0.8135   28.8779 C   0  0  0  0  0  0  0  0  0  0  0  0
  -27.0636   -0.1189   28.6079 C   0  0  0  0  0  0  0  0  0  0  0  0
  -26.9287    1.1713   29.0083 C   0  0  0  0  0  0  0  0  0  0  0  0
  -25.7702    2.0341   28.6884 C   0  0  0  0  0  0  0  0  0  0  0  0
  -24.7141    1.4431   27.9188 C   0  0  0  0  0  0  0  0  0  0  0  0
  -24.8590    0.0783   27.5836 C   0  0  0  0  0  0  0  0  0  0  0  0
  -25.9647   -0.6606   27.9164 C   0  0  0  0  0  0  0  0  0  0  0  0
  -29.1701   -0.2984   28.9471 N   0  0  0  0  0  0  0  0  0  0  0  0
  -29.7216    0.3727   28.0429 C   0  0  0  0  0  0  0  0  0  0  0  0
  -30.7197    0.3622   27.5501 C   0  0  0  0  0  0  0  0  0  0  0  0
  -31.7199   -0.6191   28.0465 C   0  0  0  0  0  0  0  0  0  0  0  0
  -30.1477   -0.8159   29.9380 C   0  0  0  0  0  0  0  0  0  0  0  0
  -31.3884   -1.0895   29.3103 N   0  0  0  0  0  0  0  0  0  0  0  0
  -23.4892    2.1182   27.5985 C   0  0  0  0  0  0  0  0  0  0  0  0
  -22.4328    1.8894   27.6215 O   0  0  0  0  0  0  0  0  0  0  0  0
  -23.8029    3.3849   27.1528 O   0  0  0  0  0  0  0  0  0  0  0  0
  -27.8058   -1.9662   29.4500 O   0  0  0  0  0  0  0  0  0  0  0  0
  -31.0506    0.8922   26.1881 C   0  0  0  0  0  0  0  0  0  0  0  0
  -30.4285    1.6241   25.6134 O   0  0  0  0  0  0  0  0  0  0  0  0
  -32.0506    0.2395   25.5261 O   0  0  0  0  0  0  0  0  0  0  0  0
  -32.3173   -1.9145   30.0701 C   0  0  0  0  0  0  0  0  0  0  0  0
  -33.1256   -1.2492   30.8970 C   0  0  0  0  0  0  0  0  0  0  0  0
  -33.0372   -0.2210   31.3276 C   0  0  0  0  0  0  0  0  0  0  0  0
  -31.8851    0.7243   31.0992 C   0  0  0  0  0  0  0  0  0  0  0  0
  -31.9702    2.0879   31.7231 C   0  0  0  0  0  0  0  0  0  0  0  0
  -30.8205    2.9093   31.6037 C   0  0  0  0  0  0  0  0  0  0  0  0
  -29.6762    2.4430   30.8949 C   0  0  0  0  0  0  0  0  0  0  0  0
  -29.6275    1.1494   30.5911 C   0  0  0  0  0  0  0  0  0  0  0  0
  -30.6966    0.3367   30.8284 C   0  0  0  0  0  0  0  0  0  0  0  0
  -28.5631    3.4663   30.9126 C   0  0  0  0  0  0  0  0  0  0  0  0
  -27.5382    3.2129   31.7476 C   0  0  0  0  0  0  0  0  0  0  0  0
  -26.4339    4.1400   31.7227 C   0  0  0  0  0  0  0  0  0  0  0  0
  -26.2965    5.1734   30.7828 C   0  0  0  0  0  0  0  0  0  0  0  0
  -27.3666    5.3207   29.9017 C   0  0  0  0  0  0  0  0  0  0  0  0
  -28.5040    4.4759   29.9591 C   0  0  0  0  0  0  0  0  0  0  0  0
  1  2  1  0
  1  8  1  0
  8  9  1  0
 10 11  1  0
  8 12  1  0
 11 13  1  0
 12 13  1  0
  5 14  1  0
 14 15  2  0
 14 16  1  0
  1 17  2  0
 10 18  1  0
 18 19  2  0
 18 20  1  0
 13 21  1  0
 21 22  1  0
 22 23  2  0
 23 24  1  0
 12 29  1  0
 27 30  1  0
  9 10  1  0
  2  3  2  0
  3  4  1  0
  4  5  2  0
  5  6  1  0
  6  7  2  0
  7  2  1  0
 24 25  2  0
 25 26  1  0
 26 27  2  0
 27 28  1  0
 28 29  2  0
 29 24  1  0
 30 31  2  0
 31 32  1  0
 32 33  2  0
 33 34  1  0
 34 35  2  0
 35 30  1  0
M  END

$$$$
