No_3220-gen_results/8p0m/2024-11-26-14-13-15/
     RDKit          3D

 11 11  0  0  0  0  0  0  0  0999 V2000
  -28.1493   -0.8198   28.9079 Cl  0  0  0  0  0  0  0  0  0  0  0  0
  -26.9116   -0.0797   28.9452 C   0  0  0  0  0  0  0  0  0  0  0  0
  -26.7384    1.0439   29.2535 C   0  0  0  0  0  0  0  0  0  0  0  0
  -25.4392    1.7115   29.2755 C   0  0  0  0  0  0  0  0  0  0  0  0
  -24.2812    0.9888   28.8542 C   0  0  0  0  0  0  0  0  0  0  0  0
  -24.4868   -0.3041   28.4957 C   0  0  0  0  0  0  0  0  0  0  0  0
  -25.7046   -0.8667   28.5244 C   0  0  0  0  0  0  0  0  0  0  0  0
  -22.9617    1.6322   28.7948 C   0  0  0  0  0  0  0  0  0  0  0  0
  -22.7682    2.7355   28.6243 O   0  0  0  0  0  0  0  0  0  0  0  0
  -21.9200    0.7432   28.6275 O   0  0  0  0  0  0  0  0  0  0  0  0
  -27.9884    2.1059   29.8209 Cl  0  0  0  0  0  0  0  0  0  0  0  0
  1  2  1  0
  5  8  1  0
  8  9  2  0
  8 10  1  0
  3 11  1  0
  2  3  2  0
  3  4  1  0
  4  5  2  0
  5  6  1  0
  6  7  2  0
  7  2  1  0
M  END

$$$$
