No_3120-gen_results/8p0m/2024-11-26-14-13-15/
     RDKit          3D

 16 16  0  0  0  0  0  0  0  0999 V2000
  -28.0162   -0.8135   28.8779 C   0  0  0  0  0  0  0  0  0  0  0  0
  -27.0636   -0.1189   28.6079 C   0  0  0  0  0  0  0  0  0  0  0  0
  -25.7647   -0.3897   29.0360 C   0  0  0  0  0  0  0  0  0  0  0  0
  -25.5296   -1.5302   29.9014 C   0  0  0  0  0  0  0  0  0  0  0  0
  -24.3236   -1.9076   30.4324 C   0  0  0  0  0  0  0  0  0  0  0  0
  -27.9274   -1.9227   29.7902 C   0  0  0  0  0  0  0  0  0  0  0  0
  -26.6914   -2.2806   30.2948 C   0  0  0  0  0  0  0  0  0  0  0  0
  -23.2806   -2.0391   29.4813 C   0  0  0  0  0  0  0  0  0  0  0  0
  -29.0049   -2.6569   30.1988 O   0  0  0  0  0  0  0  0  0  0  0  0
  -30.0974   -2.0475   30.7050 C   0  0  0  0  0  0  0  0  0  0  0  0
  -30.6405   -2.7812   31.7025 C   0  0  0  0  0  0  0  0  0  0  0  0
  -31.6159   -2.3525   32.2078 O   0  0  0  0  0  0  0  0  0  0  0  0
  -30.5164   -4.0655   31.7099 O   0  0  0  0  0  0  0  0  0  0  0  0
  -27.1229    1.0129   27.6183 C   0  0  0  0  0  0  0  0  0  0  0  0
  -26.1972    1.2541   26.7340 C   0  0  0  0  0  0  0  0  0  0  0  0
  -26.1476    2.4285   25.9080 C   0  0  0  0  0  0  0  0  0  0  0  0
  4  5  1  0
  5  8  1  0
  6  9  1  0
  9 10  1  0
 10 11  1  0
 11 12  1  0
 11 13  2  0
  2 14  1  0
 14 15  2  3
 15 16  1  0
  1  2  2  0
  2  3  1  0
  3  4  2  0
  4  7  1  0
  7  6  2  0
  6  1  1  0
M  END

$$$$
