No_3939-gen_results/8p0m/2024-11-26-14-13-15/
     RDKit          3D

 32 34  0  0  0  0  0  0  0  0999 V2000
  -28.1229   -1.3353   28.4874 O   0  0  0  0  0  0  0  0  0  0  0  0
  -27.4806   -0.4044   28.7094 C   0  0  0  0  0  0  0  0  0  0  0  0
  -26.3804   -0.0867   27.9394 C   0  0  0  0  0  0  0  0  0  0  0  0
  -27.6664    0.4468   29.8988 N   0  0  0  0  0  0  0  0  0  0  0  0
  -26.4086    0.8567   26.8802 C   0  0  0  0  0  0  0  0  0  0  0  0
  -25.0824   -0.6970   28.1699 C   0  0  0  0  0  0  0  0  0  0  0  0
  -25.2842    1.0488   26.0470 C   0  0  0  0  0  0  0  0  0  0  0  0
  -23.9159   -0.3440   27.4444 C   0  0  0  0  0  0  0  0  0  0  0  0
  -24.0618    0.5290   26.3707 C   0  0  0  0  0  0  0  0  0  0  0  0
  -28.7784    0.1033   30.7872 C   0  0  0  0  0  0  0  0  0  0  0  0
  -26.8454    1.5246   30.2211 C   0  0  0  0  0  0  0  0  0  0  0  0
  -27.2475    2.6214   30.2572 C   0  0  0  0  0  0  0  0  0  0  0  0
  -26.3289    3.7165   30.4608 C   0  0  0  0  0  0  0  0  0  0  0  0
  -24.9442    3.3911   30.5109 C   0  0  0  0  0  0  0  0  0  0  0  0
  -24.5208    2.1081   30.4008 C   0  0  0  0  0  0  0  0  0  0  0  0
  -25.4726    1.1100   30.2420 C   0  0  0  0  0  0  0  0  0  0  0  0
  -27.6594    1.5189   26.5050 C   0  0  0  0  0  0  0  0  0  0  0  0
  -27.8602    2.1880   25.4994 C   0  0  0  0  0  0  0  0  0  0  0  0
  -28.7001    2.2400   24.8242 C   0  0  0  0  0  0  0  0  0  0  0  0
  -29.8862    1.6216   24.9601 C   0  0  0  0  0  0  0  0  0  0  0  0
  -30.0045    0.9140   26.1777 C   0  0  0  0  0  0  0  0  0  0  0  0
  -28.8200    0.7345   26.9547 C   0  0  0  0  0  0  0  0  0  0  0  0
  -31.5622    0.1471   26.6122 P   0  0  0  0  0  0  0  0  0  0  0  0
  -32.5465    0.9380   26.0904 O   0  0  0  0  0  0  0  0  0  0  0  0
  -31.4728   -1.2561   26.0564 O   0  0  0  0  0  0  0  0  0  0  0  0
  -31.4629    0.0207   28.1518 O   0  0  0  0  0  0  0  0  0  0  0  0
  -29.4177    1.1433   31.3351 C   0  0  0  0  0  0  0  0  0  0  0  0
  -30.1214    1.2016   32.1492 C   0  0  0  0  0  0  0  0  0  0  0  0
  -30.7089    2.3826   32.7232 C   0  0  0  0  0  0  0  0  0  0  0  0
  -31.6254    2.4600   33.8089 C   0  0  0  0  0  0  0  0  0  0  0  0
  -32.0742    1.2166   34.2668 C   0  0  0  0  0  0  0  0  0  0  0  0
  -31.6291    0.0495   33.7474 C   0  0  0  0  0  0  0  0  0  0  0  0
  1  2  2  0
  2  3  1  0
  2  4  1  0
  4 10  1  0
  4 11  1  0
  5 17  1  0
 21 23  1  0
 23 24  2  0
 23 25  1  0
 23 26  1  0
 10 27  2  3
 27 28  1  0
 28 29  2  3
 29 30  1  0
 30 31  2  3
 31 32  1  0
 17 18  2  0
 18 19  1  0
 19 20  2  0
 20 21  1  0
 21 22  2  0
 22 17  1  0
 11 12  2  0
 12 13  1  0
 13 14  2  0
 14 15  1  0
 15 16  2  0
 16 11  1  0
  3  5  2  0
  5  7  1  0
  7  9  2  0
  9  8  1  0
  8  6  2  0
  6  3  1  0
M  END

$$$$
