No_3646-gen_results/8p0m/2024-11-26-14-13-15/
     RDKit          3D

 11 11  0  0  0  0  0  0  0  0999 V2000
  -28.1229   -1.3353   28.4874 O   0  0  0  0  0  0  0  0  0  0  0  0
  -28.5208   -0.4363   29.0779 C   0  0  0  0  0  0  0  0  0  0  0  0
  -27.9150    0.0780   30.0386 O   0  0  0  0  0  0  0  0  0  0  0  0
  -29.6198    0.3211   28.3438 C   0  0  0  0  0  0  0  0  0  0  0  0
  -29.4989    1.4633   28.2304 C   0  0  0  0  0  0  0  0  0  0  0  0
  -30.6641   -0.4449   28.0362 O   0  0  0  0  0  0  0  0  0  0  0  0
  -30.3383    2.1907   27.3212 C   0  0  0  0  0  0  0  0  0  0  0  0
  -31.5687    1.9822   27.3596 C   0  0  0  0  0  0  0  0  0  0  0  0
  -31.9202    0.7317   26.8795 C   0  0  0  0  0  0  0  0  0  0  0  0
  -31.8089   -0.3597   27.7109 C   0  0  0  0  0  0  0  0  0  0  0  0
  -32.4707    0.5275   25.5445 C   0  0  0  0  0  0  0  0  0  0  0  0
  1  2  2  0
  2  3  1  0
  2  4  1  0
  4  5  1  0
  4  6  1  0
  5  7  1  0
  7  8  1  0
  8  9  1  0
  6 10  1  0
  9 10  1  0
  9 11  1  0
M  END

$$$$
