No_3356-gen_results/8p0m/2024-11-26-14-13-15/
     RDKit          3D

 32 36  0  0  0  0  0  0  0  0999 V2000
  -28.0162   -0.8135   28.8779 C   0  0  0  0  0  0  0  0  0  0  0  0
  -28.4690   -0.7850   29.8287 C   0  0  0  0  0  0  0  0  0  0  0  0
  -28.1960    0.3478   28.0550 C   0  0  0  0  0  0  0  0  0  0  0  0
  -29.0191    1.3501   28.3782 C   0  0  0  0  0  0  0  0  0  0  0  0
  -29.6249    1.2683   29.6012 C   0  0  0  0  0  0  0  0  0  0  0  0
  -29.3821    0.1816   30.4004 C   0  0  0  0  0  0  0  0  0  0  0  0
  -27.5492    0.5027   26.6783 C   0  0  0  0  0  0  0  0  0  0  0  0
  -28.1702    0.3184   25.5296 C   0  0  0  0  0  0  0  0  0  0  0  0
  -26.0994    0.6147   26.6544 C   0  0  0  0  0  0  0  0  0  0  0  0
  -25.2253    0.6856   27.7975 C   0  0  0  0  0  0  0  0  0  0  0  0
  -24.1799    1.1342   27.9560 C   0  0  0  0  0  0  0  0  0  0  0  0
  -23.2991    1.0789   29.1657 C   0  0  0  0  0  0  0  0  0  0  0  0
  -23.6420    0.2341   29.8991 C   0  0  0  0  0  0  0  0  0  0  0  0
  -24.8005   -0.4664   29.9910 C   0  0  0  0  0  0  0  0  0  0  0  0
  -25.5971   -0.3235   28.9135 C   0  0  0  0  0  0  0  0  0  0  0  0
  -26.7479   -0.9848   28.9108 N   0  0  0  0  0  0  0  0  0  0  0  0
  -25.5173    0.8634   25.4277 C   0  0  0  0  0  0  0  0  0  0  0  0
  -27.6234    0.5794   24.3362 C   0  0  0  0  0  0  0  0  0  0  0  0
  -26.2337    0.7663   24.3081 C   0  0  0  0  0  0  0  0  0  0  0  0
  -29.3032    2.5592   27.5567 C   0  0  0  0  0  0  0  0  0  0  0  0
  -28.5889    3.7633   27.8946 C   0  0  0  0  0  0  0  0  0  0  0  0
  -28.2943    4.0455   29.0795 C   0  0  0  0  0  0  0  0  0  0  0  0
  -27.4633    5.1658   29.4256 C   0  0  0  0  0  0  0  0  0  0  0  0
  -27.0216    5.9818   28.3702 C   0  0  0  0  0  0  0  0  0  0  0  0
  -28.1124    4.6180   26.8020 C   0  0  0  0  0  0  0  0  0  0  0  0
  -27.3149    5.6993   27.1291 N   0  0  0  0  0  0  0  0  0  0  0  0
  -30.4444    2.5768   26.7677 C   0  0  0  0  0  0  0  0  0  0  0  0
  -26.3700   -2.5085   28.7934 C   0  0  0  0  0  0  0  0  0  0  0  0
  -31.3247    1.6104   26.8992 C   0  0  0  0  0  0  0  0  0  0  0  0
  -32.2589    1.4491   26.4430 C   0  0  0  0  0  0  0  0  0  0  0  0
  -32.7140    2.4313   25.4533 C   0  0  0  0  0  0  0  0  0  0  0  0
  -31.8923    3.5379   25.1880 C   0  0  0  0  0  0  0  0  0  0  0  0
  3  7  1  0
  9 10  1  0
  1 16  1  0
 15 16  1  0
  4 20  1  0
 20 21  1  0
 20 27  1  0
 16 28  1  0
 27 29  2  3
 29 30  1  0
 30 31  2  3
 31 32  1  0
 21 22  2  0
 22 23  1  0
 23 24  2  0
 24 26  1  0
 26 25  2  0
 25 21  1  0
  1  2  2  0
  2  6  1  0
  6  5  2  0
  5  4  1  0
  4  3  2  0
  3  1  1  0
 10 11  2  0
 11 12  1  0
 12 13  2  0
 13 14  1  0
 14 15  2  0
 15 10  1  0
  7  8  2  0
  8 18  1  0
 18 19  2  0
 19 17  1  0
 17  9  2  0
  9  7  1  0
M  END

$$$$
