No_3833-gen_results/8p0m/2024-11-26-14-13-15/
     RDKit          3D

 35 38  0  0  0  0  0  0  0  0999 V2000
  -28.0162   -0.8135   28.8779 C   0  0  0  0  0  0  0  0  0  0  0  0
  -27.0636   -0.1190   28.6079 C   0  0  0  0  0  0  0  0  0  0  0  0
  -27.0010    0.6913   27.4910 C   0  0  0  0  0  0  0  0  0  0  0  0
  -25.8548    1.4825   27.0830 C   0  0  0  0  0  0  0  0  0  0  0  0
  -24.6901    1.4526   27.8807 C   0  0  0  0  0  0  0  0  0  0  0  0
  -24.7379    0.6010   29.0416 C   0  0  0  0  0  0  0  0  0  0  0  0
  -25.8234   -0.1688   29.3887 C   0  0  0  0  0  0  0  0  0  0  0  0
  -28.0376   -1.5350   30.2052 C   0  0  0  0  0  0  0  0  0  0  0  0
  -26.8472   -1.6620   30.9516 C   0  0  0  0  0  0  0  0  0  0  0  0
  -25.7454   -0.9236   30.5912 C   0  0  0  0  0  0  0  0  0  0  0  0
  -23.5008    2.2313   27.5415 C   0  0  0  0  0  0  0  0  0  0  0  0
  -22.7496    1.6936   26.3771 C   0  0  0  0  0  0  0  0  0  0  0  0
  -28.1033    0.7873   26.5236 C   0  0  0  0  0  0  0  0  0  0  0  0
  -27.8199    0.6672   25.3226 F   0  0  0  0  0  0  0  0  0  0  0  0
  -28.7720    1.9601   26.7739 F   0  0  0  0  0  0  0  0  0  0  0  0
  -29.0602   -0.1364   26.7469 F   0  0  0  0  0  0  0  0  0  0  0  0
  -29.2293   -2.3524   30.5945 C   0  0  0  0  0  0  0  0  0  0  0  0
  -30.0693   -1.9186   31.1249 O   0  0  0  0  0  0  0  0  0  0  0  0
  -29.0813   -3.6812   30.2554 N   0  0  0  0  0  0  0  0  0  0  0  0
  -30.1465   -4.6191   30.5267 C   0  0  0  0  0  0  0  0  0  0  0  0
  -27.8707   -4.3411   29.7558 C   0  0  0  0  0  0  0  0  0  0  0  0
  -30.1828   -5.3439   31.5285 C   0  0  0  0  0  0  0  0  0  0  0  0
  -31.1787   -6.3580   31.7531 C   0  0  0  0  0  0  0  0  0  0  0  0
  -32.1562   -6.4850   30.7716 C   0  0  0  0  0  0  0  0  0  0  0  0
  -31.0711   -4.7450   29.4873 C   0  0  0  0  0  0  0  0  0  0  0  0
  -32.0302   -5.6686   29.6033 C   0  0  0  0  0  0  0  0  0  0  0  0
  -23.1779    3.2166   28.2516 O   0  0  0  0  0  0  0  0  0  0  0  0
  -33.0611   -5.8399   28.5462 C   0  0  0  0  0  0  0  0  0  0  0  0
  -33.8572   -5.1588   28.2312 C   0  0  0  0  0  0  0  0  0  0  0  0
  -32.8015   -7.0980   27.7030 C   0  0  0  0  0  0  0  0  0  0  0  0
  -34.7848   -5.2859   27.1276 C   0  0  0  0  0  0  0  0  0  0  0  0
  -33.6508   -7.2886   26.6017 C   0  0  0  0  0  0  0  0  0  0  0  0
  -34.6096   -6.3879   26.3025 C   0  0  0  0  0  0  0  0  0  0  0  0
  -24.5320   -0.9733   31.3945 C   0  0  0  0  0  0  0  0  0  0  0  0
  -24.1394   -0.6050   32.4452 N   0  0  0  0  0  0  0  0  0  0  0  0
  5 11  1  0
 11 12  1  0
  3 13  1  0
 13 14  1  0
 13 15  1  0
 13 16  1  0
  8 17  1  0
 17 18  2  0
 17 19  1  0
 19 20  1  0
 19 21  1  0
 11 27  2  0
 26 28  1  0
 10 34  1  0
 34 35  3  0
 20 22  2  0
 22 23  1  0
 23 24  2  0
 24 26  1  0
 26 25  2  0
 25 20  1  0
  2  3  1  0
  3  4  2  0
  4  5  1  0
  5  6  2  0
  6  7  1  0
  1  2  2  0
  2  7  1  0
  7 10  2  0
 10  9  1  0
  9  8  2  0
  8  1  1  0
 28 29  2  0
 29 31  1  0
 31 33  2  0
 33 32  1  0
 32 30  2  0
 30 28  1  0
M  END

$$$$
