No_3251-gen_results/8p0m/2024-11-26-14-13-15/
     RDKit          3D

 26 28  0  0  0  0  0  0  0  0999 V2000
  -28.0162   -0.8135   28.8779 C   0  0  0  0  0  0  0  0  0  0  0  0
  -28.4690   -0.7850   29.8287 C   0  0  0  0  0  0  0  0  0  0  0  0
  -27.1356    0.2359   28.5352 C   0  0  0  0  0  0  0  0  0  0  0  0
  -26.8745    1.2825   29.3982 C   0  0  0  0  0  0  0  0  0  0  0  0
  -28.3613    0.1987   30.9244 C   0  0  0  0  0  0  0  0  0  0  0  0
  -27.5277    1.2234   30.6356 C   0  0  0  0  0  0  0  0  0  0  0  0
  -26.3987    0.2949   27.2279 C   0  0  0  0  0  0  0  0  0  0  0  0
  -25.0392    0.2356   27.3538 C   0  0  0  0  0  0  0  0  0  0  0  0
  -27.0287    0.3958   26.0087 C   0  0  0  0  0  0  0  0  0  0  0  0
  -28.3713    0.5360   25.8782 C   0  0  0  0  0  0  0  0  0  0  0  0
  -29.1580    0.8966   26.9253 C   0  0  0  0  0  0  0  0  0  0  0  0
  -30.5977    1.1279   26.5683 C   0  0  0  0  0  0  0  0  0  0  0  0
  -30.9539    0.9813   25.2767 C   0  0  0  0  0  0  0  0  0  0  0  0
  -28.8767    0.6546   24.6184 C   0  0  0  0  0  0  0  0  0  0  0  0
  -30.1539    0.8300   24.2796 C   0  0  0  0  0  0  0  0  0  0  0  0
  -26.3087    0.3258   24.9911 F   0  0  0  0  0  0  0  0  0  0  0  0
  -24.1148    1.1494   27.9586 C   0  0  0  0  0  0  0  0  0  0  0  0
  -23.1780    0.9759   28.6204 C   0  0  0  0  0  0  0  0  0  0  0  0
  -22.3121    0.3475   28.6509 C   0  0  0  0  0  0  0  0  0  0  0  0
  -21.9270   -0.5041   27.7914 C   0  0  0  0  0  0  0  0  0  0  0  0
  -23.0760   -1.1883   27.3160 C   0  0  0  0  0  0  0  0  0  0  0  0
  -24.4100   -1.0440   27.1169 C   0  0  0  0  0  0  0  0  0  0  0  0
  -31.5900    1.4027   27.6822 C   0  0  0  0  0  0  0  0  0  0  0  0
  -31.5476    2.3454   28.4315 O   0  0  0  0  0  0  0  0  0  0  0  0
  -32.4566    0.4436   27.8495 O   0  0  0  0  0  0  0  0  0  0  0  0
  -29.4423   -1.7638   30.2391 F   0  0  0  0  0  0  0  0  0  0  0  0
  3  7  1  0
  7  8  1  0
  7  9  1  0
  9 10  1  0
  9 16  1  0
  8 17  1  0
 17 18  2  0
 18 19  1  0
 19 20  2  0
 20 21  1  0
  8 22  1  0
 21 22  1  0
 12 23  1  0
 23 24  2  0
 23 25  1  0
  2 26  1  0
 10 11  2  0
 11 12  1  0
 12 13  2  0
 13 15  1  0
 15 14  2  0
 14 10  1  0
  1  2  2  0
  2  5  1  0
  5  6  2  0
  6  4  1  0
  4  3  2  0
  3  1  1  0
M  END

$$$$
