No_3081-gen_results/8p0m/2024-11-26-14-13-15/
     RDKit          3D

 26 27  0  0  0  0  0  0  0  0999 V2000
  -28.0162   -0.8135   28.8779 C   0  0  0  0  0  0  0  0  0  0  0  0
  -27.0636   -0.1189   28.6079 C   0  0  0  0  0  0  0  0  0  0  0  0
  -26.9716    0.7139   27.5060 C   0  0  0  0  0  0  0  0  0  0  0  0
  -25.8205    1.4909   27.1160 C   0  0  0  0  0  0  0  0  0  0  0  0
  -24.6562    1.4242   27.9180 C   0  0  0  0  0  0  0  0  0  0  0  0
  -24.6847    0.5901   29.0659 C   0  0  0  0  0  0  0  0  0  0  0  0
  -25.8099   -0.1265   29.3338 C   0  0  0  0  0  0  0  0  0  0  0  0
  -28.6943   -0.4734   30.1587 C   0  0  0  0  0  0  0  0  0  0  0  0
  -29.7865   -1.3251   30.6371 C   0  0  0  0  0  0  0  0  0  0  0  0
  -23.4524    2.1889   27.6083 C   0  0  0  0  0  0  0  0  0  0  0  0
  -22.4679    1.8497   27.3090 N   0  0  0  0  0  0  0  0  0  0  0  0
  -23.8098    3.4631   27.0736 N   0  0  0  0  0  0  0  0  0  0  0  0
  -30.0270   -2.2416   30.0854 C   0  0  0  0  0  0  0  0  0  0  0  0
  -31.2239   -3.0205   30.5852 C   0  0  0  0  0  0  0  0  0  0  0  0
  -31.5920   -4.2480   29.9300 C   0  0  0  0  0  0  0  0  0  0  0  0
  -32.6573   -4.6169   29.6313 C   0  0  0  0  0  0  0  0  0  0  0  0
  -33.7434   -3.8338   29.8649 C   0  0  0  0  0  0  0  0  0  0  0  0
  -33.5926   -2.6785   30.5853 C   0  0  0  0  0  0  0  0  0  0  0  0
  -32.3036   -2.1957   30.7845 C   0  0  0  0  0  0  0  0  0  0  0  0
  -34.7877   -1.8710   30.9444 C   0  0  0  0  0  0  0  0  0  0  0  0
  -35.7116   -2.3082   31.3641 O   0  0  0  0  0  0  0  0  0  0  0  0
  -34.6657   -0.5627   30.4906 O   0  0  0  0  0  0  0  0  0  0  0  0
  -28.1219    0.7688   26.6095 C   0  0  0  0  0  0  0  0  0  0  0  0
  -27.8767    0.8845   25.3118 C   0  0  0  0  0  0  0  0  0  0  0  0
  -29.4147    0.6862   27.0761 C   0  0  0  0  0  0  0  0  0  0  0  0
  -29.8243    1.0392   28.2099 O   0  0  0  0  0  0  0  0  0  0  0  0
  1  8  1  0
  8  9  1  0
  5 10  1  0
 10 11  2  0
 10 12  1  0
  9 13  2  3
 13 14  1  0
 18 20  1  0
 20 21  2  0
 20 22  1  0
  3 23  1  0
 23 24  1  0
 23 25  1  0
 25 26  2  0
  1  2  1  0
  2  3  2  0
  3  4  1  0
  4  5  2  0
  5  6  1  0
  6  7  2  0
  7  2  1  0
 14 15  2  0
 15 16  1  0
 16 17  2  0
 17 18  1  0
 18 19  2  0
 19 14  1  0
M  END

$$$$
