No_3313-gen_results/8p0m/2024-11-26-14-13-15/
     RDKit          3D

  6  5  0  0  0  0  0  0  0  0999 V2000
  -27.9505   -0.5786   29.0402 P   0  0  0  0  0  0  0  0  0  0  0  0
  -27.2401    0.0613   28.4283 O   0  0  0  0  0  0  0  0  0  0  0  0
  -29.3621   -0.5774   28.6194 O   0  0  0  0  0  0  0  0  0  0  0  0
  -27.5360   -1.7552   29.8771 O   0  0  0  0  0  0  0  0  0  0  0  0
  -28.1510    0.3776   30.4482 O   0  0  0  0  0  0  0  0  0  0  0  0
  -25.9824   -0.1795   28.3148 F   0  0  0  0  0  0  0  0  0  0  0  0
  1  2  1  0
  1  3  2  0
  1  4  1  0
  1  5  1  0
  2  6  1  0
M  END

$$$$
