No_4551-gen_results/8p0m/2024-11-26-14-13-15/
     RDKit          3D

 16 17  0  0  0  0  0  0  0  0999 V2000
  -28.0162   -0.8135   28.8779 C   0  0  0  0  0  0  0  0  0  0  0  0
  -28.4690   -0.7850   29.8287 C   0  0  0  0  0  0  0  0  0  0  0  0
  -26.5042   -0.7777   28.8766 C   0  0  0  0  0  0  0  0  0  0  0  0
  -25.6540   -0.6597   27.7191 C   0  0  0  0  0  0  0  0  0  0  0  0
  -27.9180   -0.9374   31.1824 C   0  0  0  0  0  0  0  0  0  0  0  0
  -26.5423   -0.9399   31.2606 C   0  0  0  0  0  0  0  0  0  0  0  0
  -25.7832   -0.8935   30.1201 C   0  0  0  0  0  0  0  0  0  0  0  0
  -25.2204    0.6866   27.3939 C   0  0  0  0  0  0  0  0  0  0  0  0
  -23.9014    0.8981   27.7598 C   0  0  0  0  0  0  0  0  0  0  0  0
  -23.1016    0.3129   28.6912 C   0  0  0  0  0  0  0  0  0  0  0  0
  -21.7183    0.6026   28.8792 C   0  0  0  0  0  0  0  0  0  0  0  0
  -21.1526    1.5739   28.0765 C   0  0  0  0  0  0  0  0  0  0  0  0
  -23.1839    1.9462   26.8995 C   0  0  0  0  0  0  0  0  0  0  0  0
  -21.8235    2.1840   27.1061 C   0  0  0  0  0  0  0  0  0  0  0  0
  -26.0070    1.5526   26.7132 C   0  0  0  0  0  0  0  0  0  0  0  0
  -26.4745    2.7472   27.4043 C   0  0  0  0  0  0  0  0  0  0  0  0
  3  4  1  0
  4  8  1  0
  8  9  1  0
  8 15  1  0
 15 16  1  0
  1  2  2  0
  2  5  1  0
  5  6  2  0
  6  7  1  0
  7  3  2  0
  3  1  1  0
  9 10  2  0
 10 11  1  0
 11 12  2  0
 12 14  1  0
 14 13  2  0
 13  9  1  0
M  END

$$$$
