No_4205-gen_results/8p0m/2024-11-26-14-13-15/
     RDKit          3D

 16 16  0  0  0  0  0  0  0  0999 V2000
  -28.0162   -0.8135   28.8779 C   0  0  0  0  0  0  0  0  0  0  0  0
  -27.0636   -0.1190   28.6079 C   0  0  0  0  0  0  0  0  0  0  0  0
  -26.9287    1.1713   29.0083 C   0  0  0  0  0  0  0  0  0  0  0  0
  -25.7702    2.0341   28.6884 C   0  0  0  0  0  0  0  0  0  0  0  0
  -24.7141    1.4431   27.9188 C   0  0  0  0  0  0  0  0  0  0  0  0
  -24.8590    0.0783   27.5836 C   0  0  0  0  0  0  0  0  0  0  0  0
  -25.9647   -0.6606   27.9164 C   0  0  0  0  0  0  0  0  0  0  0  0
  -29.0591   -0.5087   28.2818 F   0  0  0  0  0  0  0  0  0  0  0  0
  -27.9950   -1.8369   29.6552 F   0  0  0  0  0  0  0  0  0  0  0  0
  -23.5400    2.1438   27.5689 C   0  0  0  0  0  0  0  0  0  0  0  0
  -22.2446    1.6810   27.5315 C   0  0  0  0  0  0  0  0  0  0  0  0
  -23.8257    3.3710   26.7953 C   0  0  0  0  0  0  0  0  0  0  0  0
  -21.7710    0.9092   28.6244 C   0  0  0  0  0  0  0  0  0  0  0  0
  -22.2126    0.9928   29.6910 F   0  0  0  0  0  0  0  0  0  0  0  0
  -20.9690   -0.0589   28.3485 F   0  0  0  0  0  0  0  0  0  0  0  0
  -25.7291    3.2459   29.0131 F   0  0  0  0  0  0  0  0  0  0  0  0
  1  2  1  0
  1  8  1  0
  1  9  1  0
  5 10  1  0
 10 11  1  0
 10 12  1  0
 11 13  1  0
 13 14  1  0
 13 15  1  0
  4 16  1  0
  2  3  2  0
  3  4  1  0
  4  5  2  0
  5  6  1  0
  6  7  2  0
  7  2  1  0
M  END

$$$$
