No_4736-gen_results/8p0m/2024-11-26-14-13-15/
     RDKit          3D

 13 14  0  0  0  0  0  0  0  0999 V2000
  -28.0162   -0.8135   28.8779 C   0  0  0  0  0  0  0  0  0  0  0  0
  -27.0636   -0.1189   28.6079 C   0  0  0  0  0  0  0  0  0  0  0  0
  -25.7647   -0.3897   29.0360 C   0  0  0  0  0  0  0  0  0  0  0  0
  -25.5296   -1.5302   29.9014 C   0  0  0  0  0  0  0  0  0  0  0  0
  -26.6577   -2.2915   30.2035 C   0  0  0  0  0  0  0  0  0  0  0  0
  -27.6860   -1.9196   29.6994 C   0  0  0  0  0  0  0  0  0  0  0  0
  -24.5358    0.4438   28.7505 C   0  0  0  0  0  0  0  0  0  0  0  0
  -23.3155    0.0522   29.0115 C   0  0  0  0  0  0  0  0  0  0  0  0
  -22.1873    0.8538   28.7147 C   0  0  0  0  0  0  0  0  0  0  0  0
  -22.3642    1.6367   27.5562 C   0  0  0  0  0  0  0  0  0  0  0  0
  -24.6152    1.4730   27.7221 C   0  0  0  0  0  0  0  0  0  0  0  0
  -23.5292    2.0746   27.2138 C   0  0  0  0  0  0  0  0  0  0  0  0
  -29.1647   -2.9320   30.1955 Cl  0  0  0  0  0  0  0  0  0  0  0  0
  3  7  1  0
  6 13  1  0
  7  8  2  0
  8  9  1  0
  9 10  2  0
 10 12  1  0
 12 11  2  0
 11  7  1  0
  1  2  2  0
  2  3  1  0
  3  4  2  0
  4  5  1  0
  5  6  2  0
  6  1  1  0
M  END

$$$$
