No_4225-gen_results/8p0m/2024-11-26-14-13-15/
     RDKit          3D

 15 17  0  0  0  0  0  0  0  0999 V2000
  -28.0162   -0.8135   28.8779 C   0  0  0  0  0  0  0  0  0  0  0  0
  -27.0636   -0.1189   28.6079 C   0  0  0  0  0  0  0  0  0  0  0  0
  -25.7647   -0.3897   29.0360 C   0  0  0  0  0  0  0  0  0  0  0  0
  -25.5296   -1.5302   29.9014 C   0  0  0  0  0  0  0  0  0  0  0  0
  -26.6888   -2.2893   30.1810 C   0  0  0  0  0  0  0  0  0  0  0  0
  -27.8727   -1.9508   29.7373 C   0  0  0  0  0  0  0  0  0  0  0  0
  -29.1941   -2.9228   30.2191 Cl  0  0  0  0  0  0  0  0  0  0  0  0
  -24.5326    0.4193   28.7249 C   0  0  0  0  0  0  0  0  0  0  0  0
  -23.3426    0.1084   29.1746 C   0  0  0  0  0  0  0  0  0  0  0  0
  -22.2236    0.9007   28.8422 C   0  0  0  0  0  0  0  0  0  0  0  0
  -20.9579    0.6906   28.9068 C   0  0  0  0  0  0  0  0  0  0  0  0
  -20.7317   -0.7519   29.2315 C   0  0  0  0  0  0  0  0  0  0  0  0
  -21.7653   -1.5933   29.4748 C   0  0  0  0  0  0  0  0  0  0  0  0
  -23.0517   -1.2165   29.4148 C   0  0  0  0  0  0  0  0  0  0  0  0
  -24.2203   -2.0256   30.1721 C   0  0  0  0  0  0  0  0  0  0  0  0
  6  7  1  0
  9 10  1  0
 10 11  2  0
 11 12  1  0
 12 13  2  0
 13 14  1  0
  1  2  2  0
  2  3  1  0
  4  5  1  0
  5  6  2  0
  6  1  1  0
  3  4  2  0
  4 15  1  0
 15 14  2  0
 14  9  1  0
  9  8  2  0
  8  3  1  0
M  END

$$$$
