No_4877-gen_results/8p0m/2024-11-26-14-13-15/
     RDKit          3D

 22 24  0  0  0  0  0  0  0  0999 V2000
  -28.0162   -0.8135   28.8779 C   0  0  0  0  0  0  0  0  0  0  0  0
  -27.0636   -0.1190   28.6079 C   0  0  0  0  0  0  0  0  0  0  0  0
  -26.9716    0.7139   27.5060 C   0  0  0  0  0  0  0  0  0  0  0  0
  -28.1053    0.7744   26.6421 C   0  0  0  0  0  0  0  0  0  0  0  0
  -29.2008    0.1044   27.0527 C   0  0  0  0  0  0  0  0  0  0  0  0
  -29.2096   -0.6029   28.1853 C   0  0  0  0  0  0  0  0  0  0  0  0
  -30.3702    0.2264   26.1604 C   0  0  0  0  0  0  0  0  0  0  0  0
  -31.3165   -0.4572   26.3805 N   0  0  0  0  0  0  0  0  0  0  0  0
  -30.3103    1.0586   24.9663 C   0  0  0  0  0  0  0  0  0  0  0  0
  -25.7049   -0.2404   29.4276 C   0  0  0  0  0  0  0  0  0  0  0  0
  -25.3159    0.5025   30.0090 O   0  0  0  0  0  0  0  0  0  0  0  0
  -24.9194   -1.3632   29.0590 O   0  0  0  0  0  0  0  0  0  0  0  0
  -29.5027    1.9835   24.8520 C   0  0  0  0  0  0  0  0  0  0  0  0
  -28.0925    1.7952   25.6040 C   0  0  0  0  0  0  0  0  0  0  0  0
  -31.7931   -1.0323   27.3617 C   0  0  0  0  0  0  0  0  0  0  0  0
  -32.6121   -0.7693   27.8999 C   0  0  0  0  0  0  0  0  0  0  0  0
  -33.1729   -1.3339   29.1652 C   0  0  0  0  0  0  0  0  0  0  0  0
  -32.5642   -2.4710   29.6112 C   0  0  0  0  0  0  0  0  0  0  0  0
  -31.5095   -2.9920   28.9394 C   0  0  0  0  0  0  0  0  0  0  0  0
  -31.0580   -2.3093   27.8041 C   0  0  0  0  0  0  0  0  0  0  0  0
  -30.8562   -4.1211   29.3195 O   0  0  0  0  0  0  0  0  0  0  0  0
  -32.4436   -0.3485   25.3787 C   0  0  0  0  0  0  0  0  0  0  0  0
  7  8  1  0
  2 10  1  0
 10 11  2  0
 10 12  1  0
  8 15  1  0
 19 21  1  0
  8 22  1  0
  5  7  1  0
  7  9  2  0
  9 13  1  0
 13 14  2  0
 14  4  1  0
  1  2  2  0
  2  3  1  0
  3  4  2  0
  4  5  1  0
  5  6  2  0
  6  1  1  0
 15 16  2  0
 16 17  1  0
 17 18  2  0
 18 19  1  0
 19 20  2  0
 20 15  1  0
M  END

$$$$
