No_4390-gen_results/8p0m/2024-11-26-14-13-15/
     RDKit          3D

 18 19  0  0  0  0  0  0  0  0999 V2000
  -28.0727   -1.2542   28.5316 F   0  0  0  0  0  0  0  0  0  0  0  0
  -27.3591   -0.3792   28.7224 C   0  0  0  0  0  0  0  0  0  0  0  0
  -26.8100    0.1885   27.6513 C   0  0  0  0  0  0  0  0  0  0  0  0
  -27.9678    0.6937   29.6182 C   0  0  0  0  0  0  0  0  0  0  0  0
  -26.3101   -0.9058   29.5296 F   0  0  0  0  0  0  0  0  0  0  0  0
  -27.4661    1.0098   26.7252 C   0  0  0  0  0  0  0  0  0  0  0  0
  -28.7831    1.6313   28.9248 C   0  0  0  0  0  0  0  0  0  0  0  0
  -28.2696    2.0148   27.5339 C   0  0  0  0  0  0  0  0  0  0  0  0
  -25.5534   -0.2419   27.1349 O   0  0  0  0  0  0  0  0  0  0  0  0
  -24.3958    0.3949   27.6051 C   0  0  0  0  0  0  0  0  0  0  0  0
  -23.5532   -0.1197   28.6155 C   0  0  0  0  0  0  0  0  0  0  0  0
  -22.3889    0.5337   29.0243 C   0  0  0  0  0  0  0  0  0  0  0  0
  -21.9229    1.5874   28.2688 C   0  0  0  0  0  0  0  0  0  0  0  0
  -23.9501    1.5387   26.9312 C   0  0  0  0  0  0  0  0  0  0  0  0
  -22.7227    2.1269   27.2402 C   0  0  0  0  0  0  0  0  0  0  0  0
  -28.9509    2.9052   29.7586 C   0  0  0  0  0  0  0  0  0  0  0  0
  -29.9706    3.6105   29.4603 C   0  0  0  0  0  0  0  0  0  0  0  0
  -30.9245    3.2627   28.5235 C   0  0  0  0  0  0  0  0  0  0  0  0
  1  2  1  0
  2  3  1  0
  2  4  1  0
  2  5  1  0
  3  6  1  0
  4  7  2  0
  6  8  1  0
  7  8  1  0
  3  9  1  0
  9 10  1  0
  7 16  1  0
 16 17  2  3
 17 18  1  0
 10 11  2  0
 11 12  1  0
 12 13  2  0
 13 15  1  0
 15 14  2  0
 14 10  1  0
M  END

$$$$
