No_4178-gen_results/8p0m/2024-11-26-14-13-15/
     RDKit          3D

 14 15  0  0  0  0  0  0  0  0999 V2000
  -28.0727   -1.2542   28.5316 F   0  0  0  0  0  0  0  0  0  0  0  0
  -27.3591   -0.3792   28.7224 C   0  0  0  0  0  0  0  0  0  0  0  0
  -27.7014    0.7608   29.1249 C   0  0  0  0  0  0  0  0  0  0  0  0
  -25.8844   -0.6918   28.4374 C   0  0  0  0  0  0  0  0  0  0  0  0
  -24.9212    0.3779   28.6013 C   0  0  0  0  0  0  0  0  0  0  0  0
  -26.7628    1.7840   29.2611 C   0  0  0  0  0  0  0  0  0  0  0  0
  -25.3840    1.6194   29.0028 C   0  0  0  0  0  0  0  0  0  0  0  0
  -23.2882    0.1388   28.3300 Cl  0  0  0  0  0  0  0  0  0  0  0  0
  -27.0955    3.2098   29.7002 C   0  0  0  0  0  0  0  0  0  0  0  0
  -27.8676    3.9249   29.0637 C   0  0  0  0  0  0  0  0  0  0  0  0
  -28.1727    5.3194   29.4705 C   0  0  0  0  0  0  0  0  0  0  0  0
  -27.5762    5.8274   30.6105 C   0  0  0  0  0  0  0  0  0  0  0  0
  -26.4064    3.7323   30.8840 C   0  0  0  0  0  0  0  0  0  0  0  0
  -26.6583    5.0215   31.3260 C   0  0  0  0  0  0  0  0  0  0  0  0
  1  2  1  0
  5  8  1  0
  6  9  1  0
  2  3  2  0
  3  6  1  0
  6  7  2  0
  7  5  1  0
  5  4  2  0
  4  2  1  0
  9 10  2  0
 10 11  1  0
 11 12  2  0
 12 14  1  0
 14 13  2  0
 13  9  1  0
M  END

$$$$
