No_4201-gen_results/8p0m/2024-11-26-14-13-15/
     RDKit          3D

 18 18  0  0  0  0  0  0  0  0999 V2000
  -28.0727   -1.2542   28.5316 F   0  0  0  0  0  0  0  0  0  0  0  0
  -27.0607   -0.6291   28.8721 C   0  0  0  0  0  0  0  0  0  0  0  0
  -26.1528   -1.1557   29.4537 C   0  0  0  0  0  0  0  0  0  0  0  0
  -24.8778   -0.5788   29.8639 C   0  0  0  0  0  0  0  0  0  0  0  0
  -24.7426    0.8273   29.4808 C   0  0  0  0  0  0  0  0  0  0  0  0
  -25.7883    1.3927   28.7628 C   0  0  0  0  0  0  0  0  0  0  0  0
  -26.9145    0.7309   28.4427 C   0  0  0  0  0  0  0  0  0  0  0  0
  -25.6039    2.6973   28.4244 F   0  0  0  0  0  0  0  0  0  0  0  0
  -26.1897   -2.4943   29.9052 O   0  0  0  0  0  0  0  0  0  0  0  0
  -25.3943   -3.4242   29.2283 C   0  0  0  0  0  0  0  0  0  0  0  0
  -24.2255   -2.9985   28.6941 C   0  0  0  0  0  0  0  0  0  0  0  0
  -25.8559   -4.7804   29.2943 C   0  0  0  0  0  0  0  0  0  0  0  0
  -26.9658   -4.9903   29.9207 O   0  0  0  0  0  0  0  0  0  0  0  0
  -25.2455   -5.6668   28.8215 O   0  0  0  0  0  0  0  0  0  0  0  0
  -23.5034    1.5225   29.8841 C   0  0  0  0  0  0  0  0  0  0  0  0
  -23.1429    1.4910   31.0122 O   0  0  0  0  0  0  0  0  0  0  0  0
  -22.8435    2.1154   28.9655 O   0  0  0  0  0  0  0  0  0  0  0  0
  -27.8877    1.3235   27.7321 O   0  0  0  0  0  0  0  0  0  0  0  0
  1  2  1  0
  3  4  1  0
  5  6  1  0
  2  7  1  0
  6  7  1  0
  6  8  1  0
  3  9  1  0
  9 10  1  0
 10 11  2  0
 10 12  1  0
 12 13  1  0
 12 14  2  0
  5 15  1  0
 15 16  1  0
 15 17  2  0
  7 18  2  0
  2  3  1  0
  4  5  1  0
M  END

$$$$
