No_4985-gen_results/8p0m/2024-11-26-14-13-15/
     RDKit          3D

 35 37  0  0  0  0  0  0  0  0999 V2000
  -28.0162   -0.8135   28.8779 C   0  0  0  0  0  0  0  0  0  0  0  0
  -27.0636   -0.1189   28.6079 C   0  0  0  0  0  0  0  0  0  0  0  0
  -25.7923   -0.4302   29.0761 C   0  0  0  0  0  0  0  0  0  0  0  0
  -24.5456    0.3494   28.8225 C   0  0  0  0  0  0  0  0  0  0  0  0
  -24.6586    1.4196   27.8878 C   0  0  0  0  0  0  0  0  0  0  0  0
  -25.9471    1.6811   27.3792 C   0  0  0  0  0  0  0  0  0  0  0  0
  -27.0439    0.9739   27.6871 C   0  0  0  0  0  0  0  0  0  0  0  0
  -28.6643   -0.5274   30.1017 N   0  0  0  0  0  0  0  0  0  0  0  0
  -29.6646   -0.3963   30.4406 C   0  0  0  0  0  0  0  0  0  0  0  0
  -30.5800   -0.4891   29.5997 O   0  0  0  0  0  0  0  0  0  0  0  0
  -30.0636   -0.0013   31.9105 C   0  0  0  0  0  0  0  0  0  0  0  0
  -23.4544    2.1690   27.5969 C   0  0  0  0  0  0  0  0  0  0  0  0
  -22.2554    1.7562   28.0726 N   0  0  0  0  0  0  0  0  0  0  0  0
  -23.5034    3.0264   26.6737 O   0  0  0  0  0  0  0  0  0  0  0  0
  -29.3388   -0.4398   32.7684 C   0  0  0  0  0  0  0  0  0  0  0  0
  -27.8683   -0.3170   32.5756 C   0  0  0  0  0  0  0  0  0  0  0  0
  -27.4741   -0.6461   31.2628 C   0  0  0  0  0  0  0  0  0  0  0  0
  -28.5112    1.4418   26.9661 Cl  0  0  0  0  0  0  0  0  0  0  0  0
  -22.0185    0.8132   28.9969 C   0  0  0  0  0  0  0  0  0  0  0  0
  -23.2337   -0.0158   29.3843 C   0  0  0  0  0  0  0  0  0  0  0  0
  -31.3759    0.3428   32.0745 O   0  0  0  0  0  0  0  0  0  0  0  0
  -23.0598   -1.1255   30.2680 C   0  0  0  0  0  0  0  0  0  0  0  0
  -23.2193   -2.1956   30.1418 N   0  0  0  0  0  0  0  0  0  0  0  0
  -22.6514   -0.7254   31.4457 O   0  0  0  0  0  0  0  0  0  0  0  0
  -23.9283   -2.8496   29.0151 C   0  0  0  0  0  0  0  0  0  0  0  0
  -24.4571   -4.1807   29.2939 C   0  0  0  0  0  0  0  0  0  0  0  0
  -24.1581   -5.2050   28.7632 C   0  0  0  0  0  0  0  0  0  0  0  0
  -23.3144   -5.1405   27.7292 F   0  0  0  0  0  0  0  0  0  0  0  0
  -24.6565   -6.3753   28.9733 F   0  0  0  0  0  0  0  0  0  0  0  0
  -31.6392    1.0567   33.0065 C   0  0  0  0  0  0  0  0  0  0  0  0
  -32.6728    1.9511   32.8356 C   0  0  0  0  0  0  0  0  0  0  0  0
  -33.3935    2.0669   31.8022 C   0  0  0  0  0  0  0  0  0  0  0  0
  -34.4476    3.0403   31.5511 C   0  0  0  0  0  0  0  0  0  0  0  0
  -34.6985    3.9179   32.6083 C   0  0  0  0  0  0  0  0  0  0  0  0
  -33.9934    3.8691   33.7701 C   0  0  0  0  0  0  0  0  0  0  0  0
  1  2  1  0
  1  8  1  0
  8  9  1  0
  9 10  2  0
  9 11  1  0
  5 12  1  0
 12 13  1  0
 12 14  2  0
 11 15  1  0
  8 17  1  0
 16 17  1  0
  7 18  1  0
 13 19  1  0
  4 20  1  0
 11 21  1  0
 20 22  1  0
 22 23  1  0
 22 24  2  0
 23 25  1  0
 25 26  1  0
 26 27  1  0
 27 28  1  0
 27 29  1  0
 21 30  1  0
 30 31  2  3
 31 32  1  0
 32 33  1  0
 33 34  2  3
 34 35  1  0
 15 16  1  0
 20 19  1  0
  2  3  2  0
  3  4  1  0
  4  5  2  0
  5  6  1  0
  6  7  2  0
  7  2  1  0
M  END

$$$$
