No_4899-gen_results/8p0m/2024-11-26-14-13-15/
     RDKit          3D

 11 10  0  0  0  0  0  0  0  0999 V2000
  -28.1229   -1.3353   28.4874 O   0  0  0  0  0  0  0  0  0  0  0  0
  -27.4806   -0.4044   28.7094 C   0  0  0  0  0  0  0  0  0  0  0  0
  -26.3804   -0.0867   27.9394 C   0  0  0  0  0  0  0  0  0  0  0  0
  -27.6664    0.4468   29.8988 N   0  0  0  0  0  0  0  0  0  0  0  0
  -25.1773   -0.4388   28.3946 C   0  0  0  0  0  0  0  0  0  0  0  0
  -26.5259    0.6036   26.6867 C   0  0  0  0  0  0  0  0  0  0  0  0
  -24.1813    0.0892   28.4567 C   0  0  0  0  0  0  0  0  0  0  0  0
  -23.5262    1.0294   28.1201 C   0  0  0  0  0  0  0  0  0  0  0  0
  -22.1561    1.4810   28.1969 C   0  0  0  0  0  0  0  0  0  0  0  0
  -21.3511    0.5439   28.7590 C   0  0  0  0  0  0  0  0  0  0  0  0
  -21.7886   -0.7133   29.2164 C   0  0  0  0  0  0  0  0  0  0  0  0
  1  2  2  0
  2  3  1  0
  2  4  1  0
  3  5  1  0
  3  6  1  0
  5  7  2  3
  7  8  1  0
  8  9  2  3
  9 10  1  0
 10 11  2  0
M  END

$$$$
