No_4328-gen_results/8p0m/2024-11-26-14-13-15/
     RDKit          3D

 13 13  0  0  0  0  0  0  0  0999 V2000
  -28.0162   -0.8135   28.8779 C   0  0  0  0  0  0  0  0  0  0  0  0
  -28.4690   -0.7850   29.8287 C   0  0  0  0  0  0  0  0  0  0  0  0
  -28.1960    0.3478   28.0550 C   0  0  0  0  0  0  0  0  0  0  0  0
  -29.0191    1.3501   28.3782 C   0  0  0  0  0  0  0  0  0  0  0  0
  -29.4107    0.1803   30.3782 C   0  0  0  0  0  0  0  0  0  0  0  0
  -29.6059    1.2495   29.6193 C   0  0  0  0  0  0  0  0  0  0  0  0
  -27.3479    0.2333   26.8118 C   0  0  0  0  0  0  0  0  0  0  0  0
  -25.8997    0.2741   26.9020 C   0  0  0  0  0  0  0  0  0  0  0  0
  -25.2396   -0.1102   28.0242 C   0  0  0  0  0  0  0  0  0  0  0  0
  -23.8346   -0.0399   28.0875 C   0  0  0  0  0  0  0  0  0  0  0  0
  -23.1185   -0.5441   29.2150 C   0  0  0  0  0  0  0  0  0  0  0  0
  -23.7677   -1.4060   30.0703 C   0  0  0  0  0  0  0  0  0  0  0  0
  -25.1327   -1.6155   29.9763 C   0  0  0  0  0  0  0  0  0  0  0  0
  3  7  1  0
  7  8  1  0
  8  9  2  3
  9 10  1  0
 10 11  1  0
 11 12  2  3
 12 13  1  0
  1  2  2  0
  2  5  1  0
  5  6  2  0
  6  4  1  0
  4  3  2  0
  3  1  1  0
M  END

$$$$
