No_4314-gen_results/8p0m/2024-11-26-14-13-15/
     RDKit          3D

 35 37  0  0  0  0  0  0  0  0999 V2000
  -28.0162   -0.8135   28.8779 C   0  0  0  0  0  0  0  0  0  0  0  0
  -28.4690   -0.7850   29.8287 C   0  0  0  0  0  0  0  0  0  0  0  0
  -27.1356    0.2359   28.5352 C   0  0  0  0  0  0  0  0  0  0  0  0
  -26.8745    1.2825   29.3982 C   0  0  0  0  0  0  0  0  0  0  0  0
  -28.3613    0.1987   30.9244 C   0  0  0  0  0  0  0  0  0  0  0  0
  -27.5277    1.2234   30.6356 C   0  0  0  0  0  0  0  0  0  0  0  0
  -26.3987    0.2949   27.2279 C   0  0  0  0  0  0  0  0  0  0  0  0
  -25.0392    0.2356   27.3538 C   0  0  0  0  0  0  0  0  0  0  0  0
  -24.4371    0.0057   28.5832 C   0  0  0  0  0  0  0  0  0  0  0  0
  -23.2757    0.6117   28.9811 C   0  0  0  0  0  0  0  0  0  0  0  0
  -22.4573    0.1288   30.0522 C   0  0  0  0  0  0  0  0  0  0  0  0
  -23.0915   -0.7308   30.9485 C   0  0  0  0  0  0  0  0  0  0  0  0
  -24.7874   -1.0051   29.5819 C   0  0  0  0  0  0  0  0  0  0  0  0
  -24.1046   -1.3675   30.6512 C   0  0  0  0  0  0  0  0  0  0  0  0
  -27.1067    0.4696   26.0537 C   0  0  0  0  0  0  0  0  0  0  0  0
  -26.4580    0.1623   25.0380 F   0  0  0  0  0  0  0  0  0  0  0  0
  -27.4252    1.7949   25.9029 F   0  0  0  0  0  0  0  0  0  0  0  0
  -28.3297   -0.1330   26.0049 F   0  0  0  0  0  0  0  0  0  0  0  0
  -27.2250    2.4008   31.4620 C   0  0  0  0  0  0  0  0  0  0  0  0
  -27.2289    2.3659   32.6396 O   0  0  0  0  0  0  0  0  0  0  0  0
  -26.8902    3.5554   30.8457 O   0  0  0  0  0  0  0  0  0  0  0  0
  -22.6028    1.6700   28.0906 C   0  0  0  0  0  0  0  0  0  0  0  0
  -23.2932    2.6074   27.6844 O   0  0  0  0  0  0  0  0  0  0  0  0
  -21.3852    1.5533   27.7549 O   0  0  0  0  0  0  0  0  0  0  0  0
  -29.5061   -1.9191   30.3201 C   0  0  0  0  0  0  0  0  0  0  0  0
  -28.9758   -3.0164   30.2008 F   0  0  0  0  0  0  0  0  0  0  0  0
  -29.8027   -1.7674   31.6302 F   0  0  0  0  0  0  0  0  0  0  0  0
  -30.6126   -1.8656   29.6372 F   0  0  0  0  0  0  0  0  0  0  0  0
  -27.5677    4.3684   30.3244 C   0  0  0  0  0  0  0  0  0  0  0  0
  -27.1326    4.8096   29.0418 C   0  0  0  0  0  0  0  0  0  0  0  0
  -27.9823    5.6359   28.2248 C   0  0  0  0  0  0  0  0  0  0  0  0
  -27.5872    5.9455   26.9603 C   0  0  0  0  0  0  0  0  0  0  0  0
  -26.3542    5.4107   26.4404 C   0  0  0  0  0  0  0  0  0  0  0  0
  -25.5243    4.5943   27.2005 C   0  0  0  0  0  0  0  0  0  0  0  0
  -25.9330    4.3187   28.4645 C   0  0  0  0  0  0  0  0  0  0  0  0
  3  7  1  0
  7  8  2  3
  8  9  1  0
  7 15  1  0
 15 16  1  0
 15 17  1  0
 15 18  1  0
  6 19  1  0
 19 20  2  0
 19 21  1  0
 10 22  1  0
 22 23  2  0
 22 24  1  0
  2 25  1  0
 25 26  1  0
 25 27  1  0
 25 28  1  0
 21 29  1  0
 29 30  1  0
 30 31  2  0
 31 32  1  0
 32 33  2  0
 33 34  1  0
 34 35  2  0
 35 30  1  0
  1  2  2  0
  2  5  1  0
  5  6  2  0
  6  4  1  0
  4  3  2  0
  3  1  1  0
  9 10  2  0
 10 11  1  0
 11 12  2  0
 12 14  1  0
 14 13  2  0
 13  9  1  0
M  END

$$$$
