No_4105-gen_results/8p0m/2024-11-26-14-13-15/
     RDKit          3D

 17 19  0  0  0  0  0  0  0  0999 V2000
  -28.1229   -1.3353   28.4874 O   0  0  0  0  0  0  0  0  0  0  0  0
  -27.0637   -0.8242   28.8687 C   0  0  0  0  0  0  0  0  0  0  0  0
  -26.4017   -0.0623   28.6224 C   0  0  0  0  0  0  0  0  0  0  0  0
  -26.5721   -1.5844   30.1172 N   0  0  0  0  0  0  0  0  0  0  0  0
  -25.0209    0.3562   29.0444 C   0  0  0  0  0  0  0  0  0  0  0  0
  -24.6541   -0.3468   30.2523 C   0  0  0  0  0  0  0  0  0  0  0  0
  -23.3221   -0.0701   30.8643 C   0  0  0  0  0  0  0  0  0  0  0  0
  -25.4506   -1.3868   30.7776 C   0  0  0  0  0  0  0  0  0  0  0  0
  -26.6822    0.8147   27.3370 C   0  0  0  0  0  0  0  0  0  0  0  0
  -27.3569    0.4824   26.6377 O   0  0  0  0  0  0  0  0  0  0  0  0
  -26.2706    2.1673   27.3652 N   0  0  0  0  0  0  0  0  0  0  0  0
  -25.4591    2.7706   28.3756 C   0  0  0  0  0  0  0  0  0  0  0  0
  -24.6109    1.8151   29.1337 C   0  0  0  0  0  0  0  0  0  0  0  0
  -22.8325    1.1059   30.8123 O   0  0  0  0  0  0  0  0  0  0  0  0
  -23.4007    2.0162   29.7319 C   0  0  0  0  0  0  0  0  0  0  0  0
  -25.2288    3.9548   28.5352 O   0  0  0  0  0  0  0  0  0  0  0  0
  -26.8617    3.1111   26.4684 C   0  0  0  0  0  0  0  0  0  0  0  0
  1  2  2  0
  2  3  1  0
  2  4  1  0
  3  5  1  0
  6  7  1  0
  6  8  1  0
  3  9  1  0
  9 10  2  0
  9 11  1  0
 11 12  1  0
  5 13  1  0
 12 13  1  0
  7 14  1  0
 13 15  1  0
 14 15  1  0
 12 16  2  0
 11 17  1  0
  5  6  1  0
  8  4  1  0
M  END

$$$$
