No_4437-gen_results/8p0m/2024-11-26-14-13-15/
     RDKit          3D

 10 10  0  0  0  0  0  0  0  0999 V2000
  -28.0162   -0.8135   28.8779 C   0  0  0  0  0  0  0  0  0  0  0  0
  -27.1876   -0.3590   28.4524 N   0  0  0  0  0  0  0  0  0  0  0  0
  -28.1059   -1.6261   30.0720 C   0  0  0  0  0  0  0  0  0  0  0  0
  -26.7940   -1.9729   30.6057 C   0  0  0  0  0  0  0  0  0  0  0  0
  -25.6390   -1.4719   30.0298 C   0  0  0  0  0  0  0  0  0  0  0  0
  -25.8378   -0.6143   28.9259 C   0  0  0  0  0  0  0  0  0  0  0  0
  -24.7628   -0.0359   28.3886 O   0  0  0  0  0  0  0  0  0  0  0  0
  -29.2555   -2.2516   30.6781 C   0  0  0  0  0  0  0  0  0  0  0  0
  -29.4511   -2.2050   31.8836 O   0  0  0  0  0  0  0  0  0  0  0  0
  -30.0221   -2.9134   29.8787 O   0  0  0  0  0  0  0  0  0  0  0  0
  1  3  1  0
  3  4  1  0
  4  5  1  0
  2  6  1  0
  5  6  1  0
  6  7  2  0
  3  8  1  0
  8  9  2  0
  8 10  1  0
  2  1  1  0
M  END

$$$$
