No_4839-gen_results/8p0m/2024-11-26-14-13-15/
     RDKit          3D

 35 37  0  0  0  0  0  0  0  0999 V2000
  -28.0162   -0.8135   28.8779 C   0  0  0  0  0  0  0  0  0  0  0  0
  -28.4690   -0.7850   29.8287 C   0  0  0  0  0  0  0  0  0  0  0  0
  -28.1960    0.3478   28.0550 C   0  0  0  0  0  0  0  0  0  0  0  0
  -29.0191    1.3501   28.3782 C   0  0  0  0  0  0  0  0  0  0  0  0
  -29.4107    0.1803   30.3782 C   0  0  0  0  0  0  0  0  0  0  0  0
  -29.6059    1.2495   29.6193 C   0  0  0  0  0  0  0  0  0  0  0  0
  -27.4478    0.3799   26.7122 C   0  0  0  0  0  0  0  0  0  0  0  0
  -25.9806    0.2548   26.7837 C   0  0  0  0  0  0  0  0  0  0  0  0
  -25.1964    1.0470   25.9940 C   0  0  0  0  0  0  0  0  0  0  0  0
  -23.8162    1.1039   26.1817 C   0  0  0  0  0  0  0  0  0  0  0  0
  -23.2215    0.6281   27.3851 C   0  0  0  0  0  0  0  0  0  0  0  0
  -24.0826   -0.0651   28.2761 C   0  0  0  0  0  0  0  0  0  0  0  0
  -25.4322   -0.1919   28.0477 C   0  0  0  0  0  0  0  0  0  0  0  0
  -23.4437   -0.5525   29.5238 C   0  0  0  0  0  0  0  0  0  0  0  0
  -23.5040   -1.7814   29.6615 O   0  0  0  0  0  0  0  0  0  0  0  0
  -22.4447    0.1549   30.0171 O   0  0  0  0  0  0  0  0  0  0  0  0
  -28.1066    0.3834   25.5292 C   0  0  0  0  0  0  0  0  0  0  0  0
  -28.5895   -0.3080   24.8739 O   0  0  0  0  0  0  0  0  0  0  0  0
  -27.9266    1.7579   24.9365 O   0  0  0  0  0  0  0  0  0  0  0  0
  -30.6872    2.1904   30.0760 C   0  0  0  0  0  0  0  0  0  0  0  0
  -30.6475    3.3449   29.8991 O   0  0  0  0  0  0  0  0  0  0  0  0
  -31.4696    1.7187   30.9811 O   0  0  0  0  0  0  0  0  0  0  0  0
  -28.3011   -1.9894   30.9022 C   0  0  0  0  0  0  0  0  0  0  0  0
  -27.9547   -1.7914   31.9513 O   0  0  0  0  0  0  0  0  0  0  0  0
  -28.4945   -3.1651   30.3582 O   0  0  0  0  0  0  0  0  0  0  0  0
  -29.3746   -3.9941   30.7608 C   0  0  0  0  0  0  0  0  0  0  0  0
  -30.2106   -4.4817   29.7069 C   0  0  0  0  0  0  0  0  0  0  0  0
  -30.8569   -5.6393   30.0169 N   0  0  0  0  0  0  0  0  0  0  0  0
  -31.5902   -6.2615   29.1168 C   0  0  0  0  0  0  0  0  0  0  0  0
  -30.8648   -6.2126   31.3160 C   0  0  0  0  0  0  0  0  0  0  0  0
  -30.0116   -5.7740   32.3273 C   0  0  0  0  0  0  0  0  0  0  0  0
  -29.1965   -4.6518   32.0209 C   0  0  0  0  0  0  0  0  0  0  0  0
  -31.8051   -7.5777   28.9385 C   0  0  0  0  0  0  0  0  0  0  0  0
  -32.4393   -8.1734   27.8435 C   0  0  0  0  0  0  0  0  0  0  0  0
  -32.7439   -7.3415   26.7298 C   0  0  0  0  0  0  0  0  0  0  0  0
  3  7  1  0
  7  8  1  0
 12 14  1  0
 14 15  2  0
 14 16  1  0
  7 17  1  0
 17 18  2  0
 17 19  1  0
  6 20  1  0
 20 21  2  0
 20 22  1  0
  2 23  1  0
 23 24  2  0
 23 25  1  0
 25 26  1  0
 26 27  1  0
 27 28  1  0
 28 29  1  0
 28 30  1  0
 26 32  1  0
 31 32  1  0
 29 33  2  3
 33 34  1  0
 34 35  2  0
 31 30  1  0
  8  9  2  0
  9 10  1  0
 10 11  2  0
 11 12  1  0
 12 13  2  0
 13  8  1  0
  1  2  2  0
  2  5  1  0
  5  6  2  0
  6  4  1  0
  4  3  2  0
  3  1  1  0
M  END

$$$$
