No_4557-gen_results/8p0m/2024-11-26-14-13-15/
     RDKit          3D

 14 14  0  0  0  0  0  0  0  0999 V2000
  -28.1229   -1.3353   28.4874 O   0  0  0  0  0  0  0  0  0  0  0  0
  -27.0637   -0.8242   28.8687 C   0  0  0  0  0  0  0  0  0  0  0  0
  -26.9592    0.0926   29.7582 C   0  0  0  0  0  0  0  0  0  0  0  0
  -25.9002   -1.3969   28.3552 F   0  0  0  0  0  0  0  0  0  0  0  0
  -25.6945    0.7127   30.0607 C   0  0  0  0  0  0  0  0  0  0  0  0
  -25.0067    1.3447   29.6632 C   0  0  0  0  0  0  0  0  0  0  0  0
  -23.6088    1.7354   30.0536 C   0  0  0  0  0  0  0  0  0  0  0  0
  -22.8808    2.4453   29.3051 O   0  0  0  0  0  0  0  0  0  0  0  0
  -25.3441    2.0398   28.3001 C   0  0  0  0  0  0  0  0  0  0  0  0
  -26.0038    1.6912   27.5724 C   0  0  0  0  0  0  0  0  0  0  0  0
  -26.2780    1.9190   26.5192 C   0  0  0  0  0  0  0  0  0  0  0  0
  -25.4784    3.0696   26.0300 C   0  0  0  0  0  0  0  0  0  0  0  0
  -24.5420    3.6365   26.7558 C   0  0  0  0  0  0  0  0  0  0  0  0
  -24.3475    3.1717   27.9444 C   0  0  0  0  0  0  0  0  0  0  0  0
  1  2  2  0
  2  3  1  0
  2  4  1  0
  3  5  1  0
  5  6  2  3
  6  7  1  0
  7  8  1  0
  6  9  1  0
  9 10  2  0
 10 11  1  0
 11 12  2  0
 12 13  1  0
 13 14  2  0
 14  9  1  0
M  END

$$$$
