No_4717-gen_results/8p0m/2024-11-26-14-13-15/
     RDKit          3D

 13 14  0  0  0  0  0  0  0  0999 V2000
  -28.0162   -0.8135   28.8779 C   0  0  0  0  0  0  0  0  0  0  0  0
  -28.4690   -0.7850   29.8287 C   0  0  0  0  0  0  0  0  0  0  0  0
  -27.0871    0.2903   28.6377 C   0  0  0  0  0  0  0  0  0  0  0  0
  -26.7676    1.0274   29.4716 C   0  0  0  0  0  0  0  0  0  0  0  0
  -28.2297   -0.0552   30.8514 C   0  0  0  0  0  0  0  0  0  0  0  0
  -27.3275    0.9827   30.7496 C   0  0  0  0  0  0  0  0  0  0  0  0
  -25.8315    2.0663   29.2532 O   0  0  0  0  0  0  0  0  0  0  0  0
  -25.0315    2.1232   28.2331 C   0  0  0  0  0  0  0  0  0  0  0  0
  -25.3681    2.4097   27.0504 C   0  0  0  0  0  0  0  0  0  0  0  0
  -23.6331    1.6537   28.4514 C   0  0  0  0  0  0  0  0  0  0  0  0
  -22.6636    1.6631   27.4241 C   0  0  0  0  0  0  0  0  0  0  0  0
  -24.4387    2.4156   25.9353 C   0  0  0  0  0  0  0  0  0  0  0  0
  -23.1041    2.0659   26.1492 C   0  0  0  0  0  0  0  0  0  0  0  0
  4  7  1  0
  7  8  1  0
  8  9  2  0
  9 12  1  0
 12 13  2  0
 13 11  1  0
 11 10  2  0
 10  8  1  0
  1  2  2  0
  2  5  1  0
  5  6  2  0
  6  4  1  0
  4  3  2  0
  3  1  1  0
M  END

$$$$
