No_4385-gen_results/8p0m/2024-11-26-14-13-15/
     RDKit          3D

 35 39  0  0  0  0  0  0  0  0999 V2000
  -28.0162   -0.8135   28.8779 C   0  0  0  0  0  0  0  0  0  0  0  0
  -28.4690   -0.7850   29.8287 C   0  0  0  0  0  0  0  0  0  0  0  0
  -27.0871    0.2903   28.6377 C   0  0  0  0  0  0  0  0  0  0  0  0
  -26.2516    0.4114   27.4223 C   0  0  0  0  0  0  0  0  0  0  0  0
  -28.3913    0.1041   30.9805 C   0  0  0  0  0  0  0  0  0  0  0  0
  -27.5332    1.1666   30.7866 C   0  0  0  0  0  0  0  0  0  0  0  0
  -26.8281    1.2557   29.6454 C   0  0  0  0  0  0  0  0  0  0  0  0
  -24.9667    0.4106   27.5253 C   0  0  0  0  0  0  0  0  0  0  0  0
  -24.1811    1.0731   26.4795 C   0  0  0  0  0  0  0  0  0  0  0  0
  -24.7860    1.2411   25.2421 C   0  0  0  0  0  0  0  0  0  0  0  0
  -26.8048    0.6490   26.1466 C   0  0  0  0  0  0  0  0  0  0  0  0
  -26.1193    1.0534   25.1188 C   0  0  0  0  0  0  0  0  0  0  0  0
  -28.2577    0.4014   25.9237 C   0  0  0  0  0  0  0  0  0  0  0  0
  -29.1014    0.7346   26.6930 O   0  0  0  0  0  0  0  0  0  0  0  0
  -28.5696   -0.1714   24.8744 O   0  0  0  0  0  0  0  0  0  0  0  0
  -25.9560    2.4060   29.4301 C   0  0  0  0  0  0  0  0  0  0  0  0
  -26.2308    3.5221   30.1948 C   0  0  0  0  0  0  0  0  0  0  0  0
  -26.6959    4.4345   29.7944 C   0  0  0  0  0  0  0  0  0  0  0  0
  -26.8790    5.7184   30.5522 C   0  0  0  0  0  0  0  0  0  0  0  0
  -26.3968    5.7535   31.8376 C   0  0  0  0  0  0  0  0  0  0  0  0
  -25.5758    3.5859   31.5659 C   0  0  0  0  0  0  0  0  0  0  0  0
  -25.6707    4.6883   32.3679 C   0  0  0  0  0  0  0  0  0  0  0  0
  -27.2765    4.5818   28.4267 C   0  0  0  0  0  0  0  0  0  0  0  0
  -28.4072    5.2257   28.2115 C   0  0  0  0  0  0  0  0  0  0  0  0
  -26.5115    4.0895   27.3430 C   0  0  0  0  0  0  0  0  0  0  0  0
  -29.0550    5.1220   26.9522 C   0  0  0  0  0  0  0  0  0  0  0  0
  -27.0630    4.1332   26.0166 C   0  0  0  0  0  0  0  0  0  0  0  0
  -28.3166    4.6399   25.8668 C   0  0  0  0  0  0  0  0  0  0  0  0
  -26.4483    7.0143   32.6776 C   0  0  0  0  0  0  0  0  0  0  0  0
  -27.3663    7.6589   32.7721 C   0  0  0  0  0  0  0  0  0  0  0  0
  -27.4160    8.9074   33.5790 C   0  0  0  0  0  0  0  0  0  0  0  0
  -25.0932    7.5095   32.9936 C   0  0  0  0  0  0  0  0  0  0  0  0
  -25.0735    8.6966   33.8360 C   0  0  0  0  0  0  0  0  0  0  0  0
  -26.1982    9.3866   34.0766 C   0  0  0  0  0  0  0  0  0  0  0  0
  -28.6981    9.6169   33.7797 C   0  0  0  0  0  0  0  0  0  0  0  0
  3  4  1  0
 11 13  1  0
 13 14  2  0
 13 15  1  0
  7 16  1  0
 16 17  1  0
 18 23  1  0
 20 29  1  0
 31 35  1  0
 17 18  1  0
 18 19  2  0
 19 20  1  0
 20 22  2  0
 22 21  1  0
 21 17  2  0
  1  2  2  0
  2  5  1  0
  5  6  2  0
  6  7  1  0
  7  3  2  0
  3  1  1  0
 29 30  2  0
 30 31  1  0
 31 34  2  0
 34 33  1  0
 33 32  2  0
 32 29  1  0
 23 24  2  0
 24 26  1  0
 26 28  2  0
 28 27  1  0
 27 25  2  0
 25 23  1  0
  4  8  2  0
  8  9  1  0
  9 10  2  0
 10 12  1  0
 12 11  2  0
 11  4  1  0
M  END

$$$$
