No_4917-gen_results/8p0m/2024-11-26-14-13-15/
     RDKit          3D

 13 14  0  0  0  0  0  0  0  0999 V2000
  -28.0162   -0.8135   28.8779 C   0  0  0  0  0  0  0  0  0  0  0  0
  -27.0636   -0.1190   28.6079 C   0  0  0  0  0  0  0  0  0  0  0  0
  -26.9287    1.1713   29.0083 C   0  0  0  0  0  0  0  0  0  0  0  0
  -27.9560    1.7411   29.7840 C   0  0  0  0  0  0  0  0  0  0  0  0
  -29.0569   -0.3271   29.7466 C   0  0  0  0  0  0  0  0  0  0  0  0
  -28.9828    0.9722   30.1516 C   0  0  0  0  0  0  0  0  0  0  0  0
  -25.9911   -0.6119   27.8566 O   0  0  0  0  0  0  0  0  0  0  0  0
  -24.6317   -0.3328   28.2530 C   0  0  0  0  0  0  0  0  0  0  0  0
  -23.9205   -1.2516   28.9900 C   0  0  0  0  0  0  0  0  0  0  0  0
  -22.6222   -0.9519   29.3203 C   0  0  0  0  0  0  0  0  0  0  0  0
  -23.8420    0.6556   27.6494 C   0  0  0  0  0  0  0  0  0  0  0  0
  -22.6155    1.0144   27.9856 C   0  0  0  0  0  0  0  0  0  0  0  0
  -21.9063    0.1561   28.8155 C   0  0  0  0  0  0  0  0  0  0  0  0
  2  7  1  0
  7  8  1  0
  8  9  2  0
  9 10  1  0
 10 13  2  0
 13 12  1  0
 12 11  2  0
 11  8  1  0
  1  2  2  0
  2  3  1  0
  3  4  2  0
  4  6  1  0
  6  5  2  0
  5  1  1  0
M  END

$$$$
