No_4106-gen_results/8p0m/2024-11-26-14-13-15/
     RDKit          3D

 29 33  0  0  0  0  0  0  0  0999 V2000
  -28.0162   -0.8135   28.8779 C   0  0  0  0  0  0  0  0  0  0  0  0
  -27.0636   -0.1189   28.6079 C   0  0  0  0  0  0  0  0  0  0  0  0
  -26.9287    1.1713   29.0083 C   0  0  0  0  0  0  0  0  0  0  0  0
  -27.9560    1.7411   29.7840 C   0  0  0  0  0  0  0  0  0  0  0  0
  -29.0569   -0.3271   29.7466 C   0  0  0  0  0  0  0  0  0  0  0  0
  -28.9828    0.9722   30.1516 C   0  0  0  0  0  0  0  0  0  0  0  0
  -25.8907   -0.6263   27.7857 C   0  0  0  0  0  0  0  0  0  0  0  0
  -24.5686   -0.1994   28.1996 C   0  0  0  0  0  0  0  0  0  0  0  0
  -23.6406   -0.6993   28.6892 C   0  0  0  0  0  0  0  0  0  0  0  0
  -22.5268   -0.1285   29.1804 C   0  0  0  0  0  0  0  0  0  0  0  0
  -22.3081    1.1067   28.7285 C   0  0  0  0  0  0  0  0  0  0  0  0
  -24.2580    1.2796   27.9881 C   0  0  0  0  0  0  0  0  0  0  0  0
  -23.1587    1.8792   28.1983 C   0  0  0  0  0  0  0  0  0  0  0  0
  -25.4472    2.2866   27.6685 C   0  0  0  0  0  0  0  0  0  0  0  0
  -26.1414    2.2661   28.5033 C   0  0  0  0  0  0  0  0  0  0  0  0
  -26.4245    3.6194   29.2883 C   0  0  0  0  0  0  0  0  0  0  0  0
  -27.6252    3.1867   30.0746 C   0  0  0  0  0  0  0  0  0  0  0  0
  -25.8744    4.8241   29.2710 C   0  0  0  0  0  0  0  0  0  0  0  0
  -25.3835    5.2004   28.2084 O   0  0  0  0  0  0  0  0  0  0  0  0
  -26.0045    5.5497   30.2797 O   0  0  0  0  0  0  0  0  0  0  0  0
  -30.1494   -1.2187   30.1812 C   0  0  0  0  0  0  0  0  0  0  0  0
  -30.9059   -0.8217   31.0645 O   0  0  0  0  0  0  0  0  0  0  0  0
  -30.0179   -2.4477   29.9456 O   0  0  0  0  0  0  0  0  0  0  0  0
  -25.5361    6.8930   30.2411 C   0  0  0  0  0  0  0  0  0  0  0  0
  -24.9962    7.3915   31.4518 C   0  0  0  0  0  0  0  0  0  0  0  0
  -24.0734    8.4238   31.4339 C   0  0  0  0  0  0  0  0  0  0  0  0
  -23.9094    9.1748   30.1939 C   0  0  0  0  0  0  0  0  0  0  0  0
  -24.4478    8.6254   29.0166 C   0  0  0  0  0  0  0  0  0  0  0  0
  -25.1659    7.4471   29.0544 C   0  0  0  0  0  0  0  0  0  0  0  0
  2  7  1  0
  7  8  1  0
 12 14  1  0
  3 15  1  0
 14 15  2  0
 15 16  1  0
  4 17  1  0
 16 17  2  0
 16 18  1  0
 18 19  2  0
 18 20  1  0
  5 21  1  0
 21 22  2  0
 21 23  1  0
 20 24  1  0
 24 25  2  0
 25 26  1  0
 26 27  2  0
 27 28  1  0
 28 29  2  0
 29 24  1  0
  1  2  2  0
  2  3  1  0
  3  4  2  0
  4  6  1  0
  6  5  2  0
  5  1  1  0
  8  9  2  0
  9 10  1  0
 10 11  2  0
 11 13  1  0
 13 12  2  0
 12  8  1  0
M  END

$$$$
