No_4774-gen_results/8p0m/2024-11-26-14-13-15/
     RDKit          3D

 22 24  0  0  0  0  0  0  0  0999 V2000
  -28.0162   -0.8135   28.8779 C   0  0  0  0  0  0  0  0  0  0  0  0
  -27.0636   -0.1189   28.6079 C   0  0  0  0  0  0  0  0  0  0  0  0
  -25.7647   -0.3897   29.0360 C   0  0  0  0  0  0  0  0  0  0  0  0
  -25.5296   -1.5302   29.9014 C   0  0  0  0  0  0  0  0  0  0  0  0
  -26.6577   -2.2915   30.2035 C   0  0  0  0  0  0  0  0  0  0  0  0
  -27.8548   -1.9555   29.7630 C   0  0  0  0  0  0  0  0  0  0  0  0
  -24.5441    0.4126   28.7379 C   0  0  0  0  0  0  0  0  0  0  0  0
  -24.4731    1.2065   27.7114 C   0  0  0  0  0  0  0  0  0  0  0  0
  -23.2779    1.8420   27.3661 C   0  0  0  0  0  0  0  0  0  0  0  0
  -22.0929    1.6644   28.0344 C   0  0  0  0  0  0  0  0  0  0  0  0
  -23.3031    0.1394   29.4701 C   0  0  0  0  0  0  0  0  0  0  0  0
  -22.0943    0.7975   29.1026 C   0  0  0  0  0  0  0  0  0  0  0  0
  -29.0212   -2.7980   30.1782 C   0  0  0  0  0  0  0  0  0  0  0  0
  -30.1570   -2.3570   30.1783 N   0  0  0  0  0  0  0  0  0  0  0  0
  -28.7971   -3.9850   30.6082 O   0  0  0  0  0  0  0  0  0  0  0  0
  -31.3606   -3.1348   30.5504 C   0  0  0  0  0  0  0  0  0  0  0  0
  -31.4791   -3.9956   31.1457 C   0  0  0  0  0  0  0  0  0  0  0  0
  -32.5342   -2.4103   29.8952 C   0  0  0  0  0  0  0  0  0  0  0  0
  -32.7823   -4.6653   31.4228 C   0  0  0  0  0  0  0  0  0  0  0  0
  -33.7711   -3.0375   30.1231 C   0  0  0  0  0  0  0  0  0  0  0  0
  -33.8672   -4.1141   30.9146 C   0  0  0  0  0  0  0  0  0  0  0  0
  -23.2915    2.7428   26.3156 O   0  0  0  0  0  0  0  0  0  0  0  0
  3  7  1  0
  6 13  1  0
 13 14  1  0
 13 15  2  0
 14 16  1  0
  9 22  1  0
  7  8  2  0
  8  9  1  0
  9 10  2  0
 10 12  1  0
 12 11  2  0
 11  7  1  0
  1  2  2  0
  2  3  1  0
  3  4  2  0
  4  5  1  0
  5  6  2  0
  6  1  1  0
 16 17  2  0
 17 19  1  0
 19 21  2  0
 21 20  1  0
 20 18  2  0
 18 16  1  0
M  END

$$$$
