No_478-gen_results/8p0m/2024-11-26-14-13-15/
     RDKit          3D

 27 30  0  0  0  0  0  0  0  0999 V2000
  -28.0162   -0.8135   28.8779 C   0  0  0  0  0  0  0  0  0  0  0  0
  -28.4690   -0.7850   29.8287 C   0  0  0  0  0  0  0  0  0  0  0  0
  -26.5042   -0.7777   28.8766 C   0  0  0  0  0  0  0  0  0  0  0  0
  -25.6540   -0.6597   27.7191 C   0  0  0  0  0  0  0  0  0  0  0  0
  -27.9180   -0.9374   31.1824 C   0  0  0  0  0  0  0  0  0  0  0  0
  -26.5424   -0.9399   31.2606 C   0  0  0  0  0  0  0  0  0  0  0  0
  -25.7832   -0.8935   30.1201 C   0  0  0  0  0  0  0  0  0  0  0  0
  -25.2134    0.6923   27.3830 C   0  0  0  0  0  0  0  0  0  0  0  0
  -23.9202    0.9215   27.7698 C   0  0  0  0  0  0  0  0  0  0  0  0
  -23.3388    2.2190   27.3686 C   0  0  0  0  0  0  0  0  0  0  0  0
  -24.0306    3.0764   26.5942 C   0  0  0  0  0  0  0  0  0  0  0  0
  -25.8722    1.5315   26.5194 C   0  0  0  0  0  0  0  0  0  0  0  0
  -27.1769    1.1280   26.0995 C   0  0  0  0  0  0  0  0  0  0  0  0
  -25.3138    2.7129   26.1287 C   0  0  0  0  0  0  0  0  0  0  0  0
  -28.1022    2.0903   25.8879 C   0  0  0  0  0  0  0  0  0  0  0  0
  -29.4191    1.7517   25.4129 C   0  0  0  0  0  0  0  0  0  0  0  0
  -29.6558    0.4429   25.1161 C   0  0  0  0  0  0  0  0  0  0  0  0
  -28.6877   -0.5205   25.1156 C   0  0  0  0  0  0  0  0  0  0  0  0
  -27.3960   -0.1490   25.6238 C   0  0  0  0  0  0  0  0  0  0  0  0
  -30.0906   -0.6886   29.8611 C   0  0  0  0  0  0  0  0  0  0  0  0
  -30.7018   -1.6856   29.8770 O   0  0  0  0  0  0  0  0  0  0  0  0
  -30.6344    0.5654   29.7427 N   0  0  0  0  0  0  0  0  0  0  0  0
  -29.9570    1.8378   29.7603 C   0  0  0  0  0  0  0  0  0  0  0  0
  -30.7567    2.9213   29.3608 C   0  0  0  0  0  0  0  0  0  0  0  0
  -32.0090    2.7099   28.9770 C   0  0  0  0  0  0  0  0  0  0  0  0
  -32.6079    1.4994   28.9255 C   0  0  0  0  0  0  0  0  0  0  0  0
  -31.8877    0.4313   29.2351 C   0  0  0  0  0  0  0  0  0  0  0  0
  3  4  1  0
  4  8  1  0
 12 13  1  0
  2 20  1  0
 20 21  2  0
 20 22  1  0
 22 23  1  0
 24 25  1  0
 22 27  1  0
 26 27  1  0
 23 24  1  0
 25 26  1  0
 13 15  2  0
 15 16  1  0
 16 17  2  0
 17 18  1  0
 18 19  2  0
 19 13  1  0
  8  9  2  0
  9 10  1  0
 10 11  2  0
 11 14  1  0
 14 12  2  0
 12  8  1  0
  1  2  2  0
  2  5  1  0
  5  6  2  0
  6  7  1  0
  7  3  2  0
  3  1  1  0
M  END

$$$$
