No_4889-gen_results/8p0m/2024-11-26-14-13-15/
     RDKit          3D

 15 15  0  0  0  0  0  0  0  0999 V2000
  -28.0162   -0.8135   28.8779 C   0  0  0  0  0  0  0  0  0  0  0  0
  -28.4690   -0.7850   29.8287 C   0  0  0  0  0  0  0  0  0  0  0  0
  -27.2166   -0.0832   27.9639 C   0  0  0  0  0  0  0  0  0  0  0  0
  -26.5094   -0.3500   26.9456 C   0  0  0  0  0  0  0  0  0  0  0  0
  -25.8221    0.6874   26.0575 C   0  0  0  0  0  0  0  0  0  0  0  0
  -29.1206   -1.7860   30.6105 C   0  0  0  0  0  0  0  0  0  0  0  0
  -30.4987   -1.8316   30.7235 C   0  0  0  0  0  0  0  0  0  0  0  0
  -25.8031    1.9504   26.4440 C   0  0  0  0  0  0  0  0  0  0  0  0
  -26.4543    2.3180   27.5997 C   0  0  0  0  0  0  0  0  0  0  0  0
  -27.1119    1.4476   28.3902 C   0  0  0  0  0  0  0  0  0  0  0  0
  -31.2001   -0.8303   30.2419 C   0  0  0  0  0  0  0  0  0  0  0  0
  -32.5597   -0.8451   30.1937 C   0  0  0  0  0  0  0  0  0  0  0  0
  -33.1657   -1.1183   29.3125 O   0  0  0  0  0  0  0  0  0  0  0  0
  -33.2315   -0.4834   31.3379 O   0  0  0  0  0  0  0  0  0  0  0  0
  -30.7067    0.4356   30.6866 O   0  0  0  0  0  0  0  0  0  0  0  0
  1  2  3  0
  1  3  1  0
  2  6  1  0
  6  7  2  3
  7 11  1  0
 11 12  1  0
 12 13  2  0
 12 14  1  0
 11 15  1  0
  3  4  2  0
  4  5  1  0
  5  8  2  0
  8  9  1  0
  9 10  2  0
 10  3  1  0
M  END

$$$$
