No_4443-gen_results/8p0m/2024-11-26-14-13-15/
     RDKit          3D

 26 27  0  0  0  0  0  0  0  0999 V2000
  -28.0162   -0.8135   28.8779 C   0  0  0  0  0  0  0  0  0  0  0  0
  -28.4690   -0.7850   29.8287 C   0  0  0  0  0  0  0  0  0  0  0  0
  -26.5455   -0.8762   28.8500 C   0  0  0  0  0  0  0  0  0  0  0  0
  -25.8041   -1.0324   30.0571 C   0  0  0  0  0  0  0  0  0  0  0  0
  -27.9437   -0.9869   31.2075 C   0  0  0  0  0  0  0  0  0  0  0  0
  -24.4008   -1.0969   30.0965 C   0  0  0  0  0  0  0  0  0  0  0  0
  -26.5612   -1.0746   31.2270 C   0  0  0  0  0  0  0  0  0  0  0  0
  -23.7638   -1.1467   30.8905 C   0  0  0  0  0  0  0  0  0  0  0  0
  -22.2432   -1.0645   30.9799 C   0  0  0  0  0  0  0  0  0  0  0  0
  -21.6912   -0.8391   29.7618 C   0  0  0  0  0  0  0  0  0  0  0  0
  -22.4311   -0.6908   28.5842 C   0  0  0  0  0  0  0  0  0  0  0  0
  -23.8512   -0.8076   28.7241 C   0  0  0  0  0  0  0  0  0  0  0  0
  -30.0805   -0.6738   29.8803 C   0  0  0  0  0  0  0  0  0  0  0  0
  -30.5926    0.2901   30.5079 O   0  0  0  0  0  0  0  0  0  0  0  0
  -30.7201   -1.4737   29.2016 O   0  0  0  0  0  0  0  0  0  0  0  0
  -31.5549    0.9306   30.2134 C   0  0  0  0  0  0  0  0  0  0  0  0
  -31.4953    2.0234   29.3452 C   0  0  0  0  0  0  0  0  0  0  0  0
  -32.1628    2.7314   28.5521 Cl  0  0  0  0  0  0  0  0  0  0  0  0
  -30.0308    2.4270   29.3303 N   0  0  0  0  0  0  0  0  0  0  0  0
  -29.5642    3.4333   28.4622 C   0  0  0  0  0  0  0  0  0  0  0  0
  -28.2711    3.1867   27.9604 C   0  0  0  0  0  0  0  0  0  0  0  0
  -27.1713    3.2382   28.8542 C   0  0  0  0  0  0  0  0  0  0  0  0
  -25.8963    2.8114   28.4247 C   0  0  0  0  0  0  0  0  0  0  0  0
  -24.7996    2.7867   29.3900 C   0  0  0  0  0  0  0  0  0  0  0  0
  -25.0172    3.1359   30.7318 C   0  0  0  0  0  0  0  0  0  0  0  0
  -26.2519    3.5664   31.1550 C   0  0  0  0  0  0  0  0  0  0  0  0
  4  6  1  0
  2 13  1  0
 13 14  1  0
 13 15  2  0
 14 16  1  0
 16 17  1  0
 17 18  1  0
 17 19  2  3
 19 20  1  0
 20 21  1  0
 21 22  2  3
 22 23  1  0
 23 24  2  3
 24 25  1  0
 25 26  2  0
  6  8  2  0
  8  9  1  0
  9 10  2  0
 10 11  1  0
 11 12  2  0
 12  6  1  0
  1  2  2  0
  2  5  1  0
  5  7  2  0
  7  4  1  0
  4  3  2  0
  3  1  1  0
M  END

$$$$
