No_4796-gen_results/8p0m/2024-11-26-14-13-15/
     RDKit          3D

 25 26  0  0  0  0  0  0  0  0999 V2000
  -28.0162   -0.8135   28.8779 C   0  0  0  0  0  0  0  0  0  0  0  0
  -27.0636   -0.1190   28.6079 C   0  0  0  0  0  0  0  0  0  0  0  0
  -26.9716    0.7139   27.5060 C   0  0  0  0  0  0  0  0  0  0  0  0
  -25.8205    1.4909   27.1160 C   0  0  0  0  0  0  0  0  0  0  0  0
  -24.6562    1.4242   27.9180 C   0  0  0  0  0  0  0  0  0  0  0  0
  -24.6847    0.5901   29.0659 C   0  0  0  0  0  0  0  0  0  0  0  0
  -25.8099   -0.1266   29.3338 C   0  0  0  0  0  0  0  0  0  0  0  0
  -28.6943   -0.4734   30.1587 C   0  0  0  0  0  0  0  0  0  0  0  0
  -29.7865   -1.3251   30.6371 C   0  0  0  0  0  0  0  0  0  0  0  0
  -23.4524    2.1889   27.6083 C   0  0  0  0  0  0  0  0  0  0  0  0
  -22.6065    1.6632   27.1176 F   0  0  0  0  0  0  0  0  0  0  0  0
  -23.0196    2.8600   28.7436 F   0  0  0  0  0  0  0  0  0  0  0  0
  -23.8540    3.2990   26.8508 F   0  0  0  0  0  0  0  0  0  0  0  0
  -28.3563    0.6264   30.9463 C   0  0  0  0  0  0  0  0  0  0  0  0
  -28.9646    0.9010   32.0896 C   0  0  0  0  0  0  0  0  0  0  0  0
  -30.4231   -0.9974   31.8733 C   0  0  0  0  0  0  0  0  0  0  0  0
  -30.0043    0.1176   32.6036 C   0  0  0  0  0  0  0  0  0  0  0  0
  -28.0604    0.8980   26.6862 N   0  0  0  0  0  0  0  0  0  0  0  0
  -28.1216    1.1105   25.4034 C   0  0  0  0  0  0  0  0  0  0  0  0
  -28.9062    1.0020   24.7067 C   0  0  0  0  0  0  0  0  0  0  0  0
  -29.7343    0.1728   24.9244 C   0  0  0  0  0  0  0  0  0  0  0  0
  -30.7573    0.0992   25.2077 C   0  0  0  0  0  0  0  0  0  0  0  0
  -31.4215    1.3573   25.5402 C   0  0  0  0  0  0  0  0  0  0  0  0
  -31.1010    2.4776   24.7815 C   0  0  0  0  0  0  0  0  0  0  0  0
  -29.9285    2.8803   24.2387 C   0  0  0  0  0  0  0  0  0  0  0  0
  1  8  1  0
  5 10  1  0
 10 11  1  0
 10 12  1  0
 10 13  1  0
  3 18  1  0
 18 19  1  0
 19 20  2  3
 20 21  1  0
 21 22  2  3
 22 23  1  0
 23 24  2  3
 24 25  1  0
  1  2  1  0
  2  3  2  0
  3  4  1  0
  4  5  2  0
  5  6  1  0
  6  7  2  0
  7  2  1  0
  8  9  2  0
  9 16  1  0
 16 17  2  0
 17 15  1  0
 15 14  2  0
 14  8  1  0
M  END

$$$$
