No_4520-gen_results/8p0m/2024-11-26-14-13-15/
     RDKit          3D

 14 14  0  0  0  0  0  0  0  0999 V2000
  -28.0162   -0.8135   28.8779 C   0  0  0  0  0  0  0  0  0  0  0  0
  -28.4690   -0.7850   29.8287 C   0  0  0  0  0  0  0  0  0  0  0  0
  -27.1356    0.2359   28.5352 C   0  0  0  0  0  0  0  0  0  0  0  0
  -26.8745    1.2825   29.3982 C   0  0  0  0  0  0  0  0  0  0  0  0
  -28.3613    0.1987   30.9244 C   0  0  0  0  0  0  0  0  0  0  0  0
  -27.5277    1.2234   30.6356 C   0  0  0  0  0  0  0  0  0  0  0  0
  -26.3879    0.2914   27.2334 C   0  0  0  0  0  0  0  0  0  0  0  0
  -25.1510    0.3034   27.2565 C   0  0  0  0  0  0  0  0  0  0  0  0
  -24.2412    1.0914   27.6024 C   0  0  0  0  0  0  0  0  0  0  0  0
  -23.0166    1.1106   27.9440 C   0  0  0  0  0  0  0  0  0  0  0  0
  -22.1205    2.1892   27.8013 C   0  0  0  0  0  0  0  0  0  0  0  0
  -22.8091    3.3682   27.5255 C   0  0  0  0  0  0  0  0  0  0  0  0
  -24.3782    2.6631   27.1983 C   0  0  0  0  0  0  0  0  0  0  0  0
  -25.3856    3.4605   26.7965 C   0  0  0  0  0  0  0  0  0  0  0  0
  3  7  1  0
  7  8  1  0
  8  9  2  3
  9 10  1  0
 10 11  2  3
 11 12  1  0
 12 13  1  0
 13 14  1  0
  1  2  2  0
  2  5  1  0
  5  6  2  0
  6  4  1  0
  4  3  2  0
  3  1  1  0
M  END

$$$$
