No_4968-gen_results/8p0m/2024-11-26-14-13-15/
     RDKit          3D

 33 35  0  0  0  0  0  0  0  0999 V2000
  -28.0162   -0.8135   28.8779 C   0  0  0  0  0  0  0  0  0  0  0  0
  -28.4690   -0.7850   29.8287 C   0  0  0  0  0  0  0  0  0  0  0  0
  -28.1816    0.4277   28.1134 C   0  0  0  0  0  0  0  0  0  0  0  0
  -27.4498    0.6435   26.8500 C   0  0  0  0  0  0  0  0  0  0  0  0
  -27.8596    1.4573   25.9076 C   0  0  0  0  0  0  0  0  0  0  0  0
  -29.4263    0.1097   30.4178 C   0  0  0  0  0  0  0  0  0  0  0  0
  -29.6233    1.2198   29.7351 C   0  0  0  0  0  0  0  0  0  0  0  0
  -28.9609    1.4529   28.5513 C   0  0  0  0  0  0  0  0  0  0  0  0
  -28.7886    2.5164   26.2663 C   0  0  0  0  0  0  0  0  0  0  0  0
  -29.2995    2.4792   27.5997 C   0  0  0  0  0  0  0  0  0  0  0  0
  -26.6190   -0.2886   26.3994 F   0  0  0  0  0  0  0  0  0  0  0  0
  -30.5132    2.1704   30.2077 O   0  0  0  0  0  0  0  0  0  0  0  0
  -30.0383    3.1993   30.8429 C   0  0  0  0  0  0  0  0  0  0  0  0
  -30.6408    4.3978   30.5331 C   0  0  0  0  0  0  0  0  0  0  0  0
  -31.8224    4.5572   30.0822 C   0  0  0  0  0  0  0  0  0  0  0  0
  -32.4163    5.8127   29.6899 C   0  0  0  0  0  0  0  0  0  0  0  0
  -31.6118    6.9717   29.9272 C   0  0  0  0  0  0  0  0  0  0  0  0
  -30.3573    6.9036   30.4121 C   0  0  0  0  0  0  0  0  0  0  0  0
  -29.8299    5.6506   30.7290 C   0  0  0  0  0  0  0  0  0  0  0  0
  -28.4668    5.5780   31.2376 C   0  0  0  0  0  0  0  0  0  0  0  0
  -28.0333    4.5120   31.5520 O   0  0  0  0  0  0  0  0  0  0  0  0
  -27.7104    6.5929   30.9154 O   0  0  0  0  0  0  0  0  0  0  0  0
  -28.2960   -2.1259   30.7900 C   0  0  0  0  0  0  0  0  0  0  0  0
  -27.5941   -3.0230   30.3874 O   0  0  0  0  0  0  0  0  0  0  0  0
  -28.9691   -2.2372   31.9139 N   0  0  0  0  0  0  0  0  0  0  0  0
  -29.4329   -3.1766   32.4162 C   0  0  0  0  0  0  0  0  0  0  0  0
  -30.8779   -3.3631   32.3760 C   0  0  0  0  0  0  0  0  0  0  0  0
  -31.6698   -2.3590   32.2328 C   0  0  0  0  0  0  0  0  0  0  0  0
  -31.5919   -1.3724   33.2009 C   0  0  0  0  0  0  0  0  0  0  0  0
  -32.4919   -0.1711   32.9510 C   0  0  0  0  0  0  0  0  0  0  0  0
  -32.4267    0.9487   33.8364 C   0  0  0  0  0  0  0  0  0  0  0  0
  -31.4604    0.9195   34.8787 C   0  0  0  0  0  0  0  0  0  0  0  0
  -30.6158   -0.1611   35.0604 C   0  0  0  0  0  0  0  0  0  0  0  0
  4 11  1  0
  7 12  1  0
 12 13  1  0
 19 20  1  0
 20 21  1  0
 20 22  2  0
  2 23  1  0
 23 24  2  0
 23 25  1  0
 25 26  1  0
 26 27  1  0
 27 28  1  0
 28 29  2  3
 29 30  1  0
 30 31  2  3
 31 32  1  0
 32 33  2  0
 13 14  1  0
 14 15  2  0
 15 16  1  0
 16 17  2  0
 17 18  1  0
 18 19  2  0
 19 14  1  0
  3  4  2  0
  4  5  1  0
  5  9  2  0
  9 10  1  0
 10  8  2  0
  1  2  2  0
  2  6  1  0
  6  7  2  0
  7  8  1  0
  8  3  1  0
  3  1  1  0
M  END

$$$$
