No_4464-gen_results/8p0m/2024-11-26-14-13-15/
     RDKit          3D

 30 32  0  0  0  0  0  0  0  0999 V2000
  -28.0162   -0.8135   28.8779 C   0  0  0  0  0  0  0  0  0  0  0  0
  -27.0636   -0.1189   28.6079 C   0  0  0  0  0  0  0  0  0  0  0  0
  -26.8756    1.1325   28.9134 C   0  0  0  0  0  0  0  0  0  0  0  0
  -25.6883    1.9515   28.5672 C   0  0  0  0  0  0  0  0  0  0  0  0
  -24.6394    1.2834   27.8753 C   0  0  0  0  0  0  0  0  0  0  0  0
  -24.8068   -0.0513   27.6040 C   0  0  0  0  0  0  0  0  0  0  0  0
  -25.9019   -0.7670   27.9511 C   0  0  0  0  0  0  0  0  0  0  0  0
  -28.6455   -0.5282   30.2428 C   0  0  0  0  0  0  0  0  0  0  0  0
  -28.9122    0.7961   30.4353 C   0  0  0  0  0  0  0  0  0  0  0  0
  -27.6754    1.6491   30.0989 C   0  0  0  0  0  0  0  0  0  0  0  0
  -23.4710    1.9726   27.3666 C   0  0  0  0  0  0  0  0  0  0  0  0
  -22.2580    1.6266   27.6884 N   0  0  0  0  0  0  0  0  0  0  0  0
  -23.6509    3.0201   26.6615 O   0  0  0  0  0  0  0  0  0  0  0  0
  -21.8497    0.7029   28.6659 C   0  0  0  0  0  0  0  0  0  0  0  0
  -22.6681    0.1936   29.6065 C   0  0  0  0  0  0  0  0  0  0  0  0
  -25.6038    3.3719   28.9090 C   0  0  0  0  0  0  0  0  0  0  0  0
  -24.6414    3.9157   28.3448 F   0  0  0  0  0  0  0  0  0  0  0  0
  -25.4342    3.4289   30.2590 F   0  0  0  0  0  0  0  0  0  0  0  0
  -26.7919    3.8947   28.6229 F   0  0  0  0  0  0  0  0  0  0  0  0
  -20.2293    0.1766   28.5448 Cl  0  0  0  0  0  0  0  0  0  0  0  0
  -26.0856    2.3128   27.5528 F   0  0  0  0  0  0  0  0  0  0  0  0
  -27.8579    1.7366   27.9609 F   0  0  0  0  0  0  0  0  0  0  0  0
  -27.9857    3.0172   30.3584 O   0  0  0  0  0  0  0  0  0  0  0  0
  -28.2215    3.2785   31.7012 C   0  0  0  0  0  0  0  0  0  0  0  0
  -29.1312    4.1443   31.8695 C   0  0  0  0  0  0  0  0  0  0  0  0
  -29.4587    4.4248   33.2307 C   0  0  0  0  0  0  0  0  0  0  0  0
  -30.3816    5.3658   33.6524 C   0  0  0  0  0  0  0  0  0  0  0  0
  -31.0658    6.0520   32.5972 C   0  0  0  0  0  0  0  0  0  0  0  0
  -30.7724    5.8208   31.2739 C   0  0  0  0  0  0  0  0  0  0  0  0
  -29.8090    4.8798   30.9189 C   0  0  0  0  0  0  0  0  0  0  0  0
  1  2  2  0
  2  3  1  0
  3  4  1  0
  4  5  1  0
  5  6  1  0
  2  7  1  0
  6  7  1  0
  1  8  1  0
  8  9  2  0
  3 10  1  0
  9 10  1  0
  5 11  1  0
 11 12  1  0
 11 13  2  0
 12 14  1  0
 14 15  1  0
  4 16  1  0
 16 17  1  0
 16 18  1  0
 16 19  1  0
 14 20  1  0
  4 21  1  0
  3 22  1  0
 10 23  1  0
 23 24  1  0
 24 25  1  0
 25 26  2  0
 26 27  1  0
 27 28  2  0
 28 29  1  0
 29 30  2  0
 30 25  1  0
M  END

$$$$
