No_4306-gen_results/8p0m/2024-11-26-14-13-15/
     RDKit          3D

 31 34  0  0  0  0  0  0  0  0999 V2000
  -28.1229   -1.3353   28.4874 O   0  0  0  0  0  0  0  0  0  0  0  0
  -27.4806   -0.4044   28.7094 C   0  0  0  0  0  0  0  0  0  0  0  0
  -27.1904    0.2460   29.5268 C   0  0  0  0  0  0  0  0  0  0  0  0
  -26.8157    0.1370   27.4262 N   0  0  0  0  0  0  0  0  0  0  0  0
  -27.5787    0.0639   30.8960 C   0  0  0  0  0  0  0  0  0  0  0  0
  -25.8899    1.1418   27.4087 C   0  0  0  0  0  0  0  0  0  0  0  0
  -25.6606    1.7775   28.6061 C   0  0  0  0  0  0  0  0  0  0  0  0
  -26.1852    1.3885   29.6914 C   0  0  0  0  0  0  0  0  0  0  0  0
  -28.1958   -0.9737   31.1405 C   0  0  0  0  0  0  0  0  0  0  0  0
  -28.9235   -1.3237   32.3638 C   0  0  0  0  0  0  0  0  0  0  0  0
  -28.7353   -0.4026   33.4108 C   0  0  0  0  0  0  0  0  0  0  0  0
  -28.0237    0.7271   33.2216 C   0  0  0  0  0  0  0  0  0  0  0  0
  -27.4731    1.0059   32.0079 C   0  0  0  0  0  0  0  0  0  0  0  0
  -25.3396    1.5029   26.2315 N   0  0  0  0  0  0  0  0  0  0  0  0
  -24.1191    1.5291   26.0762 C   0  0  0  0  0  0  0  0  0  0  0  0
  -23.1928    1.5742   27.1849 C   0  0  0  0  0  0  0  0  0  0  0  0
  -21.7848    1.6985   27.0154 C   0  0  0  0  0  0  0  0  0  0  0  0
  -21.0502    1.6778   28.2371 C   0  0  0  0  0  0  0  0  0  0  0  0
  -21.6661    1.0865   29.3757 C   0  0  0  0  0  0  0  0  0  0  0  0
  -23.3271    1.0168   28.5004 N   0  0  0  0  0  0  0  0  0  0  0  0
  -23.5712    1.7151   24.9428 O   0  0  0  0  0  0  0  0  0  0  0  0
  -29.3853   -0.7382   34.7328 C   0  0  0  0  0  0  0  0  0  0  0  0
  -28.9124   -0.2245   35.7452 C   0  0  0  0  0  0  0  0  0  0  0  0
  -28.1196    1.0643   35.6155 C   0  0  0  0  0  0  0  0  0  0  0  0
  -27.5768    1.4467   34.4361 C   0  0  0  0  0  0  0  0  0  0  0  0
  -26.7330    2.6313   34.3101 C   0  0  0  0  0  0  0  0  0  0  0  0
  -26.8522    3.6312   35.1962 N   0  0  0  0  0  0  0  0  0  0  0  0
  -26.3377    4.8892   34.8634 C   0  0  0  0  0  0  0  0  0  0  0  0
  -25.5956    4.9972   33.6658 C   0  0  0  0  0  0  0  0  0  0  0  0
  -25.1023    6.2463   33.2340 C   0  0  0  0  0  0  0  0  0  0  0  0
  -25.8607    2.7925   33.3920 O   0  0  0  0  0  0  0  0  0  0  0  0
  1  2  2  0
  2  3  1  0
  2  4  1  0
  3  5  1  0
  6  7  1  0
  3  8  1  0
  6 14  1  0
 14 15  1  0
 15 16  1  0
 16 17  2  0
 17 18  1  0
 18 19  2  0
 16 20  1  0
 19 20  1  0
 15 21  2  0
 25 26  1  0
 26 27  1  0
 27 28  2  3
 28 29  1  0
 29 30  2  0
 26 31  2  0
  8  7  1  0
  6  4  1  0
  5  9  2  0
  9 10  1  0
 10 11  2  0
 12 13  2  0
 13  5  1  0
 11 12  1  0
 12 25  1  0
 25 24  2  0
 24 23  1  0
 23 22  2  0
 22 11  1  0
M  END

$$$$
