No_4633-gen_results/8p0m/2024-11-26-14-13-15/
     RDKit          3D

 17 18  0  0  0  0  0  0  0  0999 V2000
  -28.0162   -0.8135   28.8779 C   0  0  0  0  0  0  0  0  0  0  0  0
  -27.0636   -0.1189   28.6079 C   0  0  0  0  0  0  0  0  0  0  0  0
  -26.9716    0.7139   27.5060 C   0  0  0  0  0  0  0  0  0  0  0  0
  -28.1053    0.7744   26.6421 C   0  0  0  0  0  0  0  0  0  0  0  0
  -29.2041    0.1179   27.0477 C   0  0  0  0  0  0  0  0  0  0  0  0
  -29.2127   -0.6088   28.1281 C   0  0  0  0  0  0  0  0  0  0  0  0
  -25.7106    1.4518   27.1380 C   0  0  0  0  0  0  0  0  0  0  0  0
  -25.2074    2.4128   27.9320 C   0  0  0  0  0  0  0  0  0  0  0  0
  -25.7865    2.9013   29.1063 C   0  0  0  0  0  0  0  0  0  0  0  0
  -25.3934    2.2363   30.1592 C   0  0  0  0  0  0  0  0  0  0  0  0
  -25.9217    2.6613   31.4739 C   0  0  0  0  0  0  0  0  0  0  0  0
  -25.6743    1.9916   32.6976 C   0  0  0  0  0  0  0  0  0  0  0  0
  -25.0075    0.7586   32.5546 C   0  0  0  0  0  0  0  0  0  0  0  0
  -24.4973    0.3346   31.3733 C   0  0  0  0  0  0  0  0  0  0  0  0
  -24.6673    1.0788   30.1736 C   0  0  0  0  0  0  0  0  0  0  0  0
  -26.7418    3.9378   28.9713 C   0  0  0  0  0  0  0  0  0  0  0  0
  -26.3881    5.1930   28.9046 C   0  0  0  0  0  0  0  0  0  0  0  0
  3  7  1  0
  7  8  2  3
  8  9  1  0
  9 10  1  0
  9 16  1  0
 16 17  2  0
  1  2  2  0
  2  3  1  0
  3  4  2  0
  4  5  1  0
  5  6  2  0
  6  1  1  0
 10 11  2  0
 11 12  1  0
 12 13  2  0
 13 14  1  0
 14 15  2  0
 15 10  1  0
M  END

$$$$
