No_4502-gen_results/8p0m/2024-11-26-14-13-15/
     RDKit          3D

 31 35  0  0  0  0  0  0  0  0999 V2000
  -28.1229   -1.3353   28.4874 O   0  0  0  0  0  0  0  0  0  0  0  0
  -27.4806   -0.4044   28.7094 C   0  0  0  0  0  0  0  0  0  0  0  0
  -27.2412    0.3910   29.5098 N   0  0  0  0  0  0  0  0  0  0  0  0
  -26.4066   -0.1069   27.4496 C   0  0  0  0  0  0  0  0  0  0  0  0
  -25.4358    0.8473   27.6341 C   0  0  0  0  0  0  0  0  0  0  0  0
  -25.4291    1.6632   28.7353 C   0  0  0  0  0  0  0  0  0  0  0  0
  -26.3098    1.3583   29.7618 C   0  0  0  0  0  0  0  0  0  0  0  0
  -24.5011    1.1239   26.5229 C   0  0  0  0  0  0  0  0  0  0  0  0
  -23.3758    1.9461   26.7922 C   0  0  0  0  0  0  0  0  0  0  0  0
  -23.3181    2.6515   28.0614 C   0  0  0  0  0  0  0  0  0  0  0  0
  -24.2704    2.5047   28.9348 C   0  0  0  0  0  0  0  0  0  0  0  0
  -26.3018    2.0288   30.8578 O   0  0  0  0  0  0  0  0  0  0  0  0
  -22.4693    2.2106   25.8966 F   0  0  0  0  0  0  0  0  0  0  0  0
  -28.2221    0.1229   30.7563 C   0  0  0  0  0  0  0  0  0  0  0  0
  -29.3055    0.3562   30.5767 C   0  0  0  0  0  0  0  0  0  0  0  0
  -29.8443    1.3882   30.0479 C   0  0  0  0  0  0  0  0  0  0  0  0
  -31.2342    1.6088   29.7367 C   0  0  0  0  0  0  0  0  0  0  0  0
  -32.0751    0.5914   30.2052 C   0  0  0  0  0  0  0  0  0  0  0  0
  -31.6339   -0.5483   30.7785 C   0  0  0  0  0  0  0  0  0  0  0  0
  -30.3093   -0.7185   31.0126 C   0  0  0  0  0  0  0  0  0  0  0  0
  -33.5636    0.8193   30.0166 C   0  0  0  0  0  0  0  0  0  0  0  0
  -34.3175   -0.0315   29.9316 C   0  0  0  0  0  0  0  0  0  0  0  0
  -34.0027   -1.2768   29.9127 C   0  0  0  0  0  0  0  0  0  0  0  0
  -34.8882   -2.4294   29.7967 C   0  0  0  0  0  0  0  0  0  0  0  0
  -32.6456   -1.7119   30.2891 C   0  0  0  0  0  0  0  0  0  0  0  0
  -35.9095   -2.4688   29.3687 O   0  0  0  0  0  0  0  0  0  0  0  0
  -34.3353   -3.7255   30.1701 N   0  0  0  0  0  0  0  0  0  0  0  0
  -33.1606   -4.0362   30.7035 C   0  0  0  0  0  0  0  0  0  0  0  0
  -32.1887   -2.9761   30.7526 C   0  0  0  0  0  0  0  0  0  0  0  0
  -33.1297   -4.8379   31.5615 F   0  0  0  0  0  0  0  0  0  0  0  0
  -32.4065   -4.5734   29.4367 C   0  0  0  0  0  0  0  0  0  0  0  0
  1  2  2  0
  2  3  1  0
  2  4  1  0
  4  5  1  0
  3  7  1  0
  6  7  1  0
  7 12  2  0
  9 13  1  0
  3 14  1  0
 14 15  1  0
 23 24  1  0
 24 26  2  0
 24 27  1  0
 27 28  1  0
 25 29  1  0
 28 29  1  0
 28 30  1  0
 28 31  1  0
 15 16  2  0
 16 17  1  0
 17 18  2  0
 19 20  2  0
 20 15  1  0
  5  8  2  0
  8  9  1  0
  9 10  2  0
 10 11  1  0
 11  6  2  0
  6  5  1  0
 18 19  1  0
 19 25  1  0
 25 23  2  0
 23 22  1  0
 22 21  2  0
 21 18  1  0
M  END

$$$$
