No_4252-gen_results/8p0m/2024-11-26-14-13-15/
     RDKit          3D

 25 28  0  0  0  0  0  0  0  0999 V2000
  -28.0162   -0.8135   28.8779 C   0  0  0  0  0  0  0  0  0  0  0  0
  -28.4690   -0.7850   29.8287 C   0  0  0  0  0  0  0  0  0  0  0  0
  -28.1816    0.4277   28.1134 C   0  0  0  0  0  0  0  0  0  0  0  0
  -27.0280    0.9338   27.5279 C   0  0  0  0  0  0  0  0  0  0  0  0
  -30.0361   -0.8321   30.1662 Cl  0  0  0  0  0  0  0  0  0  0  0  0
  -25.8426    0.1966   27.5898 C   0  0  0  0  0  0  0  0  0  0  0  0
  -25.6329   -0.8778   28.4484 C   0  0  0  0  0  0  0  0  0  0  0  0
  -26.6496   -1.2541   28.9772 C   0  0  0  0  0  0  0  0  0  0  0  0
  -27.7954   -1.8635   30.8927 C   0  0  0  0  0  0  0  0  0  0  0  0
  -26.5707   -2.0522   30.2674 O   0  0  0  0  0  0  0  0  0  0  0  0
  -24.2748   -1.4830   28.5154 C   0  0  0  0  0  0  0  0  0  0  0  0
  -23.1691   -0.5477   28.9313 C   0  0  0  0  0  0  0  0  0  0  0  0
  -23.1326    0.0496   29.9863 C   0  0  0  0  0  0  0  0  0  0  0  0
  -23.1776    1.1633   30.2412 C   0  0  0  0  0  0  0  0  0  0  0  0
  -23.5324    2.0760   29.1691 C   0  0  0  0  0  0  0  0  0  0  0  0
  -24.2270    3.2646   29.3639 C   0  0  0  0  0  0  0  0  0  0  0  0
  -24.6928    3.9924   28.2068 C   0  0  0  0  0  0  0  0  0  0  0  0
  -24.2226    3.5356   26.9314 C   0  0  0  0  0  0  0  0  0  0  0  0
  -23.3441    2.4702   26.8556 C   0  0  0  0  0  0  0  0  0  0  0  0
  -23.0348    1.7512   27.9307 C   0  0  0  0  0  0  0  0  0  0  0  0
  -22.6692    0.1122   27.7962 C   0  0  0  0  0  0  0  0  0  0  0  0
  -29.4211    1.0423   27.8312 C   0  0  0  0  0  0  0  0  0  0  0  0
  -29.7422    1.9158   28.7007 F   0  0  0  0  0  0  0  0  0  0  0  0
  -29.2967    1.7573   26.6424 F   0  0  0  0  0  0  0  0  0  0  0  0
  -30.3197    0.1348   27.5942 F   0  0  0  0  0  0  0  0  0  0  0  0
  1  2  1  0
  2  5  1  0
  2  9  1  0
  8 10  1  0
  9 10  1  0
  7 11  1  0
 11 12  1  0
  3 22  1  0
 22 23  1  0
 22 24  1  0
 22 25  1  0
 12 13  2  0
 13 14  1  0
 14 15  2  0
 20 21  2  0
 21 12  1  0
  1  3  2  0
  3  4  1  0
  4  6  2  0
  6  7  1  0
  7  8  2  0
  8  1  1  0
 15 16  1  0
 16 17  2  0
 17 18  1  0
 18 19  2  0
 19 20  1  0
 20 15  1  0
M  END

$$$$
