No_4716-gen_results/8p0m/2024-11-26-14-13-15/
     RDKit          3D

 25 28  0  0  0  0  0  0  0  0999 V2000
  -28.0162   -0.8135   28.8779 C   0  0  0  0  0  0  0  0  0  0  0  0
  -27.0636   -0.1190   28.6079 C   0  0  0  0  0  0  0  0  0  0  0  0
  -26.9287    1.1713   29.0083 C   0  0  0  0  0  0  0  0  0  0  0  0
  -25.7702    2.0341   28.6884 C   0  0  0  0  0  0  0  0  0  0  0  0
  -25.6189    3.3482   29.0918 C   0  0  0  0  0  0  0  0  0  0  0  0
  -29.0712   -0.3338   29.7689 C   0  0  0  0  0  0  0  0  0  0  0  0
  -29.0128    0.9333   30.1718 C   0  0  0  0  0  0  0  0  0  0  0  0
  -27.8993    1.7759   29.8587 C   0  0  0  0  0  0  0  0  0  0  0  0
  -24.7637    1.5278   27.7799 C   0  0  0  0  0  0  0  0  0  0  0  0
  -23.8329    2.0395   27.6237 C   0  0  0  0  0  0  0  0  0  0  0  0
  -26.5909    3.9739   29.9702 C   0  0  0  0  0  0  0  0  0  0  0  0
  -27.7786    3.1050   30.3548 C   0  0  0  0  0  0  0  0  0  0  0  0
  -22.6713    1.8356   27.7123 C   0  0  0  0  0  0  0  0  0  0  0  0
  -22.2169    0.6390   28.4046 C   0  0  0  0  0  0  0  0  0  0  0  0
  -23.3364   -0.3169   28.4884 C   0  0  0  0  0  0  0  0  0  0  0  0
  -24.6724    0.0992   27.9847 C   0  0  0  0  0  0  0  0  0  0  0  0
  -25.7767   -0.6847   28.0586 C   0  0  0  0  0  0  0  0  0  0  0  0
  -26.4918    5.3420   30.4390 C   0  0  0  0  0  0  0  0  0  0  0  0
  -27.3907    6.0043   30.4433 O   0  0  0  0  0  0  0  0  0  0  0  0
  -25.2467    5.6742   30.7225 O   0  0  0  0  0  0  0  0  0  0  0  0
  -30.2161   -1.1917   30.0401 C   0  0  0  0  0  0  0  0  0  0  0  0
  -31.0893   -1.2488   29.2656 O   0  0  0  0  0  0  0  0  0  0  0  0
  -30.1960   -1.8923   31.1451 O   0  0  0  0  0  0  0  0  0  0  0  0
  -20.6610    0.0178   28.4495 Cl  0  0  0  0  0  0  0  0  0  0  0  0
  -29.9998    1.4714   30.9055 O   0  0  0  0  0  0  0  0  0  0  0  0
  1  2  1  0
  6  7  1  0
  7  8  1  0
  4  9  1  0
  2 17  1  0
 16 17  1  0
 11 18  1  0
 18 19  1  0
 18 20  2  0
  6 21  1  0
 21 22  2  0
 21 23  1  0
 14 24  1  0
  7 25  2  0
  6  1  1  0
  2  3  1  0
  3  4  2  0
  4  5  1  0
  5 11  2  0
 11 12  1  0
 12  8  2  0
  8  3  1  0
  9 10  2  0
 10 13  1  0
 13 14  2  0
 14 15  1  0
 15 16  2  0
 16  9  1  0
M  END

$$$$
