No_4655-gen_results/8p0m/2024-11-26-14-13-15/
     RDKit          3D

 13 13  0  0  0  0  0  0  0  0999 V2000
  -28.0162   -0.8135   28.8779 C   0  0  0  0  0  0  0  0  0  0  0  0
  -28.4690   -0.7850   29.8287 C   0  0  0  0  0  0  0  0  0  0  0  0
  -27.1356    0.2359   28.5352 C   0  0  0  0  0  0  0  0  0  0  0  0
  -26.8745    1.2825   29.3982 C   0  0  0  0  0  0  0  0  0  0  0  0
  -27.5070    1.2380   30.6295 C   0  0  0  0  0  0  0  0  0  0  0  0
  -28.3293    0.1745   30.9350 C   0  0  0  0  0  0  0  0  0  0  0  0
  -26.4077    0.3070   27.2259 C   0  0  0  0  0  0  0  0  0  0  0  0
  -27.0192    0.0345   26.2763 F   0  0  0  0  0  0  0  0  0  0  0  0
  -25.8064    1.5835   26.9975 F   0  0  0  0  0  0  0  0  0  0  0  0
  -25.2042   -0.5047   27.3400 F   0  0  0  0  0  0  0  0  0  0  0  0
  -29.3866   -2.0210   30.3313 C   0  0  0  0  0  0  0  0  0  0  0  0
  -29.8001   -1.9809   31.4720 O   0  0  0  0  0  0  0  0  0  0  0  0
  -29.4460   -3.0266   29.6317 O   0  0  0  0  0  0  0  0  0  0  0  0
  3  7  1  0
  7  8  1  0
  7  9  1  0
  7 10  1  0
  2 11  1  0
 11 12  2  0
 11 13  1  0
  1  2  2  0
  2  6  1  0
  6  5  2  0
  5  4  1  0
  4  3  2  0
  3  1  1  0
M  END

$$$$
