No_4983-gen_results/8p0m/2024-11-26-14-13-15/
     RDKit          3D

 21 23  0  0  0  0  0  0  0  0999 V2000
  -28.0162   -0.8135   28.8779 C   0  0  0  0  0  0  0  0  0  0  0  0
  -27.0636   -0.1190   28.6079 C   0  0  0  0  0  0  0  0  0  0  0  0
  -25.7923   -0.4302   29.0761 C   0  0  0  0  0  0  0  0  0  0  0  0
  -25.5756   -1.5654   29.9363 C   0  0  0  0  0  0  0  0  0  0  0  0
  -26.7354   -2.3004   30.2173 C   0  0  0  0  0  0  0  0  0  0  0  0
  -27.9184   -1.9537   29.7629 C   0  0  0  0  0  0  0  0  0  0  0  0
  -26.8968    1.1016   27.7052 C   0  0  0  0  0  0  0  0  0  0  0  0
  -26.6638    2.1999   27.9486 C   0  0  0  0  0  0  0  0  0  0  0  0
  -26.2708    2.5380   29.3969 C   0  0  0  0  0  0  0  0  0  0  0  0
  -26.6627    3.4811   30.0793 C   0  0  0  0  0  0  0  0  0  0  0  0
  -25.9069    4.7130   30.0161 C   0  0  0  0  0  0  0  0  0  0  0  0
  -27.3698    0.7709   26.3059 C   0  0  0  0  0  0  0  0  0  0  0  0
  -28.6087    0.8375   26.0079 C   0  0  0  0  0  0  0  0  0  0  0  0
  -26.4004    0.6971   25.3125 C   0  0  0  0  0  0  0  0  0  0  0  0
  -29.0184    0.4393   24.7597 N   0  0  0  0  0  0  0  0  0  0  0  0
  -26.7582    0.2757   24.0351 C   0  0  0  0  0  0  0  0  0  0  0  0
  -28.1096    0.2160   23.8405 C   0  0  0  0  0  0  0  0  0  0  0  0
  -26.1485    5.6787   31.0569 C   0  0  0  0  0  0  0  0  0  0  0  0
  -27.8507    3.4439   30.8580 C   0  0  0  0  0  0  0  0  0  0  0  0
  -28.1149    4.5543   31.8142 C   0  0  0  0  0  0  0  0  0  0  0  0
  -27.2654    5.7216   31.8483 C   0  0  0  0  0  0  0  0  0  0  0  0
  2  7  1  0
  7  8  2  3
  8  9  1  0
  7 12  1  0
  9 10  1  0
 10 11  2  0
 11 18  1  0
 18 21  2  0
 21 20  1  0
 20 19  2  0
 19 10  1  0
  1  2  2  0
  2  3  1  0
  3  4  2  0
  4  5  1  0
  5  6  2  0
  6  1  1  0
 12 13  2  0
 13 15  1  0
 15 17  2  0
 17 16  1  0
 16 14  2  0
 14 12  1  0
M  END

$$$$
