No_4648-gen_results/8p0m/2024-11-26-14-13-15/
     RDKit          3D

 16 16  0  0  0  0  0  0  0  0999 V2000
  -28.0162   -0.8135   28.8779 C   0  0  0  0  0  0  0  0  0  0  0  0
  -28.4690   -0.7850   29.8287 C   0  0  0  0  0  0  0  0  0  0  0  0
  -26.5455   -0.8762   28.8500 C   0  0  0  0  0  0  0  0  0  0  0  0
  -25.8041   -1.0324   30.0571 C   0  0  0  0  0  0  0  0  0  0  0  0
  -30.0055   -0.7457   29.8978 C   0  0  0  0  0  0  0  0  0  0  0  0
  -26.5747   -1.0565   31.2005 C   0  0  0  0  0  0  0  0  0  0  0  0
  -27.9251   -0.9738   31.1683 C   0  0  0  0  0  0  0  0  0  0  0  0
  -30.5868   -0.1155   30.8351 O   0  0  0  0  0  0  0  0  0  0  0  0
  -30.6381   -1.3171   28.9448 O   0  0  0  0  0  0  0  0  0  0  0  0
  -24.3546   -1.1084   30.0492 C   0  0  0  0  0  0  0  0  0  0  0  0
  -23.6948    0.1422   30.0091 C   0  0  0  0  0  0  0  0  0  0  0  0
  -22.4702    0.2949   29.2714 C   0  0  0  0  0  0  0  0  0  0  0  0
  -21.9219    1.4996   28.9566 C   0  0  0  0  0  0  0  0  0  0  0  0
  -21.0887    1.4814   27.7899 C   0  0  0  0  0  0  0  0  0  0  0  0
  -24.1770    1.2671   30.7734 C   0  0  0  0  0  0  0  0  0  0  0  0
  -24.7943    2.0797   31.0089 N   0  0  0  0  0  0  0  0  0  0  0  0
  2  5  1  0
  5  8  2  0
  5  9  1  0
  4 10  1  0
 10 11  1  0
 11 12  2  3
 12 13  1  0
 13 14  1  0
 11 15  1  0
 15 16  3  0
  1  2  2  0
  2  7  1  0
  7  6  2  0
  6  4  1  0
  4  3  2  0
  3  1  1  0
M  END

$$$$
