No_4050-gen_results/8p0m/2024-11-26-14-13-15/
     RDKit          3D

 22 23  0  0  0  0  0  0  0  0999 V2000
  -28.0162   -0.8135   28.8779 C   0  0  0  0  0  0  0  0  0  0  0  0
  -27.0636   -0.1189   28.6079 C   0  0  0  0  0  0  0  0  0  0  0  0
  -27.0010    0.6913   27.4910 C   0  0  0  0  0  0  0  0  0  0  0  0
  -25.8548    1.4825   27.0830 C   0  0  0  0  0  0  0  0  0  0  0  0
  -24.6901    1.4526   27.8807 C   0  0  0  0  0  0  0  0  0  0  0  0
  -24.7379    0.6010   29.0416 C   0  0  0  0  0  0  0  0  0  0  0  0
  -25.8234   -0.1688   29.3887 C   0  0  0  0  0  0  0  0  0  0  0  0
  -28.7300   -0.5298   30.0429 N   0  0  0  0  0  0  0  0  0  0  0  0
  -29.6775   -1.3126   30.5974 C   0  0  0  0  0  0  0  0  0  0  0  0
  -30.1771   -2.6517   29.8890 Cl  0  0  0  0  0  0  0  0  0  0  0  0
  -30.2639   -0.9443   31.6810 O   0  0  0  0  0  0  0  0  0  0  0  0
  -23.5274    2.2135   27.5453 C   0  0  0  0  0  0  0  0  0  0  0  0
  -23.4327    2.7969   26.4327 O   0  0  0  0  0  0  0  0  0  0  0  0
  -22.3735    1.9999   28.1748 O   0  0  0  0  0  0  0  0  0  0  0  0
  -28.1681    0.7321   26.8551 N   0  0  0  0  0  0  0  0  0  0  0  0
  -28.7139    1.8779   26.3213 C   0  0  0  0  0  0  0  0  0  0  0  0
  -29.6337    2.2744   26.2106 C   0  0  0  0  0  0  0  0  0  0  0  0
  -30.7900    1.5996   26.7640 C   0  0  0  0  0  0  0  0  0  0  0  0
  -32.0373    2.0282   26.9151 C   0  0  0  0  0  0  0  0  0  0  0  0
  -32.3206    3.1575   26.2576 C   0  0  0  0  0  0  0  0  0  0  0  0
  -31.4298    3.9683   25.5975 C   0  0  0  0  0  0  0  0  0  0  0  0
  -30.0285    3.6102   25.6271 C   0  0  0  0  0  0  0  0  0  0  0  0
  1  2  1  0
  1  8  1  0
  8  9  1  0
  9 10  1  0
  9 11  2  0
  5 12  1  0
 12 13  2  0
 12 14  1  0
  3 15  1  0
 15 16  1  0
 16 17  1  0
 17 18  2  0
 18 19  1  0
 19 20  2  0
 20 21  1  0
 21 22  2  0
 22 17  1  0
  2  3  2  0
  3  4  1  0
  4  5  2  0
  5  6  1  0
  6  7  2  0
  7  2  1  0
M  END

$$$$
