No_4610-gen_results/8p0m/2024-11-26-14-13-15/
     RDKit          3D

 30 31  0  0  0  0  0  0  0  0999 V2000
  -28.1229   -1.3353   28.4874 O   0  0  0  0  0  0  0  0  0  0  0  0
  -28.5208   -0.4363   29.0779 C   0  0  0  0  0  0  0  0  0  0  0  0
  -27.6655    0.1129   30.0346 C   0  0  0  0  0  0  0  0  0  0  0  0
  -29.5383    0.2888   28.6335 O   0  0  0  0  0  0  0  0  0  0  0  0
  -26.8714   -0.5761   30.7172 C   0  0  0  0  0  0  0  0  0  0  0  0
  -25.5173   -0.6324   30.3626 C   0  0  0  0  0  0  0  0  0  0  0  0
  -25.1723   -0.3710   29.1044 C   0  0  0  0  0  0  0  0  0  0  0  0
  -24.4320    0.8368   28.8133 C   0  0  0  0  0  0  0  0  0  0  0  0
  -23.0952    0.8429   29.3761 C   0  0  0  0  0  0  0  0  0  0  0  0
  -23.0180    0.1141   30.6572 C   0  0  0  0  0  0  0  0  0  0  0  0
  -24.3252   -0.5622   31.2399 C   0  0  0  0  0  0  0  0  0  0  0  0
  -21.7460    1.5505   28.8035 Cl  0  0  0  0  0  0  0  0  0  0  0  0
  -30.3795   -0.2102   27.6882 C   0  0  0  0  0  0  0  0  0  0  0  0
  -31.1493    0.7769   26.8957 C   0  0  0  0  0  0  0  0  0  0  0  0
  -31.7970    0.3476   26.0007 O   0  0  0  0  0  0  0  0  0  0  0  0
  -31.0662    2.0794   27.1543 N   0  0  0  0  0  0  0  0  0  0  0  0
  -30.3266    2.6912   28.2101 C   0  0  0  0  0  0  0  0  0  0  0  0
  -31.3816    2.9281   25.9990 C   0  0  0  0  0  0  0  0  0  0  0  0
  -31.2985    3.4243   29.1133 C   0  0  0  0  0  0  0  0  0  0  0  0
  -32.2852    3.6285   29.1169 C   0  0  0  0  0  0  0  0  0  0  0  0
  -33.0532    4.3797   30.1417 C   0  0  0  0  0  0  0  0  0  0  0  0
  -32.3485    4.9070   31.2055 C   0  0  0  0  0  0  0  0  0  0  0  0
  -30.9863    4.6907   31.2557 C   0  0  0  0  0  0  0  0  0  0  0  0
  -30.3425    3.9499   30.2893 C   0  0  0  0  0  0  0  0  0  0  0  0
  -30.1835    5.2205   32.3906 C   0  0  0  0  0  0  0  0  0  0  0  0
  -29.3108    5.2683   32.9109 C   0  0  0  0  0  0  0  0  0  0  0  0
  -28.1498    4.5048   32.5768 N   0  0  0  0  0  0  0  0  0  0  0  0
  -27.7710    3.9203   31.8470 C   0  0  0  0  0  0  0  0  0  0  0  0
  -26.6859    3.6411   31.5167 C   0  0  0  0  0  0  0  0  0  0  0  0
  -26.0708    3.1705   30.2874 C   0  0  0  0  0  0  0  0  0  0  0  0
  1  2  2  0
  2  3  1  0
  2  4  1  0
  3  5  1  0
  5  6  1  0
  9 12  1  0
  4 13  1  0
 13 14  1  0
 14 15  2  0
 14 16  1  0
 16 17  1  0
 16 18  1  0
 17 19  1  0
 23 25  1  0
 25 26  1  0
 26 27  1  0
 27 28  1  0
 28 29  2  3
 29 30  1  0
  6  7  2  0
  7  8  1  0
  8  9  2  0
  9 10  1  0
 10 11  2  0
 11  6  1  0
 19 20  2  0
 20 21  1  0
 21 22  2  0
 22 23  1  0
 23 24  2  0
 24 19  1  0
M  END

$$$$
