No_4825-gen_results/8p0m/2024-11-26-14-13-15/
     RDKit          3D

 17 17  0  0  0  0  0  0  0  0999 V2000
  -28.1229   -1.3353   28.4874 O   0  0  0  0  0  0  0  0  0  0  0  0
  -28.5208   -0.4363   29.0779 C   0  0  0  0  0  0  0  0  0  0  0  0
  -29.6977    0.0507   28.9764 C   0  0  0  0  0  0  0  0  0  0  0  0
  -27.5405    0.1756   30.0054 N   0  0  0  0  0  0  0  0  0  0  0  0
  -26.2376   -0.0526   30.0396 C   0  0  0  0  0  0  0  0  0  0  0  0
  -25.5912   -0.7002   30.5795 C   0  0  0  0  0  0  0  0  0  0  0  0
  -24.3887   -1.0633   30.5514 C   0  0  0  0  0  0  0  0  0  0  0  0
  -23.4957   -0.4468   29.5429 C   0  0  0  0  0  0  0  0  0  0  0  0
  -24.2508    0.3832   28.6458 C   0  0  0  0  0  0  0  0  0  0  0  0
  -25.6007    0.6031   28.8256 C   0  0  0  0  0  0  0  0  0  0  0  0
  -30.7070   -0.4987   29.6134 C   0  0  0  0  0  0  0  0  0  0  0  0
  -31.8800   -0.2622   29.4208 O   0  0  0  0  0  0  0  0  0  0  0  0
  -30.4987   -1.5315   30.5435 N   0  0  0  0  0  0  0  0  0  0  0  0
  -31.5306   -2.2795   31.2394 C   0  0  0  0  0  0  0  0  0  0  0  0
  -29.8657    1.0901   28.1829 O   0  0  0  0  0  0  0  0  0  0  0  0
  -23.4520    1.0309   27.6001 C   0  0  0  0  0  0  0  0  0  0  0  0
  -23.0610    2.1465   27.5606 N   0  0  0  0  0  0  0  0  0  0  0  0
  1  2  2  0
  2  3  1  0
  2  4  1  0
  4  5  1  0
  3 11  1  0
 11 12  2  0
 11 13  1  0
 13 14  1  0
  3 15  2  0
  9 16  1  0
 16 17  2  0
  5  6  2  0
  6  7  1  0
  7  8  2  0
  8  9  1  0
  9 10  2  0
 10  5  1  0
M  END

$$$$
