No_4905-gen_results/8p0m/2024-11-26-14-13-15/
     RDKit          3D

 24 25  0  0  0  0  0  0  0  0999 V2000
  -28.0162   -0.8135   28.8779 C   0  0  0  0  0  0  0  0  0  0  0  0
  -27.0636   -0.1190   28.6079 C   0  0  0  0  0  0  0  0  0  0  0  0
  -25.7923   -0.4302   29.0761 C   0  0  0  0  0  0  0  0  0  0  0  0
  -25.2700   -0.0487   30.0123 C   0  0  0  0  0  0  0  0  0  0  0  0
  -27.8851   -1.6684   30.1122 C   0  0  0  0  0  0  0  0  0  0  0  0
  -26.9250   -1.6039   31.1803 C   0  0  0  0  0  0  0  0  0  0  0  0
  -25.9410   -0.6744   31.0387 C   0  0  0  0  0  0  0  0  0  0  0  0
  -29.0979   -2.4880   30.5075 C   0  0  0  0  0  0  0  0  0  0  0  0
  -29.3537   -2.5384   31.7507 O   0  0  0  0  0  0  0  0  0  0  0  0
  -24.8246   -0.9800   28.0297 C   0  0  0  0  0  0  0  0  0  0  0  0
  -29.6063   -3.2495   29.6800 O   0  0  0  0  0  0  0  0  0  0  0  0
  -27.1707    0.6939   27.4212 C   0  0  0  0  0  0  0  0  0  0  0  0
  -26.3053    0.5479   26.3237 C   0  0  0  0  0  0  0  0  0  0  0  0
  -24.9351   -0.1138   26.7200 C   0  0  0  0  0  0  0  0  0  0  0  0
  -28.3251    1.1471   27.0722 F   0  0  0  0  0  0  0  0  0  0  0  0
  -26.3709    1.0860   25.1006 C   0  0  0  0  0  0  0  0  0  0  0  0
  -27.2132    2.1078   24.9622 C   0  0  0  0  0  0  0  0  0  0  0  0
  -27.0695    3.2816   25.6767 C   0  0  0  0  0  0  0  0  0  0  0  0
  -25.9775    3.5585   26.4698 C   0  0  0  0  0  0  0  0  0  0  0  0
  -24.6780    3.3392   26.2562 C   0  0  0  0  0  0  0  0  0  0  0  0
  -26.2468    4.5113   27.5890 C   0  0  0  0  0  0  0  0  0  0  0  0
  -26.5917    4.2799   28.5883 C   0  0  0  0  0  0  0  0  0  0  0  0
  -26.7279    5.1780   29.7577 C   0  0  0  0  0  0  0  0  0  0  0  0
  -26.2410    6.4203   29.6312 C   0  0  0  0  0  0  0  0  0  0  0  0
  1  2  1  0
  1  5  1  0
  5  6  1  0
  4  7  1  0
  6  7  2  0
  5  8  1  0
  8  9  2  0
  8 11  1  0
 12 15  1  0
 13 16  1  0
 16 17  1  0
 17 18  2  3
 18 19  1  0
 19 20  1  0
 19 21  1  0
 21 22  2  3
 22 23  1  0
 23 24  2  0
  4  3  1  0
  2  3  2  0
  3 10  1  0
 10 14  2  0
 14 13  1  0
 13 12  2  0
 12  2  1  0
M  END

$$$$
