No_4621-gen_results/8p0m/2024-11-26-14-13-15/
     RDKit          3D

 35 38  0  0  0  0  0  0  0  0999 V2000
  -28.0162   -0.8135   28.8779 C   0  0  0  0  0  0  0  0  0  0  0  0
  -27.0636   -0.1190   28.6079 C   0  0  0  0  0  0  0  0  0  0  0  0
  -26.9716    0.7139   27.5060 C   0  0  0  0  0  0  0  0  0  0  0  0
  -28.1053    0.7744   26.6421 C   0  0  0  0  0  0  0  0  0  0  0  0
  -28.1273    1.5122   25.5122 C   0  0  0  0  0  0  0  0  0  0  0  0
  -29.2528   -0.5737   28.2149 C   0  0  0  0  0  0  0  0  0  0  0  0
  -29.2398    0.1221   27.0395 C   0  0  0  0  0  0  0  0  0  0  0  0
  -27.6226    0.9822   24.4573 C   0  0  0  0  0  0  0  0  0  0  0  0
  -28.6017    2.8939   25.4558 C   0  0  0  0  0  0  0  0  0  0  0  0
  -27.1206   -0.2946   24.4829 C   0  0  0  0  0  0  0  0  0  0  0  0
  -27.9471    3.8492   26.0975 N   0  0  0  0  0  0  0  0  0  0  0  0
  -28.5337    5.0038   26.5729 C   0  0  0  0  0  0  0  0  0  0  0  0
  -29.7290    3.1944   24.8423 N   0  0  0  0  0  0  0  0  0  0  0  0
  -30.3713    4.3969   25.0729 C   0  0  0  0  0  0  0  0  0  0  0  0
  -29.7203    5.3603   25.8839 C   0  0  0  0  0  0  0  0  0  0  0  0
  -28.0970   -1.7882   30.3679 Cl  0  0  0  0  0  0  0  0  0  0  0  0
  -30.3651    0.3143   26.4330 F   0  0  0  0  0  0  0  0  0  0  0  0
  -25.5076   -0.2765   29.5590 Cl  0  0  0  0  0  0  0  0  0  0  0  0
  -27.8208    5.8877   27.2389 N   0  0  0  0  0  0  0  0  0  0  0  0
  -27.7952    6.0486   28.4831 C   0  0  0  0  0  0  0  0  0  0  0  0
  -27.0684    6.0216   29.3914 C   0  0  0  0  0  0  0  0  0  0  0  0
  -27.2182    6.0377   30.8246 C   0  0  0  0  0  0  0  0  0  0  0  0
  -28.5328    6.1447   31.2141 C   0  0  0  0  0  0  0  0  0  0  0  0
  -29.2213    5.9900   29.1394 C   0  0  0  0  0  0  0  0  0  0  0  0
  -29.5032    6.1011   30.4044 C   0  0  0  0  0  0  0  0  0  0  0  0
  -25.5345    5.9929   29.0046 C   0  0  0  0  0  0  0  0  0  0  0  0
  -24.8504    7.0408   28.7812 N   0  0  0  0  0  0  0  0  0  0  0  0
  -24.9502    4.8390   28.8714 O   0  0  0  0  0  0  0  0  0  0  0  0
  -25.3076    8.4152   29.0845 C   0  0  0  0  0  0  0  0  0  0  0  0
  -24.3708    9.3174   28.5939 C   0  0  0  0  0  0  0  0  0  0  0  0
  -23.3867    8.3754   28.0124 N   0  0  0  0  0  0  0  0  0  0  0  0
  -23.8119    7.2761   28.0620 C   0  0  0  0  0  0  0  0  0  0  0  0
  -26.3791    8.8091   29.7720 N   0  0  0  0  0  0  0  0  0  0  0  0
  -27.0841    9.8694   29.4715 C   0  0  0  0  0  0  0  0  0  0  0  0
  -26.7164   10.7265   28.9712 C   0  0  0  0  0  0  0  0  0  0  0  0
  4  5  1  0
  5  8  2  3
  5  9  1  0
  8 10  1  0
  1 16  1  0
  7 17  1  0
  2 18  1  0
 12 19  1  0
 19 20  1  0
 21 26  1  0
 26 27  1  0
 26 28  2  0
 27 29  1  0
 29 30  2  0
 30 31  1  0
 27 32  1  0
 31 32  2  0
 29 33  1  0
 33 34  1  0
 34 35  2  0
  9 11  2  0
 11 12  1  0
 12 15  2  0
 15 14  1  0
 14 13  2  0
 13  9  1  0
 20 21  1  0
 21 22  2  0
 22 23  1  0
 23 25  2  0
 25 24  1  0
 24 20  2  0
  1  2  2  0
  2  3  1  0
  3  4  2  0
  4  7  1  0
  7  6  2  0
  6  1  1  0
M  END

$$$$
