No_4729-gen_results/8p0m/2024-11-26-14-13-15/
     RDKit          3D

 20 21  0  0  0  0  0  0  0  0999 V2000
  -28.0162   -0.8135   28.8779 C   0  0  0  0  0  0  0  0  0  0  0  0
  -28.4690   -0.7850   29.8287 C   0  0  0  0  0  0  0  0  0  0  0  0
  -26.5042   -0.7777   28.8766 C   0  0  0  0  0  0  0  0  0  0  0  0
  -25.8103   -0.8531   30.1028 C   0  0  0  0  0  0  0  0  0  0  0  0
  -27.9906   -0.8916   31.2257 C   0  0  0  0  0  0  0  0  0  0  0  0
  -26.6042   -0.8676   31.2652 C   0  0  0  0  0  0  0  0  0  0  0  0
  -30.0739   -0.8360   29.8615 C   0  0  0  0  0  0  0  0  0  0  0  0
  -30.5608   -0.4417   28.9417 O   0  0  0  0  0  0  0  0  0  0  0  0
  -30.6949   -1.6713   30.7585 O   0  0  0  0  0  0  0  0  0  0  0  0
  -25.7223   -0.7351   27.7650 O   0  0  0  0  0  0  0  0  0  0  0  0
  -25.6645    0.4768   27.1227 C   0  0  0  0  0  0  0  0  0  0  0  0
  -24.4718    1.0520   27.2626 C   0  0  0  0  0  0  0  0  0  0  0  0
  -23.4809    0.7074   28.1727 C   0  0  0  0  0  0  0  0  0  0  0  0
  -22.1824    1.3644   28.2166 C   0  0  0  0  0  0  0  0  0  0  0  0
  -21.9703    2.3054   27.1565 C   0  0  0  0  0  0  0  0  0  0  0  0
  -23.9527    2.0374   26.2594 C   0  0  0  0  0  0  0  0  0  0  0  0
  -22.7568    2.5385   26.2143 C   0  0  0  0  0  0  0  0  0  0  0  0
  -26.7102    0.9034   26.3254 C   0  0  0  0  0  0  0  0  0  0  0  0
  -27.0567    0.4737   25.1556 N   0  0  0  0  0  0  0  0  0  0  0  0
  -28.1364    0.8099   24.4863 C   0  0  0  0  0  0  0  0  0  0  0  0
  2  7  1  0
  7  8  2  0
  7  9  1  0
  3 10  1  0
 10 11  1  0
 11 12  1  0
 11 18  1  0
 18 19  2  3
 19 20  1  0
 12 13  2  0
 13 14  1  0
 14 15  2  0
 15 17  1  0
 17 16  2  0
 16 12  1  0
  1  2  2  0
  2  5  1  0
  5  6  2  0
  6  4  1  0
  4  3  2  0
  3  1  1  0
M  END

$$$$
