No_4566-gen_results/8p0m/2024-11-26-14-13-15/
     RDKit          3D

 26 28  0  0  0  0  0  0  0  0999 V2000
  -28.0162   -0.8135   28.8779 C   0  0  0  0  0  0  0  0  0  0  0  0
  -28.4690   -0.7850   29.8287 C   0  0  0  0  0  0  0  0  0  0  0  0
  -28.1816    0.4277   28.1134 C   0  0  0  0  0  0  0  0  0  0  0  0
  -27.4498    0.6435   26.8500 C   0  0  0  0  0  0  0  0  0  0  0  0
  -27.8596    1.4573   25.9076 C   0  0  0  0  0  0  0  0  0  0  0  0
  -28.3080   -1.9885   30.8635 C   0  0  0  0  0  0  0  0  0  0  0  0
  -27.5277   -3.0190   30.3596 C   0  0  0  0  0  0  0  0  0  0  0  0
  -26.7389   -2.8481   29.2719 C   0  0  0  0  0  0  0  0  0  0  0  0
  -26.9091   -1.6576   28.5337 C   0  0  0  0  0  0  0  0  0  0  0  0
  -28.9724    2.3472   26.1217 C   0  0  0  0  0  0  0  0  0  0  0  0
  -29.6230    2.2195   27.3318 C   0  0  0  0  0  0  0  0  0  0  0  0
  -29.2848    1.2346   28.2720 C   0  0  0  0  0  0  0  0  0  0  0  0
  -25.5535   -3.9864   28.8994 Cl  0  0  0  0  0  0  0  0  0  0  0  0
  -27.0383    1.6607   24.6860 C   0  0  0  0  0  0  0  0  0  0  0  0
  -25.8211    1.4451   24.9011 N   0  0  0  0  0  0  0  0  0  0  0  0
  -24.9803    2.2214   25.6724 C   0  0  0  0  0  0  0  0  0  0  0  0
  -23.6084    1.8700   25.9363 C   0  0  0  0  0  0  0  0  0  0  0  0
  -25.4353    3.4900   26.2502 C   0  0  0  0  0  0  0  0  0  0  0  0
  -24.5452    4.2394   27.0745 C   0  0  0  0  0  0  0  0  0  0  0  0
  -22.7707    2.4895   26.8247 C   0  0  0  0  0  0  0  0  0  0  0  0
  -23.3084    3.6820   27.4039 C   0  0  0  0  0  0  0  0  0  0  0  0
  -27.5090    2.1729   23.7202 O   0  0  0  0  0  0  0  0  0  0  0  0
  -25.0507    5.4421   27.7205 C   0  0  0  0  0  0  0  0  0  0  0  0
  -24.9338    6.8158   26.9282 Cl  0  0  0  0  0  0  0  0  0  0  0  0
  -25.7317    5.3843   28.9574 C   0  0  0  0  0  0  0  0  0  0  0  0
  -26.2190    4.4336   29.3910 O   0  0  0  0  0  0  0  0  0  0  0  0
  8 13  1  0
  5 14  1  0
 14 15  1  0
 15 16  1  0
 14 22  2  0
 19 23  1  0
 23 24  1  0
 23 25  1  0
 25 26  2  0
  3  1  1  0
  3  4  2  0
  4  5  1  0
  5 10  2  0
 10 11  1  0
 11 12  2  0
 12  3  1  0
 16 17  2  0
 17 20  1  0
 20 21  2  0
 21 19  1  0
 19 18  2  0
 18 16  1  0
  1  2  2  0
  2  6  1  0
  6  7  2  0
  7  8  1  0
  8  9  2  0
  9  1  1  0
M  END

$$$$
