No_4816-gen_results/8p0m/2024-11-26-14-13-15/
     RDKit          3D

 18 20  0  0  0  0  0  0  0  0999 V2000
  -28.0162   -0.8135   28.8779 C   0  0  0  0  0  0  0  0  0  0  0  0
  -28.4690   -0.7850   29.8287 C   0  0  0  0  0  0  0  0  0  0  0  0
  -28.1960    0.3478   28.0550 C   0  0  0  0  0  0  0  0  0  0  0  0
  -27.4421    0.5100   26.7947 C   0  0  0  0  0  0  0  0  0  0  0  0
  -27.8427    1.3330   25.8056 C   0  0  0  0  0  0  0  0  0  0  0  0
  -29.4716    0.1210   30.3515 C   0  0  0  0  0  0  0  0  0  0  0  0
  -29.7075    1.1848   29.5963 C   0  0  0  0  0  0  0  0  0  0  0  0
  -29.0356    1.3672   28.4021 C   0  0  0  0  0  0  0  0  0  0  0  0
  -28.8078    2.3943   26.1524 C   0  0  0  0  0  0  0  0  0  0  0  0
  -29.3448    2.3671   27.4295 C   0  0  0  0  0  0  0  0  0  0  0  0
  -26.5529   -0.4194   26.4343 F   0  0  0  0  0  0  0  0  0  0  0  0
  -30.6835    2.2323   30.0269 C   0  0  0  0  0  0  0  0  0  0  0  0
  -30.2010    3.3287   30.6775 C   0  0  0  0  0  0  0  0  0  0  0  0
  -31.1051    4.3466   31.1087 C   0  0  0  0  0  0  0  0  0  0  0  0
  -32.4516    4.1940   30.7993 C   0  0  0  0  0  0  0  0  0  0  0  0
  -32.0182    2.0902   29.7500 C   0  0  0  0  0  0  0  0  0  0  0  0
  -32.9044    3.0713   30.1265 C   0  0  0  0  0  0  0  0  0  0  0  0
  -28.9539    3.5441   30.9463 F   0  0  0  0  0  0  0  0  0  0  0  0
  4 11  1  0
  7 12  1  0
 13 18  1  0
 12 13  2  0
 13 14  1  0
 14 15  2  0
 15 17  1  0
 17 16  2  0
 16 12  1  0
  3  4  2  0
  4  5  1  0
  5  9  2  0
  9 10  1  0
 10  8  2  0
  1  2  2  0
  2  6  1  0
  6  7  2  0
  7  8  1  0
  8  3  1  0
  3  1  1  0
M  END

$$$$
