No_4540-gen_results/8p0m/2024-11-26-14-13-15/
     RDKit          3D

 33 37  0  0  0  0  0  0  0  0999 V2000
  -28.0162   -0.8135   28.8779 C   0  0  0  0  0  0  0  0  0  0  0  0
  -27.0636   -0.1190   28.6079 C   0  0  0  0  0  0  0  0  0  0  0  0
  -25.7647   -0.3897   29.0360 C   0  0  0  0  0  0  0  0  0  0  0  0
  -25.5296   -1.5302   29.9014 C   0  0  0  0  0  0  0  0  0  0  0  0
  -26.6888   -2.2893   30.1810 C   0  0  0  0  0  0  0  0  0  0  0  0
  -27.8727   -1.9508   29.7373 C   0  0  0  0  0  0  0  0  0  0  0  0
  -24.5491    0.4100   28.7341 C   0  0  0  0  0  0  0  0  0  0  0  0
  -24.4789    1.1871   27.6843 C   0  0  0  0  0  0  0  0  0  0  0  0
  -23.2716    1.8973   27.3731 C   0  0  0  0  0  0  0  0  0  0  0  0
  -22.1063    1.7032   28.0412 C   0  0  0  0  0  0  0  0  0  0  0  0
  -23.3188    0.1792   29.4669 C   0  0  0  0  0  0  0  0  0  0  0  0
  -22.1165    0.8402   29.1011 C   0  0  0  0  0  0  0  0  0  0  0  0
  -29.0352   -2.7858   30.1613 C   0  0  0  0  0  0  0  0  0  0  0  0
  -28.9002   -4.0976   30.3678 N   0  0  0  0  0  0  0  0  0  0  0  0
  -30.1709   -2.3042   30.3135 O   0  0  0  0  0  0  0  0  0  0  0  0
  -29.9261   -5.0317   30.6971 C   0  0  0  0  0  0  0  0  0  0  0  0
  -30.8394   -5.2743   29.7091 C   0  0  0  0  0  0  0  0  0  0  0  0
  -30.6950   -5.0943   28.5110 C   0  0  0  0  0  0  0  0  0  0  0  0
  -31.5099   -5.4828   27.3883 C   0  0  0  0  0  0  0  0  0  0  0  0
  -32.6920   -6.1489   27.6787 C   0  0  0  0  0  0  0  0  0  0  0  0
  -32.9256   -6.4193   29.0650 C   0  0  0  0  0  0  0  0  0  0  0  0
  -32.0223   -6.0642   30.0743 C   0  0  0  0  0  0  0  0  0  0  0  0
  -30.0580   -5.2231   31.9525 O   0  0  0  0  0  0  0  0  0  0  0  0
  -23.3290    2.7676   26.3014 O   0  0  0  0  0  0  0  0  0  0  0  0
  -33.8502   -6.6287   26.3753 Br  0  0  0  0  0  0  0  0  0  0  0  0
  -24.4667    2.5800   25.5725 C   0  0  0  0  0  0  0  0  0  0  0  0
  -25.1328    1.5458   26.4593 C   0  0  0  0  0  0  0  0  0  0  0  0
  -26.3750    0.8929   26.0148 C   0  0  0  0  0  0  0  0  0  0  0  0
  -27.5189    1.6166   26.1751 C   0  0  0  0  0  0  0  0  0  0  0  0
  -26.2394    0.1130   24.8223 C   0  0  0  0  0  0  0  0  0  0  0  0
  -28.7351    1.1463   25.5378 C   0  0  0  0  0  0  0  0  0  0  0  0
  -27.3472   -0.4064   24.2194 C   0  0  0  0  0  0  0  0  0  0  0  0
  -28.5612    0.1231   24.5652 C   0  0  0  0  0  0  0  0  0  0  0  0
  3  7  1  0
  6 13  1  0
 13 14  1  0
 13 15  2  0
 14 16  1  0
 16 17  1  0
 16 23  2  0
  9 24  1  0
 20 25  1  0
 24 26  1  0
  8 27  1  0
 26 27  1  0
 27 28  1  0
  7  8  2  0
  8  9  1  0
  9 10  2  0
 10 12  1  0
 12 11  2  0
 11  7  1  0
  1  2  2  0
  2  3  1  0
  3  4  2  0
  4  5  1  0
  5  6  2  0
  6  1  1  0
 17 18  2  0
 18 19  1  0
 19 20  2  0
 20 21  1  0
 21 22  2  0
 22 17  1  0
 28 29  2  0
 29 31  1  0
 31 33  2  0
 33 32  1  0
 32 30  2  0
 30 28  1  0
M  END

$$$$
