No_4650-gen_results/8p0m/2024-11-26-14-13-15/
     RDKit          3D

 18 19  0  0  0  0  0  0  0  0999 V2000
  -28.0162   -0.8135   28.8779 C   0  0  0  0  0  0  0  0  0  0  0  0
  -28.4690   -0.7850   29.8287 C   0  0  0  0  0  0  0  0  0  0  0  0
  -26.5042   -0.7777   28.8766 C   0  0  0  0  0  0  0  0  0  0  0  0
  -25.6540   -0.6597   27.7191 C   0  0  0  0  0  0  0  0  0  0  0  0
  -27.9180   -0.9374   31.1824 C   0  0  0  0  0  0  0  0  0  0  0  0
  -26.5423   -0.9399   31.2606 C   0  0  0  0  0  0  0  0  0  0  0  0
  -25.7832   -0.8935   30.1201 C   0  0  0  0  0  0  0  0  0  0  0  0
  -25.2134    0.6923   27.3830 C   0  0  0  0  0  0  0  0  0  0  0  0
  -25.3646    1.1004   26.0936 C   0  0  0  0  0  0  0  0  0  0  0  0
  -25.9645    0.2887   25.1279 C   0  0  0  0  0  0  0  0  0  0  0  0
  -24.6208    1.5594   28.3326 C   0  0  0  0  0  0  0  0  0  0  0  0
  -23.9106    2.2908   28.3602 C   0  0  0  0  0  0  0  0  0  0  0  0
  -23.8688    2.9740   26.9310 C   0  0  0  0  0  0  0  0  0  0  0  0
  -24.5527    2.2787   25.7957 C   0  0  0  0  0  0  0  0  0  0  0  0
  -29.9147   -0.7591   29.8405 O   0  0  0  0  0  0  0  0  0  0  0  0
  -30.5222   -0.1665   28.8981 C   0  0  0  0  0  0  0  0  0  0  0  0
  -31.6330   -0.6419   28.5167 C   0  0  0  0  0  0  0  0  0  0  0  0
  -32.2424   -0.2456   27.4576 O   0  0  0  0  0  0  0  0  0  0  0  0
  3  4  1  0
  4  8  1  0
  9 10  1  0
  2 15  1  0
 15 16  1  0
 16 17  2  0
 17 18  2  0
  8  9  2  0
  9 14  1  0
 14 13  2  0
 13 12  1  0
 12 11  2  0
 11  8  1  0
  1  2  2  0
  2  5  1  0
  5  6  2  0
  6  7  1  0
  7  3  2  0
  3  1  1  0
M  END

$$$$
