No_4014-gen_results/8p0m/2024-11-26-14-13-15/
     RDKit          3D

 29 32  0  0  0  0  0  0  0  0999 V2000
  -28.0162   -0.8135   28.8779 C   0  0  0  0  0  0  0  0  0  0  0  0
  -27.0636   -0.1189   28.6079 C   0  0  0  0  0  0  0  0  0  0  0  0
  -26.9716    0.7139   27.5060 C   0  0  0  0  0  0  0  0  0  0  0  0
  -28.1053    0.7744   26.6421 C   0  0  0  0  0  0  0  0  0  0  0  0
  -29.2041    0.1179   27.0477 C   0  0  0  0  0  0  0  0  0  0  0  0
  -29.2127   -0.6088   28.1281 C   0  0  0  0  0  0  0  0  0  0  0  0
  -30.6071    0.2677   25.9722 P   0  0  0  0  0  0  0  0  0  0  0  0
  -30.1520   -0.0721   24.5967 O   0  0  0  0  0  0  0  0  0  0  0  0
  -31.5676   -0.8423   26.4673 O   0  0  0  0  0  0  0  0  0  0  0  0
  -31.1512    1.6422   26.1208 O   0  0  0  0  0  0  0  0  0  0  0  0
  -25.6511    1.4129   27.1514 C   0  0  0  0  0  0  0  0  0  0  0  0
  -25.3576    2.1635   26.4838 C   0  0  0  0  0  0  0  0  0  0  0  0
  -23.9942    2.7839   26.2811 C   0  0  0  0  0  0  0  0  0  0  0  0
  -22.9352    2.2569   26.9995 C   0  0  0  0  0  0  0  0  0  0  0  0
  -23.2551    1.1337   27.8263 C   0  0  0  0  0  0  0  0  0  0  0  0
  -24.5691    0.6929   27.9948 C   0  0  0  0  0  0  0  0  0  0  0  0
  -22.1351    0.5534   28.6131 C   0  0  0  0  0  0  0  0  0  0  0  0
  -22.4031   -0.6847   29.1705 N   0  0  0  0  0  0  0  0  0  0  0  0
  -20.9931    0.9456   28.5123 O   0  0  0  0  0  0  0  0  0  0  0  0
  -28.0753   -1.6301   30.1308 C   0  0  0  0  0  0  0  0  0  0  0  0
  -27.1570   -2.4189   30.3331 O   0  0  0  0  0  0  0  0  0  0  0  0
  -29.2379   -1.9219   30.6466 O   0  0  0  0  0  0  0  0  0  0  0  0
  -29.4415   -2.7793   31.4963 C   0  0  0  0  0  0  0  0  0  0  0  0
  -29.7424   -4.1118   30.9796 C   0  0  0  0  0  0  0  0  0  0  0  0
  -29.6094   -4.2875   29.8944 O   0  0  0  0  0  0  0  0  0  0  0  0
  -30.0552   -5.0841   31.8043 O   0  0  0  0  0  0  0  0  0  0  0  0
  -23.6065   -1.2506   29.4751 C   0  0  0  0  0  0  0  0  0  0  0  0
  -24.6844   -0.6116   28.7679 N   0  0  0  0  0  0  0  0  0  0  0  0
  -26.0161   -0.9708   28.9797 C   0  0  0  0  0  0  0  0  0  0  0  0
  5  7  1  0
  7  8  2  0
  7  9  1  0
  7 10  1  0
  3 11  1  0
 15 17  1  0
 17 18  1  0
 17 19  2  0
  1 20  1  0
 20 21  2  0
 20 22  1  0
 22 23  1  0
 23 24  1  0
 24 25  1  0
 24 26  2  0
 16 28  1  0
 27 28  1  0
  2 29  1  0
 28 29  1  0
 18 27  1  0
 11 12  2  0
 12 13  1  0
 13 14  2  0
 14 15  1  0
 15 16  2  0
 16 11  1  0
  1  2  2  0
  2  3  1  0
  3  4  2  0
  4  5  1  0
  5  6  2  0
  6  1  1  0
M  END

$$$$
