No_455-gen_results/8p0m/2024-11-26-14-13-15/
     RDKit          3D

 20 22  0  0  0  0  0  0  0  0999 V2000
  -28.1493   -0.8198   28.9079 Cl  0  0  0  0  0  0  0  0  0  0  0  0
  -27.8339    0.4961   29.0598 C   0  0  0  0  0  0  0  0  0  0  0  0
  -27.5135    1.2383   28.0485 C   0  0  0  0  0  0  0  0  0  0  0  0
  -27.0548    2.6251   28.1330 C   0  0  0  0  0  0  0  0  0  0  0  0
  -26.9438    3.1838   29.4305 C   0  0  0  0  0  0  0  0  0  0  0  0
  -27.2205    2.3582   30.5116 C   0  0  0  0  0  0  0  0  0  0  0  0
  -27.5987    1.0586   30.3700 C   0  0  0  0  0  0  0  0  0  0  0  0
  -26.4856    4.5602   29.5942 C   0  0  0  0  0  0  0  0  0  0  0  0
  -25.8407    4.8344   30.6420 N   0  0  0  0  0  0  0  0  0  0  0  0
  -26.5816    5.4185   28.6882 O   0  0  0  0  0  0  0  0  0  0  0  0
  -25.3030    6.2501   30.9075 C   0  0  0  0  0  0  0  0  0  0  0  0
  -24.8398    6.3474   32.2990 C   0  0  0  0  0  0  0  0  0  0  0  0
  -23.8404    7.1254   32.5565 C   0  0  0  0  0  0  0  0  0  0  0  0
  -23.5125    8.2563   31.6592 C   0  0  0  0  0  0  0  0  0  0  0  0
  -24.1400    8.1548   30.3885 C   0  0  0  0  0  0  0  0  0  0  0  0
  -24.9145    7.0762   30.0340 C   0  0  0  0  0  0  0  0  0  0  0  0
  -22.5679    9.1541   32.2468 C   0  0  0  0  0  0  0  0  0  0  0  0
  -21.7552    8.8742   33.0360 C   0  0  0  0  0  0  0  0  0  0  0  0
  -22.0472    7.7415   34.0127 C   0  0  0  0  0  0  0  0  0  0  0  0
  -23.0861    6.9647   33.7498 C   0  0  0  0  0  0  0  0  0  0  0  0
  1  2  1  0
  5  8  1  0
  8  9  1  0
  8 10  2  0
  9 11  1  0
 11 12  2  0
 12 13  1  0
 14 15  1  0
 15 16  2  0
 16 11  1  0
  2  3  2  0
  3  4  1  0
  4  5  2  0
  5  6  1  0
  6  7  2  0
  7  2  1  0
 13 14  2  0
 14 17  1  0
 17 18  2  0
 18 19  1  0
 19 20  2  0
 20 13  1  0
M  END

$$$$
