No_4994-gen_results/8p0m/2024-11-26-14-13-15/
     RDKit          3D

  6  5  0  0  0  0  0  0  0  0999 V2000
  -28.0727   -1.2542   28.5316 F   0  0  0  0  0  0  0  0  0  0  0  0
  -27.3591   -0.3792   28.7224 C   0  0  0  0  0  0  0  0  0  0  0  0
  -26.3323   -0.6441   29.4520 C   0  0  0  0  0  0  0  0  0  0  0  0
  -26.9743    0.2865   27.4190 C   0  0  0  0  0  0  0  0  0  0  0  0
  -24.9010   -0.1812   29.3940 Cl  0  0  0  0  0  0  0  0  0  0  0  0
  -25.7296    0.6417   27.2318 C   0  0  0  0  0  0  0  0  0  0  0  0
  1  2  1  0
  2  3  1  0
  2  4  1  0
  3  5  1  0
  4  6  2  0
M  END

$$$$
