No_4140-gen_results/8p0m/2024-11-26-14-13-15/
     RDKit          3D

 20 22  0  0  0  0  0  0  0  0999 V2000
  -28.0162   -0.8135   28.8779 C   0  0  0  0  0  0  0  0  0  0  0  0
  -28.4690   -0.7850   29.8287 C   0  0  0  0  0  0  0  0  0  0  0  0
  -27.1356    0.2359   28.5352 C   0  0  0  0  0  0  0  0  0  0  0  0
  -26.3351    0.2900   27.2835 C   0  0  0  0  0  0  0  0  0  0  0  0
  -28.3692    0.1957   30.9236 C   0  0  0  0  0  0  0  0  0  0  0  0
  -27.5158    1.2655   30.6540 C   0  0  0  0  0  0  0  0  0  0  0  0
  -26.8411    1.2942   29.4761 C   0  0  0  0  0  0  0  0  0  0  0  0
  -25.3612    0.7751   26.9673 C   0  0  0  0  0  0  0  0  0  0  0  0
  -24.6558    0.7452   25.7260 C   0  0  0  0  0  0  0  0  0  0  0  0
  -25.3749    0.0010   24.6998 C   0  0  0  0  0  0  0  0  0  0  0  0
  -26.5372   -0.5015   25.0059 C   0  0  0  0  0  0  0  0  0  0  0  0
  -27.0692   -0.4261   26.2029 C   0  0  0  0  0  0  0  0  0  0  0  0
  -26.0673    2.2500   29.2150 F   0  0  0  0  0  0  0  0  0  0  0  0
  -27.3367   -1.1225   24.0463 O   0  0  0  0  0  0  0  0  0  0  0  0
  -28.6520   -1.3523   24.4530 C   0  0  0  0  0  0  0  0  0  0  0  0
  -29.6070   -1.3776   23.3651 C   0  0  0  0  0  0  0  0  0  0  0  0
  -30.9636   -1.5209   23.7830 C   0  0  0  0  0  0  0  0  0  0  0  0
  -31.4026   -1.7325   25.1302 C   0  0  0  0  0  0  0  0  0  0  0  0
  -30.4494   -1.4719   26.0819 C   0  0  0  0  0  0  0  0  0  0  0  0
  -29.1058   -1.1958   25.7344 C   0  0  0  0  0  0  0  0  0  0  0  0
  3  4  1  0
  7 13  1  0
 11 14  1  0
 14 15  1  0
  4  8  2  0
  8  9  1  0
  9 10  2  0
 10 11  1  0
 11 12  2  0
 12  4  1  0
 15 16  2  0
 16 17  1  0
 17 18  2  0
 18 19  1  0
 19 20  2  0
 20 15  1  0
  1  2  2  0
  2  5  1  0
  5  6  2  0
  6  7  1  0
  7  3  2  0
  3  1  1  0
M  END

$$$$
