No_4828-gen_results/8p0m/2024-11-26-14-13-15/
     RDKit          3D

 16 17  0  0  0  0  0  0  0  0999 V2000
  -28.0162   -0.8135   28.8779 C   0  0  0  0  0  0  0  0  0  0  0  0
  -28.4690   -0.7850   29.8287 C   0  0  0  0  0  0  0  0  0  0  0  0
  -28.1816    0.4277   28.1134 C   0  0  0  0  0  0  0  0  0  0  0  0
  -29.3519    0.6041   27.4037 C   0  0  0  0  0  0  0  0  0  0  0  0
  -29.4078    1.3882   26.3585 C   0  0  0  0  0  0  0  0  0  0  0  0
  -28.3732   -1.9693   30.7332 C   0  0  0  0  0  0  0  0  0  0  0  0
  -27.5159   -3.0218   30.3018 C   0  0  0  0  0  0  0  0  0  0  0  0
  -26.6379   -2.7983   29.3154 C   0  0  0  0  0  0  0  0  0  0  0  0
  -26.7819   -1.5953   28.6133 C   0  0  0  0  0  0  0  0  0  0  0  0
  -27.0820    1.2295   27.6534 C   0  0  0  0  0  0  0  0  0  0  0  0
  -25.7114    1.0483   28.2985 C   0  0  0  0  0  0  0  0  0  0  0  0
  -27.1568    2.2458   26.7483 C   0  0  0  0  0  0  0  0  0  0  0  0
  -28.4374    2.4471   26.1388 C   0  0  0  0  0  0  0  0  0  0  0  0
  -24.5799    0.9225   27.4895 C   0  0  0  0  0  0  0  0  0  0  0  0
  -23.3531    0.8879   28.1008 C   0  0  0  0  0  0  0  0  0  0  0  0
  -22.1139    1.0127   27.3756 C   0  0  0  0  0  0  0  0  0  0  0  0
  1  3  1  0
 10 11  1  0
 11 14  2  3
 14 15  1  0
 15 16  1  0
  3  4  2  0
  4  5  1  0
  5 13  2  0
 13 12  1  0
 12 10  2  0
 10  3  1  0
  1  2  2  0
  2  6  1  0
  6  7  2  0
  7  8  1  0
  8  9  2  0
  9  1  1  0
M  END

$$$$
