No_4080-gen_results/8p0m/2024-11-26-14-13-15/
     RDKit          3D

 23 24  0  0  0  0  0  0  0  0999 V2000
  -28.0162   -0.8135   28.8779 C   0  0  0  0  0  0  0  0  0  0  0  0
  -28.4690   -0.7850   29.8287 C   0  0  0  0  0  0  0  0  0  0  0  0
  -27.1356    0.2359   28.5352 C   0  0  0  0  0  0  0  0  0  0  0  0
  -26.8745    1.2825   29.3982 C   0  0  0  0  0  0  0  0  0  0  0  0
  -27.5070    1.2380   30.6295 C   0  0  0  0  0  0  0  0  0  0  0  0
  -28.3269    0.1637   30.9240 C   0  0  0  0  0  0  0  0  0  0  0  0
  -26.4007    0.2985   27.2217 C   0  0  0  0  0  0  0  0  0  0  0  0
  -25.7868   -0.5534   27.0575 F   0  0  0  0  0  0  0  0  0  0  0  0
  -25.5437    1.3988   27.1141 F   0  0  0  0  0  0  0  0  0  0  0  0
  -27.3308    0.5213   26.1859 F   0  0  0  0  0  0  0  0  0  0  0  0
  -29.2190   -1.9913   30.1518 O   0  0  0  0  0  0  0  0  0  0  0  0
  -30.4612   -1.9672   30.3474 C   0  0  0  0  0  0  0  0  0  0  0  0
  -30.9363   -3.2416   30.1740 C   0  0  0  0  0  0  0  0  0  0  0  0
  -30.2613   -4.2285   30.2285 O   0  0  0  0  0  0  0  0  0  0  0  0
  -32.2838   -3.4926   29.9347 N   0  0  0  0  0  0  0  0  0  0  0  0
  -33.2369   -2.4300   29.7655 C   0  0  0  0  0  0  0  0  0  0  0  0
  -32.8193   -4.8396   29.7867 C   0  0  0  0  0  0  0  0  0  0  0  0
  -33.5988   -1.7150   30.5655 C   0  0  0  0  0  0  0  0  0  0  0  0
  -33.5163   -1.9228   31.9571 C   0  0  0  0  0  0  0  0  0  0  0  0
  -33.9080   -0.9318   32.9593 C   0  0  0  0  0  0  0  0  0  0  0  0
  -34.4564    0.2382   32.4377 C   0  0  0  0  0  0  0  0  0  0  0  0
  -34.5592    0.5368   31.1426 C   0  0  0  0  0  0  0  0  0  0  0  0
  -34.0949   -0.3839   30.2119 C   0  0  0  0  0  0  0  0  0  0  0  0
  3  7  1  0
  7  8  1  0
  7  9  1  0
  7 10  1  0
  2 11  1  0
 11 12  1  0
 12 13  1  0
 13 14  2  0
 13 15  1  0
 15 16  1  0
 15 17  1  0
 16 18  1  0
 18 19  2  0
 19 20  1  0
 20 21  2  0
 21 22  1  0
 22 23  2  0
 23 18  1  0
  1  2  2  0
  2  6  1  0
  6  5  2  0
  5  4  1  0
  4  3  2  0
  3  1  1  0
M  END

$$$$
