No_4123-gen_results/8p0m/2024-11-26-14-13-15/
     RDKit          3D

 31 34  0  0  0  0  0  0  0  0999 V2000
  -28.0162   -0.8135   28.8779 C   0  0  0  0  0  0  0  0  0  0  0  0
  -27.0636   -0.1189   28.6079 C   0  0  0  0  0  0  0  0  0  0  0  0
  -25.7647   -0.3897   29.0360 C   0  0  0  0  0  0  0  0  0  0  0  0
  -25.5296   -1.5302   29.9014 C   0  0  0  0  0  0  0  0  0  0  0  0
  -26.6888   -2.2893   30.1810 C   0  0  0  0  0  0  0  0  0  0  0  0
  -27.8727   -1.9508   29.7373 C   0  0  0  0  0  0  0  0  0  0  0  0
  -28.9304   -2.7298   30.1154 O   0  0  0  0  0  0  0  0  0  0  0  0
  -24.5394    0.4211   28.7421 C   0  0  0  0  0  0  0  0  0  0  0  0
  -24.0907    1.3926   29.5983 C   0  0  0  0  0  0  0  0  0  0  0  0
  -22.9647    2.2021   29.2350 C   0  0  0  0  0  0  0  0  0  0  0  0
  -22.2731    1.9763   28.0008 C   0  0  0  0  0  0  0  0  0  0  0  0
  -22.7861    1.0400   27.1628 C   0  0  0  0  0  0  0  0  0  0  0  0
  -23.8730    0.2768   27.4987 C   0  0  0  0  0  0  0  0  0  0  0  0
  -24.6982    1.6177   30.9252 C   0  0  0  0  0  0  0  0  0  0  0  0
  -24.8306    0.8079   31.7484 O   0  0  0  0  0  0  0  0  0  0  0  0
  -25.1567    2.9390   31.0994 N   0  0  0  0  0  0  0  0  0  0  0  0
  -25.7306    3.3606   32.3438 C   0  0  0  0  0  0  0  0  0  0  0  0
  -25.4443    4.5711   32.6600 C   0  0  0  0  0  0  0  0  0  0  0  0
  -25.1782    5.5816   31.7426 C   0  0  0  0  0  0  0  0  0  0  0  0
  -24.9859    5.1292   30.4067 C   0  0  0  0  0  0  0  0  0  0  0  0
  -24.8648    3.8404   30.1231 C   0  0  0  0  0  0  0  0  0  0  0  0
  -30.0426   -2.2326   30.6486 C   0  0  0  0  0  0  0  0  0  0  0  0
  -30.2071   -1.2859   31.1396 C   0  0  0  0  0  0  0  0  0  0  0  0
  -31.5028   -0.8203   31.7315 C   0  0  0  0  0  0  0  0  0  0  0  0
  -32.5462   -1.7161   31.5760 C   0  0  0  0  0  0  0  0  0  0  0  0
  -31.1383   -3.2651   30.5554 C   0  0  0  0  0  0  0  0  0  0  0  0
  -32.3580   -2.9196   31.0000 C   0  0  0  0  0  0  0  0  0  0  0  0
  -27.2160    1.1307   27.7586 C   0  0  0  0  0  0  0  0  0  0  0  0
  -26.3073    1.6983   27.4677 F   0  0  0  0  0  0  0  0  0  0  0  0
  -28.2057    1.8457   28.3949 F   0  0  0  0  0  0  0  0  0  0  0  0
  -27.9175    0.6573   26.5990 F   0  0  0  0  0  0  0  0  0  0  0  0
  6  7  1  0
  3  8  1  0
  9 14  1  0
 14 15  2  0
 14 16  1  0
 16 17  1  0
 18 19  1  0
 16 21  1  0
 20 21  1  0
  7 22  1  0
  2 28  1  0
 28 29  1  0
 28 30  1  0
 28 31  1  0
 17 18  1  0
 19 20  1  0
  1  2  2  0
  2  3  1  0
  3  4  2  0
  4  5  1  0
  5  6  2  0
  6  1  1  0
 22 23  2  0
 23 24  1  0
 24 25  2  0
 25 27  1  0
 27 26  2  0
 26 22  1  0
  8  9  1  0
  9 10  2  0
 10 11  1  0
 11 12  2  0
 12 13  1  0
 13  8  2  0
M  END

$$$$
