No_4263-gen_results/8p0m/2024-11-26-14-13-15/
     RDKit          3D

 17 18  0  0  0  0  0  0  0  0999 V2000
  -28.0162   -0.8135   28.8779 C   0  0  0  0  0  0  0  0  0  0  0  0
  -27.0636   -0.1189   28.6079 C   0  0  0  0  0  0  0  0  0  0  0  0
  -26.9287    1.1713   29.0083 C   0  0  0  0  0  0  0  0  0  0  0  0
  -27.9560    1.7411   29.7840 C   0  0  0  0  0  0  0  0  0  0  0  0
  -29.0569   -0.3271   29.7466 C   0  0  0  0  0  0  0  0  0  0  0  0
  -28.9828    0.9722   30.1516 C   0  0  0  0  0  0  0  0  0  0  0  0
  -25.8907   -0.6263   27.7857 C   0  0  0  0  0  0  0  0  0  0  0  0
  -25.4633    0.1123   26.6815 C   0  0  0  0  0  0  0  0  0  0  0  0
  -25.0310   -1.6701   28.2406 C   0  0  0  0  0  0  0  0  0  0  0  0
  -24.3963   -1.7192   29.4773 C   0  0  0  0  0  0  0  0  0  0  0  0
  -23.7183   -0.9814   30.0604 C   0  0  0  0  0  0  0  0  0  0  0  0
  -23.1588    0.2483   29.3850 C   0  0  0  0  0  0  0  0  0  0  0  0
  -22.5908    0.7998   28.7187 C   0  0  0  0  0  0  0  0  0  0  0  0
  -22.0566    1.8340   27.8990 C   0  0  0  0  0  0  0  0  0  0  0  0
  -24.7137    1.2182   26.7060 C   0  0  0  0  0  0  0  0  0  0  0  0
  -23.2008    1.9818   26.6806 C   0  0  0  0  0  0  0  0  0  0  0  0
  -26.1108   -0.0422   25.4075 C   0  0  0  0  0  0  0  0  0  0  0  0
  2  7  1  0
  7  8  1  0
  7  9  1  0
  9 10  1  0
 10 11  2  3
 11 12  1  0
 12 13  3  0
 13 14  1  0
  8 15  2  3
 14 16  1  0
 15 16  1  0
  8 17  1  0
  1  2  2  0
  2  3  1  0
  3  4  2  0
  4  6  1  0
  6  5  2  0
  5  1  1  0
M  END

$$$$
