No_4417-gen_results/8p0m/2024-11-26-14-13-15/
     RDKit          3D

 22 24  0  0  0  0  0  0  0  0999 V2000
  -28.0162   -0.8135   28.8779 C   0  0  0  0  0  0  0  0  0  0  0  0
  -28.4690   -0.7850   29.8287 C   0  0  0  0  0  0  0  0  0  0  0  0
  -27.1356    0.2359   28.5352 C   0  0  0  0  0  0  0  0  0  0  0  0
  -26.8050    1.0509   29.2763 C   0  0  0  0  0  0  0  0  0  0  0  0
  -28.2372    0.1503   30.9300 C   0  0  0  0  0  0  0  0  0  0  0  0
  -27.3522    1.1239   30.6071 C   0  0  0  0  0  0  0  0  0  0  0  0
  -26.5569    0.1568   27.2643 F   0  0  0  0  0  0  0  0  0  0  0  0
  -29.4647   -1.9339   30.3569 C   0  0  0  0  0  0  0  0  0  0  0  0
  -29.2647   -3.1339   30.3083 O   0  0  0  0  0  0  0  0  0  0  0  0
  -30.7838   -1.5751   30.5649 O   0  0  0  0  0  0  0  0  0  0  0  0
  -25.8173    2.2303   28.9324 C   0  0  0  0  0  0  0  0  0  0  0  0
  -25.1144    2.3547   28.1245 C   0  0  0  0  0  0  0  0  0  0  0  0
  -24.3190    3.5548   27.7084 C   0  0  0  0  0  0  0  0  0  0  0  0
  -24.9508    4.3750   27.3142 C   0  0  0  0  0  0  0  0  0  0  0  0
  -26.0294    4.9052   28.2114 C   0  0  0  0  0  0  0  0  0  0  0  0
  -26.5019    3.7396   29.3120 C   0  0  0  0  0  0  0  0  0  0  0  0
  -26.6027    6.1465   28.3584 C   0  0  0  0  0  0  0  0  0  0  0  0
  -27.0465    6.6482   27.3577 C   0  0  0  0  0  0  0  0  0  0  0  0
  -27.6800    8.0043   27.3402 C   0  0  0  0  0  0  0  0  0  0  0  0
  -27.4820    6.3745   29.5098 C   0  0  0  0  0  0  0  0  0  0  0  0
  -28.0253    7.7327   29.6777 C   0  0  0  0  0  0  0  0  0  0  0  0
  -27.8837    8.5147   28.7447 C   0  0  0  0  0  0  0  0  0  0  0  0
  3  7  1  0
  2  8  1  0
  8  9  2  0
  8 10  1  0
  4 11  1  0
 15 17  1  0
 11 12  2  0
 12 13  1  0
 13 14  2  0
 14 15  1  0
 15 16  2  0
 16 11  1  0
 17 18  2  0
 18 19  1  0
 19 22  2  0
 22 21  1  0
 21 20  2  0
 20 17  1  0
  1  2  2  0
  2  5  1  0
  5  6  2  0
  6  4  1  0
  4  3  2  0
  3  1  1  0
M  END

$$$$
