No_4037-gen_results/8p0m/2024-11-26-14-13-15/
     RDKit          3D

 24 26  0  0  0  0  0  0  0  0999 V2000
  -28.0162   -0.8135   28.8779 C   0  0  0  0  0  0  0  0  0  0  0  0
  -28.4690   -0.7850   29.8287 C   0  0  0  0  0  0  0  0  0  0  0  0
  -26.5042   -0.7777   28.8766 C   0  0  0  0  0  0  0  0  0  0  0  0
  -25.8103   -0.8531   30.1028 C   0  0  0  0  0  0  0  0  0  0  0  0
  -27.9906   -0.8916   31.2257 C   0  0  0  0  0  0  0  0  0  0  0  0
  -26.6042   -0.8676   31.2652 C   0  0  0  0  0  0  0  0  0  0  0  0
  -24.3894   -0.8049   30.1638 C   0  0  0  0  0  0  0  0  0  0  0  0
  -23.8172    0.4762   29.9118 C   0  0  0  0  0  0  0  0  0  0  0  0
  -22.5010    0.5449   29.4097 C   0  0  0  0  0  0  0  0  0  0  0  0
  -21.7696   -0.6524   29.2129 C   0  0  0  0  0  0  0  0  0  0  0  0
  -23.6812   -1.3591   31.3252 C   0  0  0  0  0  0  0  0  0  0  0  0
  -23.9090   -1.7904   28.9731 C   0  0  0  0  0  0  0  0  0  0  0  0
  -22.9852   -1.6671   28.5501 C   0  0  0  0  0  0  0  0  0  0  0  0
  -25.6953   -1.8751   30.0790 Cl  0  0  0  0  0  0  0  0  0  0  0  0
  -25.8632   -0.4117   27.6308 C   0  0  0  0  0  0  0  0  0  0  0  0
  -24.4095    1.7296   30.4064 C   0  0  0  0  0  0  0  0  0  0  0  0
  -24.7900    2.5978   29.5300 O   0  0  0  0  0  0  0  0  0  0  0  0
  -24.6871    1.9023   31.6785 O   0  0  0  0  0  0  0  0  0  0  0  0
  -26.1746   -0.8662   32.6042 O   0  0  0  0  0  0  0  0  0  0  0  0
  -26.4397    0.6334   26.8617 C   0  0  0  0  0  0  0  0  0  0  0  0
  -25.8700    1.0298   25.6589 C   0  0  0  0  0  0  0  0  0  0  0  0
  -24.6118    0.4097   25.3518 C   0  0  0  0  0  0  0  0  0  0  0  0
  -24.6983   -0.7804   26.9955 C   0  0  0  0  0  0  0  0  0  0  0  0
  -24.1163   -0.3170   25.9079 C   0  0  0  0  0  0  0  0  0  0  0  0
  1  2  1  0
  1  3  2  0
  3  4  1  0
  2  5  2  0
  4  6  1  0
  5  6  1  0
  4  7  1  0
  7  8  1  0
  9 10  1  0
  7 11  1  0
  7 12  1  0
 10 13  1  0
 12 13  1  0
  4 14  1  0
  3 15  1  0
  8 16  1  0
 16 17  2  0
 16 18  1  0
  6 19  1  0
  8  9  1  0
 15 20  2  0
 20 21  1  0
 21 22  2  0
 22 24  1  0
 24 23  2  0
 23 15  1  0
M  END

$$$$
