No_4166-gen_results/8p0m/2024-11-26-14-13-15/
     RDKit          3D

 23 25  0  0  0  0  0  0  0  0999 V2000
  -28.0162   -0.8135   28.8779 C   0  0  0  0  0  0  0  0  0  0  0  0
  -28.4690   -0.7850   29.8287 C   0  0  0  0  0  0  0  0  0  0  0  0
  -26.5042   -0.7777   28.8766 C   0  0  0  0  0  0  0  0  0  0  0  0
  -25.6540   -0.6597   27.7191 C   0  0  0  0  0  0  0  0  0  0  0  0
  -27.9180   -0.9374   31.1824 C   0  0  0  0  0  0  0  0  0  0  0  0
  -26.5423   -0.9399   31.2606 C   0  0  0  0  0  0  0  0  0  0  0  0
  -25.7832   -0.8935   30.1201 C   0  0  0  0  0  0  0  0  0  0  0  0
  -25.2204    0.6866   27.3939 C   0  0  0  0  0  0  0  0  0  0  0  0
  -25.3030    1.0787   26.0731 C   0  0  0  0  0  0  0  0  0  0  0  0
  -24.6597    1.5478   28.3172 C   0  0  0  0  0  0  0  0  0  0  0  0
  -24.1691    2.7901   27.8654 C   0  0  0  0  0  0  0  0  0  0  0  0
  -24.2496    3.1745   26.5389 C   0  0  0  0  0  0  0  0  0  0  0  0
  -24.8257    2.2690   25.6333 C   0  0  0  0  0  0  0  0  0  0  0  0
  -30.0412   -0.8454   30.0257 C   0  0  0  0  0  0  0  0  0  0  0  0
  -30.6582   -0.2196   29.2953 O   0  0  0  0  0  0  0  0  0  0  0  0
  -30.6050   -1.5846   30.9046 O   0  0  0  0  0  0  0  0  0  0  0  0
  -25.8641    0.2333   25.0349 C   0  0  0  0  0  0  0  0  0  0  0  0
  -27.3027    0.0175   25.0075 C   0  0  0  0  0  0  0  0  0  0  0  0
  -28.1276    0.8412   25.7682 C   0  0  0  0  0  0  0  0  0  0  0  0
  -29.5611    0.7330   25.6479 C   0  0  0  0  0  0  0  0  0  0  0  0
  -30.0327   -0.2465   24.8170 C   0  0  0  0  0  0  0  0  0  0  0  0
  -29.2215   -0.9724   23.9853 C   0  0  0  0  0  0  0  0  0  0  0  0
  -27.8757   -0.8310   24.0618 C   0  0  0  0  0  0  0  0  0  0  0  0
  3  4  1  0
  4  8  1  0
  2 14  1  0
 14 15  1  0
 14 16  2  0
  9 17  1  0
 17 18  1  0
 18 19  2  0
 19 20  1  0
 20 21  2  0
 21 22  1  0
 22 23  2  0
 23 18  1  0
  1  2  2  0
  2  5  1  0
  5  6  2  0
  6  7  1  0
  7  3  2  0
  3  1  1  0
  8  9  2  0
  9 13  1  0
 13 12  2  0
 12 11  1  0
 11 10  2  0
 10  8  1  0
M  END

$$$$
