No_4871-gen_results/8p0m/2024-11-26-14-13-15/
     RDKit          3D

 35 38  0  0  0  0  0  0  0  0999 V2000
  -28.0162   -0.8135   28.8779 C   0  0  0  0  0  0  0  0  0  0  0  0
  -27.0636   -0.1190   28.6079 C   0  0  0  0  0  0  0  0  0  0  0  0
  -25.7923   -0.4302   29.0761 C   0  0  0  0  0  0  0  0  0  0  0  0
  -25.5314   -1.5876   29.6105 C   0  0  0  0  0  0  0  0  0  0  0  0
  -26.6366   -2.4336   29.9654 C   0  0  0  0  0  0  0  0  0  0  0  0
  -26.3845   -3.6983   30.5363 C   0  0  0  0  0  0  0  0  0  0  0  0
  -27.8983   -2.0811   29.5561 C   0  0  0  0  0  0  0  0  0  0  0  0
  -26.9489   -4.5877   29.5448 F   0  0  0  0  0  0  0  0  0  0  0  0
  -25.0899   -3.8954   30.4408 F   0  0  0  0  0  0  0  0  0  0  0  0
  -27.1937    1.2590   27.9240 C   0  0  0  0  0  0  0  0  0  0  0  0
  -26.3899    1.6141   27.0224 C   0  0  0  0  0  0  0  0  0  0  0  0
  -26.4532    2.9263   26.3363 C   0  0  0  0  0  0  0  0  0  0  0  0
  -27.6009    3.7203   26.5375 C   0  0  0  0  0  0  0  0  0  0  0  0
  -28.4947    3.2401   27.4920 C   0  0  0  0  0  0  0  0  0  0  0  0
  -28.3528    2.0492   28.2044 C   0  0  0  0  0  0  0  0  0  0  0  0
  -27.0773   -3.7312   31.5557 F   0  0  0  0  0  0  0  0  0  0  0  0
  -25.2423    1.0234   26.7390 F   0  0  0  0  0  0  0  0  0  0  0  0
  -29.3219   -0.5120   28.6154 O   0  0  0  0  0  0  0  0  0  0  0  0
  -30.2677   -0.7672   29.6083 C   0  0  0  0  0  0  0  0  0  0  0  0
  -31.4358   -0.1256   29.3869 C   0  0  0  0  0  0  0  0  0  0  0  0
  -31.5798    0.6410   28.5341 O   0  0  0  0  0  0  0  0  0  0  0  0
  -32.4915   -0.3928   30.2298 N   0  0  0  0  0  0  0  0  0  0  0  0
  -33.8093    0.2188   30.1111 C   0  0  0  0  0  0  0  0  0  0  0  0
  -34.7188   -0.3631   30.5260 C   0  0  0  0  0  0  0  0  0  0  0  0
  -35.3934    0.1322   31.6132 C   0  0  0  0  0  0  0  0  0  0  0  0
  -35.4873    1.5823   31.7776 C   0  0  0  0  0  0  0  0  0  0  0  0
  -34.4484    2.2842   31.0787 C   0  0  0  0  0  0  0  0  0  0  0  0
  -33.5005    1.6146   30.9381 C   0  0  0  0  0  0  0  0  0  0  0  0
  -36.5038    2.2026   32.5829 C   0  0  0  0  0  0  0  0  0  0  0  0
  -37.5932    2.4644   32.1578 C   0  0  0  0  0  0  0  0  0  0  0  0
  -38.6106    3.1306   33.0006 C   0  0  0  0  0  0  0  0  0  0  0  0
  -36.0797    2.5332   33.9256 C   0  0  0  0  0  0  0  0  0  0  0  0
  -37.0134    3.1662   34.7640 C   0  0  0  0  0  0  0  0  0  0  0  0
  -38.2541    3.4598   34.3021 C   0  0  0  0  0  0  0  0  0  0  0  0
  -39.2641    4.1171   35.1556 C   0  0  0  0  0  0  0  0  0  0  0  0
  5  6  1  0
  6  8  1  0
  6  9  1  0
  2 10  1  0
  6 16  1  0
 11 17  1  0
  1 18  1  0
 18 19  1  0
 19 20  1  0
 20 21  2  0
 20 22  1  0
 22 23  1  0
 26 29  1  0
 34 35  1  0
 23 24  2  0
 24 25  1  0
 25 26  2  0
 26 27  1  0
 27 28  2  0
 28 23  1  0
  1  2  1  0
  2  3  2  0
  3  4  1  0
  4  5  2  0
  5  7  1  0
  7  1  2  0
 10 11  2  0
 11 12  1  0
 12 13  2  0
 13 14  1  0
 14 15  2  0
 15 10  1  0
 29 30  2  0
 30 31  1  0
 31 34  2  0
 34 33  1  0
 33 32  2  0
 32 29  1  0
M  END

$$$$
