No_4606-gen_results/8p0m/2024-11-26-14-13-15/
     RDKit          3D

 30 33  0  0  0  0  0  0  0  0999 V2000
  -28.0162   -0.8135   28.8779 C   0  0  0  0  0  0  0  0  0  0  0  0
  -27.0636   -0.1190   28.6079 C   0  0  0  0  0  0  0  0  0  0  0  0
  -26.9716    0.7139   27.5060 C   0  0  0  0  0  0  0  0  0  0  0  0
  -28.1053    0.7744   26.6421 C   0  0  0  0  0  0  0  0  0  0  0  0
  -29.2041    0.1179   27.0477 C   0  0  0  0  0  0  0  0  0  0  0  0
  -29.2127   -0.6088   28.1281 C   0  0  0  0  0  0  0  0  0  0  0  0
  -25.7106    1.4518   27.1380 C   0  0  0  0  0  0  0  0  0  0  0  0
  -24.6052    0.9253   27.6902 C   0  0  0  0  0  0  0  0  0  0  0  0
  -23.3087    1.6018   27.4923 C   0  0  0  0  0  0  0  0  0  0  0  0
  -22.1769    1.1971   28.2745 C   0  0  0  0  0  0  0  0  0  0  0  0
  -22.2182    0.0930   29.0618 C   0  0  0  0  0  0  0  0  0  0  0  0
  -23.4005   -0.6727   29.1615 C   0  0  0  0  0  0  0  0  0  0  0  0
  -24.5560   -0.2221   28.5396 C   0  0  0  0  0  0  0  0  0  0  0  0
  -25.7759   -0.5905   29.1170 N   0  0  0  0  0  0  0  0  0  0  0  0
  -25.7685   -0.8772   30.4966 C   0  0  0  0  0  0  0  0  0  0  0  0
  -25.7326    2.4754   26.1526 C   0  0  0  0  0  0  0  0  0  0  0  0
  -30.3331    0.2922   26.3245 O   0  0  0  0  0  0  0  0  0  0  0  0
  -30.5690   -0.4680   25.2372 C   0  0  0  0  0  0  0  0  0  0  0  0
  -25.6310    0.1600   31.4553 C   0  0  0  0  0  0  0  0  0  0  0  0
  -26.0501   -0.1032   32.7371 C   0  0  0  0  0  0  0  0  0  0  0  0
  -25.1840    1.4953   31.1372 C   0  0  0  0  0  0  0  0  0  0  0  0
  -25.2635    2.5809   32.0566 C   0  0  0  0  0  0  0  0  0  0  0  0
  -26.0490    0.9315   33.7574 C   0  0  0  0  0  0  0  0  0  0  0  0
  -25.6709    2.2757   33.3782 C   0  0  0  0  0  0  0  0  0  0  0  0
  -25.8782   -2.0949   30.7422 O   0  0  0  0  0  0  0  0  0  0  0  0
  -24.8556    3.9014   31.6667 C   0  0  0  0  0  0  0  0  0  0  0  0
  -24.6553    3.9066   30.4270 F   0  0  0  0  0  0  0  0  0  0  0  0
  -23.7445    4.3628   32.2896 F   0  0  0  0  0  0  0  0  0  0  0  0
  -25.8345    4.7910   32.0208 F   0  0  0  0  0  0  0  0  0  0  0  0
  -26.5220    0.6868   35.1178 C   0  0  0  0  0  0  0  0  0  0  0  0
  3  7  1  0
  2 14  1  0
 13 14  1  0
 14 15  1  0
  7 16  1  0
  5 17  1  0
 17 18  1  0
 15 19  1  0
 15 25  2  0
 22 26  1  0
 26 27  1  0
 26 28  1  0
 26 29  1  0
 23 30  1  0
  7  8  1  0
  1  2  2  0
  2  3  1  0
  3  4  2  0
  4  5  1  0
  5  6  2  0
  6  1  1  0
  8  9  2  0
  9 10  1  0
 10 11  2  0
 11 12  1  0
 12 13  2  0
 13  8  1  0
 19 20  2  0
 20 23  1  0
 23 24  2  0
 24 22  1  0
 22 21  2  0
 21 19  1  0
M  END

$$$$
