No_4041-gen_results/8p0m/2024-11-26-14-13-15/
     RDKit          3D

 26 28  0  0  0  0  0  0  0  0999 V2000
  -28.0162   -0.8135   28.8779 C   0  0  0  0  0  0  0  0  0  0  0  0
  -28.4690   -0.7850   29.8287 C   0  0  0  0  0  0  0  0  0  0  0  0
  -26.5042   -0.7777   28.8766 C   0  0  0  0  0  0  0  0  0  0  0  0
  -25.8103   -0.8531   30.1028 C   0  0  0  0  0  0  0  0  0  0  0  0
  -27.9906   -0.8916   31.2257 C   0  0  0  0  0  0  0  0  0  0  0  0
  -26.6042   -0.8676   31.2652 C   0  0  0  0  0  0  0  0  0  0  0  0
  -29.9203   -0.8331   29.8239 F   0  0  0  0  0  0  0  0  0  0  0  0
  -24.3796   -0.8022   30.1424 C   0  0  0  0  0  0  0  0  0  0  0  0
  -23.8075    0.5641   30.1478 C   0  0  0  0  0  0  0  0  0  0  0  0
  -22.5259    0.7178   29.5746 C   0  0  0  0  0  0  0  0  0  0  0  0
  -21.7994   -0.4296   29.1566 C   0  0  0  0  0  0  0  0  0  0  0  0
  -22.3965   -1.6253   29.1236 N   0  0  0  0  0  0  0  0  0  0  0  0
  -23.6665   -1.7924   29.4990 C   0  0  0  0  0  0  0  0  0  0  0  0
  -24.2475   -2.9402   29.5051 N   0  0  0  0  0  0  0  0  0  0  0  0
  -20.5868   -0.1562   28.6545 N   0  0  0  0  0  0  0  0  0  0  0  0
  -25.7815   -0.7273   27.7338 O   0  0  0  0  0  0  0  0  0  0  0  0
  -26.0999    0.1342   26.7570 C   0  0  0  0  0  0  0  0  0  0  0  0
  -26.2685    1.2134   26.8811 C   0  0  0  0  0  0  0  0  0  0  0  0
  -25.8860   -0.5101   25.4427 C   0  0  0  0  0  0  0  0  0  0  0  0
  -26.5835    2.1240   25.7920 C   0  0  0  0  0  0  0  0  0  0  0  0
  -26.1090    0.2267   24.3092 C   0  0  0  0  0  0  0  0  0  0  0  0
  -26.9251    3.4954   25.9369 C   0  0  0  0  0  0  0  0  0  0  0  0
  -26.4160    1.5168   24.5037 C   0  0  0  0  0  0  0  0  0  0  0  0
  -26.1202    4.2849   26.8143 C   0  0  0  0  0  0  0  0  0  0  0  0
  -26.6036    5.4544   27.3839 C   0  0  0  0  0  0  0  0  0  0  0  0
  -25.7428    6.3211   28.1420 C   0  0  0  0  0  0  0  0  0  0  0  0
  2  7  1  0
  4  8  1  0
 13 14  1  0
 11 15  1  0
  3 16  1  0
 16 17  1  0
 20 22  1  0
 22 24  1  0
 24 25  2  3
 25 26  1  0
 17 18  2  0
 18 20  1  0
 20 23  2  0
 23 21  1  0
 21 19  2  0
 19 17  1  0
  8  9  2  0
  9 10  1  0
 10 11  2  0
 11 12  1  0
 12 13  2  0
 13  8  1  0
  1  2  2  0
  2  5  1  0
  5  6  2  0
  6  4  1  0
  4  3  2  0
  3  1  1  0
M  END

$$$$
