No_4034-gen_results/8p0m/2024-11-26-14-13-15/
     RDKit          3D

 29 32  0  0  0  0  0  0  0  0999 V2000
  -28.1493   -0.8198   28.9079 Cl  0  0  0  0  0  0  0  0  0  0  0  0
  -27.8339    0.4961   29.0598 C   0  0  0  0  0  0  0  0  0  0  0  0
  -27.6022    1.0128   30.2974 C   0  0  0  0  0  0  0  0  0  0  0  0
  -27.1699    2.3964   30.5338 C   0  0  0  0  0  0  0  0  0  0  0  0
  -26.9133    3.1827   29.3680 C   0  0  0  0  0  0  0  0  0  0  0  0
  -27.0551    2.6221   28.1384 C   0  0  0  0  0  0  0  0  0  0  0  0
  -27.4622    1.3345   27.9669 C   0  0  0  0  0  0  0  0  0  0  0  0
  -26.4513    4.5680   29.5808 C   0  0  0  0  0  0  0  0  0  0  0  0
  -25.8753    5.1847   28.5885 C   0  0  0  0  0  0  0  0  0  0  0  0
  -25.9529    4.5844   27.2173 C   0  0  0  0  0  0  0  0  0  0  0  0
  -26.4145    3.3612   27.0643 C   0  0  0  0  0  0  0  0  0  0  0  0
  -25.3520    6.6106   28.6167 C   0  0  0  0  0  0  0  0  0  0  0  0
  -24.9487    7.2939   27.5166 N   0  0  0  0  0  0  0  0  0  0  0  0
  -24.9181    7.1348   29.7882 N   0  0  0  0  0  0  0  0  0  0  0  0
  -24.4017    8.3836   29.4613 C   0  0  0  0  0  0  0  0  0  0  0  0
  -24.3816    8.4394   28.0720 C   0  0  0  0  0  0  0  0  0  0  0  0
  -27.5280    0.8113   26.7747 O   0  0  0  0  0  0  0  0  0  0  0  0
  -26.4210    0.2369   26.1746 C   0  0  0  0  0  0  0  0  0  0  0  0
  -25.3269   -0.0895   26.8990 C   0  0  0  0  0  0  0  0  0  0  0  0
  -26.5625   -0.1053   24.7966 C   0  0  0  0  0  0  0  0  0  0  0  0
  -24.2407    0.1586   27.3991 C   0  0  0  0  0  0  0  0  0  0  0  0
  -23.3756    1.3553   27.3598 C   0  0  0  0  0  0  0  0  0  0  0  0
  -22.2231    1.5420   28.0796 C   0  0  0  0  0  0  0  0  0  0  0  0
  -21.7688    0.5966   28.9433 C   0  0  0  0  0  0  0  0  0  0  0  0
  -23.5713   -0.6708   28.4541 C   0  0  0  0  0  0  0  0  0  0  0  0
  -22.4716   -0.5191   29.1922 C   0  0  0  0  0  0  0  0  0  0  0  0
  -27.0718    2.9496   31.8943 C   0  0  0  0  0  0  0  0  0  0  0  0
  -28.0068    3.3299   32.5465 O   0  0  0  0  0  0  0  0  0  0  0  0
  -25.8387    2.7219   32.4500 O   0  0  0  0  0  0  0  0  0  0  0  0
  1  2  1  0
  9 12  1  0
 12 13  2  0
 12 14  1  0
 14 15  2  0
 13 16  1  0
 15 16  1  0
  7 17  1  0
 17 18  1  0
 18 19  2  3
 18 20  1  0
 19 21  1  0
  4 27  1  0
 27 28  2  0
 27 29  1  0
  6 11  1  0
 11 10  2  0
 10  9  1  0
  9  8  2  0
  8  5  1  0
  2  3  2  0
  3  4  1  0
  4  5  2  0
  5  6  1  0
  6  7  2  0
  7  2  1  0
 21 22  2  0
 22 23  1  0
 23 24  2  0
 24 26  1  0
 26 25  2  0
 25 21  1  0
M  END

$$$$
