No_41-gen_results/8p0m/2024-11-26-14-13-15/
     RDKit          3D

 35 38  0  0  0  0  0  0  0  0999 V2000
  -28.0727   -1.2542   28.5316 F   0  0  0  0  0  0  0  0  0  0  0  0
  -27.0607   -0.6291   28.8721 C   0  0  0  0  0  0  0  0  0  0  0  0
  -26.1528   -1.1557   29.4537 C   0  0  0  0  0  0  0  0  0  0  0  0
  -24.8777   -0.5788   29.8639 C   0  0  0  0  0  0  0  0  0  0  0  0
  -24.7426    0.8273   29.4808 C   0  0  0  0  0  0  0  0  0  0  0  0
  -25.7883    1.3927   28.7628 C   0  0  0  0  0  0  0  0  0  0  0  0
  -26.9145    0.7309   28.4427 C   0  0  0  0  0  0  0  0  0  0  0  0
  -23.3446    1.6560   29.9170 Cl  0  0  0  0  0  0  0  0  0  0  0  0
  -27.9239    1.4141   27.6485 C   0  0  0  0  0  0  0  0  0  0  0  0
  -28.7320    2.1319   28.1492 C   0  0  0  0  0  0  0  0  0  0  0  0
  -29.5603    2.7326   28.1168 C   0  0  0  0  0  0  0  0  0  0  0  0
  -30.6481    2.8598   27.3770 C   0  0  0  0  0  0  0  0  0  0  0  0
  -30.7453    1.8754   26.3636 C   0  0  0  0  0  0  0  0  0  0  0  0
  -29.7399    1.0856   25.7761 C   0  0  0  0  0  0  0  0  0  0  0  0
  -28.4603    0.6698   26.4264 C   0  0  0  0  0  0  0  0  0  0  0  0
  -26.1565   -2.6248   29.9657 C   0  0  0  0  0  0  0  0  0  0  0  0
  -27.1540   -3.0526   30.5372 O   0  0  0  0  0  0  0  0  0  0  0  0
  -25.1043   -3.3749   29.8104 N   0  0  0  0  0  0  0  0  0  0  0  0
  -23.9616   -3.0544   29.0240 C   0  0  0  0  0  0  0  0  0  0  0  0
  -29.9737    0.3401   24.5814 C   0  0  0  0  0  0  0  0  0  0  0  0
  -30.5229   -0.9140   24.8645 C   0  0  0  0  0  0  0  0  0  0  0  0
  -31.4238   -1.1983   25.5040 N   0  0  0  0  0  0  0  0  0  0  0  0
  -32.3108   -1.8916   25.5643 C   0  0  0  0  0  0  0  0  0  0  0  0
  -32.8829   -2.6558   26.2322 C   0  0  0  0  0  0  0  0  0  0  0  0
  -32.3726   -2.6953   27.6208 C   0  0  0  0  0  0  0  0  0  0  0  0
  -31.6716   -1.5960   28.0704 C   0  0  0  0  0  0  0  0  0  0  0  0
  -31.0128   -0.9569   27.1173 C   0  0  0  0  0  0  0  0  0  0  0  0
  -30.0394   -1.8279   23.9987 O   0  0  0  0  0  0  0  0  0  0  0  0
  -30.3225    1.1179   23.3232 C   0  0  0  0  0  0  0  0  0  0  0  0
  -33.0232   -3.6047   28.6379 C   0  0  0  0  0  0  0  0  0  0  0  0
  -33.4729   -3.1898   29.7270 C   0  0  0  0  0  0  0  0  0  0  0  0
  -33.7305   -4.0857   30.8598 C   0  0  0  0  0  0  0  0  0  0  0  0
  -33.6409   -5.4641   30.5655 C   0  0  0  0  0  0  0  0  0  0  0  0
  -32.7130   -5.0017   28.4961 C   0  0  0  0  0  0  0  0  0  0  0  0
  -33.0331   -5.9118   29.4424 C   0  0  0  0  0  0  0  0  0  0  0  0
  1  2  1  0
  5  8  1  0
  7  9  1  0
  9 10  2  0
 10 11  1  0
 11 12  2  0
 12 13  1  0
 13 14  2  0
  9 15  1  0
 14 15  1  0
  3 16  1  0
 16 17  2  0
 16 18  1  0
 18 19  1  0
 14 20  1  0
 20 21  1  0
 21 22  1  0
 22 23  1  0
 24 25  1  0
 25 26  1  0
 22 27  1  0
 21 28  2  0
 20 29  1  0
 25 30  1  0
 23 24  1  0
 26 27  1  0
  2  3  2  0
  3  4  1  0
  4  5  2  0
  5  6  1  0
  6  7  2  0
  7  2  1  0
 30 31  2  0
 31 32  1  0
 32 33  2  0
 33 35  1  0
 35 34  2  0
 34 30  1  0
M  END

$$$$
