No_4008-gen_results/8p0m/2024-11-26-14-13-15/
     RDKit          3D

 21 22  0  0  0  0  0  0  0  0999 V2000
  -28.0162   -0.8135   28.8779 C   0  0  0  0  0  0  0  0  0  0  0  0
  -28.4690   -0.7850   29.8287 C   0  0  0  0  0  0  0  0  0  0  0  0
  -26.5042   -0.7777   28.8766 C   0  0  0  0  0  0  0  0  0  0  0  0
  -25.6540   -0.6597   27.7191 C   0  0  0  0  0  0  0  0  0  0  0  0
  -27.9180   -0.9374   31.1824 C   0  0  0  0  0  0  0  0  0  0  0  0
  -26.5423   -0.9399   31.2606 C   0  0  0  0  0  0  0  0  0  0  0  0
  -25.7832   -0.8935   30.1201 C   0  0  0  0  0  0  0  0  0  0  0  0
  -24.3096   -0.3015   27.8531 C   0  0  0  0  0  0  0  0  0  0  0  0
  -23.6669   -0.4595   29.0986 C   0  0  0  0  0  0  0  0  0  0  0  0
  -24.3700   -0.6645   30.2027 C   0  0  0  0  0  0  0  0  0  0  0  0
  -22.1946   -0.2290   29.1314 C   0  0  0  0  0  0  0  0  0  0  0  0
  -21.2882    0.5666   28.7716 N   0  0  0  0  0  0  0  0  0  0  0  0
  -21.6347   -1.3705   29.7204 O   0  0  0  0  0  0  0  0  0  0  0  0
  -29.9242   -0.8672   29.8610 O   0  0  0  0  0  0  0  0  0  0  0  0
  -30.5426   -0.1061   29.0181 C   0  0  0  0  0  0  0  0  0  0  0  0
  -31.7871    0.3710   29.4166 C   0  0  0  0  0  0  0  0  0  0  0  0
  -32.3268    0.2046   30.4425 C   0  0  0  0  0  0  0  0  0  0  0  0
  -33.6575    0.7471   30.8593 C   0  0  0  0  0  0  0  0  0  0  0  0
  -34.2595    0.5634   32.1089 C   0  0  0  0  0  0  0  0  0  0  0  0
  -33.5140   -0.2716   33.0106 C   0  0  0  0  0  0  0  0  0  0  0  0
  -32.3142   -0.8393   32.7344 C   0  0  0  0  0  0  0  0  0  0  0  0
  9 11  1  0
 11 12  1  0
 11 13  2  0
  2 14  1  0
 14 15  1  0
 15 16  1  0
 16 17  2  3
 17 18  1  0
 18 19  2  3
 19 20  1  0
 20 21  2  0
  1  2  2  0
  2  5  1  0
  5  6  2  0
  6  7  1  0
  3  1  1  0
  3  4  2  0
  4  8  1  0
  8  9  2  0
  9 10  1  0
 10  7  2  0
  7  3  1  0
M  END

$$$$
