No_4446-gen_results/8p0m/2024-11-26-14-13-15/
     RDKit          3D

 14 14  0  0  0  0  0  0  0  0999 V2000
  -28.0162   -0.8135   28.8779 C   0  0  0  0  0  0  0  0  0  0  0  0
  -27.0636   -0.1190   28.6079 C   0  0  0  0  0  0  0  0  0  0  0  0
  -26.9716    0.7139   27.5060 C   0  0  0  0  0  0  0  0  0  0  0  0
  -28.1053    0.7744   26.6421 C   0  0  0  0  0  0  0  0  0  0  0  0
  -29.2008    0.1044   27.0527 C   0  0  0  0  0  0  0  0  0  0  0  0
  -29.2096   -0.6029   28.1853 C   0  0  0  0  0  0  0  0  0  0  0  0
  -30.3702    0.2264   26.1604 C   0  0  0  0  0  0  0  0  0  0  0  0
  -30.8993    1.2632   26.1932 F   0  0  0  0  0  0  0  0  0  0  0  0
  -31.2899   -0.7321   26.5963 F   0  0  0  0  0  0  0  0  0  0  0  0
  -29.9088   -0.3679   25.0242 F   0  0  0  0  0  0  0  0  0  0  0  0
  -25.6814    1.4090   27.1151 C   0  0  0  0  0  0  0  0  0  0  0  0
  -25.5264    2.4437   27.8115 F   0  0  0  0  0  0  0  0  0  0  0  0
  -24.6400    0.6340   27.4606 F   0  0  0  0  0  0  0  0  0  0  0  0
  -25.5981    1.6792   25.8227 F   0  0  0  0  0  0  0  0  0  0  0  0
  5  7  1  0
  7  8  1  0
  7  9  1  0
  7 10  1  0
  3 11  1  0
 11 12  1  0
 11 13  1  0
 11 14  1  0
  1  2  2  0
  2  3  1  0
  3  4  2  0
  4  5  1  0
  5  6  2  0
  6  1  1  0
M  END

$$$$
