No_480-gen_results/8p0m/2024-11-26-14-13-15/
     RDKit          3D

 12 12  0  0  0  0  0  0  0  0999 V2000
  -28.0162   -0.8135   28.8779 C   0  0  0  0  0  0  0  0  0  0  0  0
  -28.4690   -0.7850   29.8287 C   0  0  0  0  0  0  0  0  0  0  0  0
  -27.0871    0.2903   28.6377 C   0  0  0  0  0  0  0  0  0  0  0  0
  -26.8317    1.2487   29.5869 C   0  0  0  0  0  0  0  0  0  0  0  0
  -28.3292   -0.0397   30.8362 C   0  0  0  0  0  0  0  0  0  0  0  0
  -27.4945    1.0625   30.7933 C   0  0  0  0  0  0  0  0  0  0  0  0
  -26.3268    0.4372   27.3447 C   0  0  0  0  0  0  0  0  0  0  0  0
  -25.4303    0.8264   26.9028 C   0  0  0  0  0  0  0  0  0  0  0  0
  -24.2988    1.3350   27.7126 C   0  0  0  0  0  0  0  0  0  0  0  0
  -23.4785    2.0553   27.5805 C   0  0  0  0  0  0  0  0  0  0  0  0
  -23.2077    2.3663   26.1384 C   0  0  0  0  0  0  0  0  0  0  0  0
  -24.1051    1.9348   25.1983 C   0  0  0  0  0  0  0  0  0  0  0  0
  3  7  1  0
  7  8  3  0
  8  9  1  0
  9 10  2  3
 10 11  1  0
 11 12  2  0
  1  2  2  0
  2  5  1  0
  5  6  2  0
  6  4  1  0
  4  3  2  0
  3  1  1  0
M  END

$$$$
