No_4966-gen_results/8p0m/2024-11-26-14-13-15/
     RDKit          3D

 35 38  0  0  0  0  0  0  0  0999 V2000
  -28.0162   -0.8135   28.8779 C   0  0  0  0  0  0  0  0  0  0  0  0
  -28.4690   -0.7850   29.8287 C   0  0  0  0  0  0  0  0  0  0  0  0
  -26.5455   -0.8762   28.8500 C   0  0  0  0  0  0  0  0  0  0  0  0
  -25.8041   -1.0324   30.0571 C   0  0  0  0  0  0  0  0  0  0  0  0
  -27.9437   -0.9869   31.2075 C   0  0  0  0  0  0  0  0  0  0  0  0
  -26.5825   -1.0386   31.2231 C   0  0  0  0  0  0  0  0  0  0  0  0
  -24.3810   -1.1082   30.0855 C   0  0  0  0  0  0  0  0  0  0  0  0
  -23.7054    0.0955   29.8440 C   0  0  0  0  0  0  0  0  0  0  0  0
  -22.4285    0.1160   29.2171 C   0  0  0  0  0  0  0  0  0  0  0  0
  -21.8149    1.2942   28.8765 C   0  0  0  0  0  0  0  0  0  0  0  0
  -24.1974    1.3766   30.2708 C   0  0  0  0  0  0  0  0  0  0  0  0
  -25.4179    1.4203   31.0567 C   0  0  0  0  0  0  0  0  0  0  0  0
  -22.3474    1.9215   27.7574 C   0  0  0  0  0  0  0  0  0  0  0  0
  -25.7347    2.8954   31.4165 C   0  0  0  0  0  0  0  0  0  0  0  0
  -23.7114    2.3925   27.7639 C   0  0  0  0  0  0  0  0  0  0  0  0
  -24.4703    2.0967   29.0278 C   0  0  0  0  0  0  0  0  0  0  0  0
  -25.5624    3.1500   29.1114 C   0  0  0  0  0  0  0  0  0  0  0  0
  -26.2408    3.3473   30.2584 N   0  0  0  0  0  0  0  0  0  0  0  0
  -27.4644    4.0786   30.2463 C   0  0  0  0  0  0  0  0  0  0  0  0
  -26.1043    3.6041   28.0314 O   0  0  0  0  0  0  0  0  0  0  0  0
  -23.1433    2.1140   31.2439 C   0  0  0  0  0  0  0  0  0  0  0  0
  -25.8312   -0.7964   27.7140 O   0  0  0  0  0  0  0  0  0  0  0  0
  -30.0980   -0.6743   29.8582 C   0  0  0  0  0  0  0  0  0  0  0  0
  -30.6186    0.4130   30.4231 O   0  0  0  0  0  0  0  0  0  0  0  0
  -30.7206   -1.1892   28.9732 O   0  0  0  0  0  0  0  0  0  0  0  0
  -27.5518    5.2524   30.8356 C   0  0  0  0  0  0  0  0  0  0  0  0
  -27.8855    6.2533   30.6775 C   0  0  0  0  0  0  0  0  0  0  0  0
  -27.8894    7.5080   31.4856 C   0  0  0  0  0  0  0  0  0  0  0  0
  -27.3422    7.5114   32.3671 C   0  0  0  0  0  0  0  0  0  0  0  0
  -26.6001    6.3909   32.9711 C   0  0  0  0  0  0  0  0  0  0  0  0
  -26.6751    5.2027   32.1899 C   0  0  0  0  0  0  0  0  0  0  0  0
  -28.7344    6.3954   29.3289 C   0  0  0  0  0  0  0  0  0  0  0  0
  -29.8612    5.6477   29.2495 C   0  0  0  0  0  0  0  0  0  0  0  0
  -30.5855    5.6415   28.0522 C   0  0  0  0  0  0  0  0  0  0  0  0
  -30.0967    6.4627   27.0104 C   0  0  0  0  0  0  0  0  0  0  0  0
  4  7  1  0
  7  8  1  0
  8  9  2  0
  9 10  1  0
  8 11  1  0
 11 12  1  0
 10 13  1  0
 13 15  1  0
 11 16  1  0
 16 17  1  0
 14 18  1  0
 17 18  1  0
 18 19  1  0
 17 20  2  0
 11 21  1  0
  3 22  1  0
  2 23  1  0
 23 24  1  0
 23 25  2  0
 19 26  1  0
 27 32  1  0
 32 33  2  3
 33 34  1  0
 34 35  2  0
 15 16  1  0
 14 12  1  0
 26 27  2  0
 27 28  1  0
 28 29  2  0
 29 30  1  0
 30 31  2  0
 31 26  1  0
  1  2  2  0
  2  5  1  0
  5  6  2  0
  6  4  1  0
  4  3  2  0
  3  1  1  0
M  END

$$$$
