No_4659-gen_results/8p0m/2024-11-26-14-13-15/
     RDKit          3D

 18 20  0  0  0  0  0  0  0  0999 V2000
  -28.0162   -0.8135   28.8779 C   0  0  0  0  0  0  0  0  0  0  0  0
  -27.0636   -0.1190   28.6079 C   0  0  0  0  0  0  0  0  0  0  0  0
  -26.8756    1.1325   28.9134 C   0  0  0  0  0  0  0  0  0  0  0  0
  -27.9014    1.8066   29.6436 C   0  0  0  0  0  0  0  0  0  0  0  0
  -29.0458   -0.2316   29.7181 C   0  0  0  0  0  0  0  0  0  0  0  0
  -28.9402    1.0517   30.0597 C   0  0  0  0  0  0  0  0  0  0  0  0
  -25.8732   -0.7125   27.8045 C   0  0  0  0  0  0  0  0  0  0  0  0
  -25.2858    0.0505   26.8000 C   0  0  0  0  0  0  0  0  0  0  0  0
  -24.4764   -0.2629   26.0153 C   0  0  0  0  0  0  0  0  0  0  0  0
  -24.1615    0.7330   24.8889 C   0  0  0  0  0  0  0  0  0  0  0  0
  -23.9398    1.9234   25.3121 C   0  0  0  0  0  0  0  0  0  0  0  0
  -25.1168    1.5913   26.9841 C   0  0  0  0  0  0  0  0  0  0  0  0
  -24.5432    2.4030   26.2801 C   0  0  0  0  0  0  0  0  0  0  0  0
  -26.1455    2.0332   28.2435 C   0  0  0  0  0  0  0  0  0  0  0  0
  -25.6373    3.1012   28.8073 O   0  0  0  0  0  0  0  0  0  0  0  0
  -30.1390   -1.1643   30.2105 C   0  0  0  0  0  0  0  0  0  0  0  0
  -29.9530   -2.1464   30.8249 O   0  0  0  0  0  0  0  0  0  0  0  0
  -31.3150   -0.5989   30.2514 O   0  0  0  0  0  0  0  0  0  0  0  0
  2  7  1  0
  7  8  1  0
  3 14  1  0
 12 14  1  0
 14 15  2  0
  5 16  1  0
 16 17  2  0
 16 18  1  0
  1  2  2  0
  2  3  1  0
  3  4  2  0
  4  6  1  0
  6  5  2  0
  5  1  1  0
  8  9  2  0
  9 10  1  0
 10 11  2  0
 11 13  1  0
 13 12  2  0
 12  8  1  0
M  END

$$$$
