No_4035-gen_results/8p0m/2024-11-26-14-13-15/
     RDKit          3D

 29 32  0  0  0  0  0  0  0  0999 V2000
  -28.0162   -0.8135   28.8779 C   0  0  0  0  0  0  0  0  0  0  0  0
  -28.4690   -0.7850   29.8287 C   0  0  0  0  0  0  0  0  0  0  0  0
  -27.0871    0.2903   28.6377 C   0  0  0  0  0  0  0  0  0  0  0  0
  -26.2516    0.4114   27.4223 C   0  0  0  0  0  0  0  0  0  0  0  0
  -28.3913    0.1041   30.9805 C   0  0  0  0  0  0  0  0  0  0  0  0
  -27.5332    1.1666   30.7866 C   0  0  0  0  0  0  0  0  0  0  0  0
  -26.8281    1.2557   29.6454 C   0  0  0  0  0  0  0  0  0  0  0  0
  -25.6445    1.6653   27.2216 C   0  0  0  0  0  0  0  0  0  0  0  0
  -25.3909    2.5603   28.2290 C   0  0  0  0  0  0  0  0  0  0  0  0
  -26.0984    2.4436   29.4094 C   0  0  0  0  0  0  0  0  0  0  0  0
  -25.8602    3.5115   30.4219 C   0  0  0  0  0  0  0  0  0  0  0  0
  -26.1611    4.7837   30.1558 N   0  0  0  0  0  0  0  0  0  0  0  0
  -25.8600    5.7605   30.9239 C   0  0  0  0  0  0  0  0  0  0  0  0
  -25.9400    7.4806   30.3587 Br  0  0  0  0  0  0  0  0  0  0  0  0
  -25.4333    5.6381   32.1490 O   0  0  0  0  0  0  0  0  0  0  0  0
  -25.5855    3.1221   31.6027 O   0  0  0  0  0  0  0  0  0  0  0  0
  -24.8427    1.7378   25.9611 C   0  0  0  0  0  0  0  0  0  0  0  0
  -23.7320    2.6395   25.9972 C   0  0  0  0  0  0  0  0  0  0  0  0
  -23.7136    3.6299   27.0396 C   0  0  0  0  0  0  0  0  0  0  0  0
  -24.4615    3.5978   28.0847 C   0  0  0  0  0  0  0  0  0  0  0  0
  -26.3824   -0.4539   26.5456 O   0  0  0  0  0  0  0  0  0  0  0  0
  -29.3343   -1.9137   30.1275 F   0  0  0  0  0  0  0  0  0  0  0  0
  -26.8659    5.0852   28.8735 C   0  0  0  0  0  0  0  0  0  0  0  0
  -28.1229    5.7347   29.0595 C   0  0  0  0  0  0  0  0  0  0  0  0
  -29.0206    5.0925   28.7845 C   0  0  0  0  0  0  0  0  0  0  0  0
  -30.4057    5.6050   28.9608 C   0  0  0  0  0  0  0  0  0  0  0  0
  -30.5271    6.9411   29.3985 C   0  0  0  0  0  0  0  0  0  0  0  0
  -29.4428    7.6724   29.6552 C   0  0  0  0  0  0  0  0  0  0  0  0
  -28.1839    7.0968   29.5129 C   0  0  0  0  0  0  0  0  0  0  0  0
  3  4  1  0
  4  8  1  0
  7 10  1  0
  9 10  1  0
 10 11  1  0
 11 12  1  0
 12 13  1  0
 13 14  1  0
 13 15  2  0
 11 16  2  0
  4 21  2  0
  2 22  1  0
 12 23  1  0
 23 24  1  0
  8 17  2  0
 17 18  1  0
 18 19  2  0
 19 20  1  0
 20  9  2  0
  9  8  1  0
 24 25  2  0
 25 26  1  0
 26 27  2  0
 27 28  1  0
 28 29  2  0
 29 24  1  0
  1  2  2  0
  2  5  1  0
  5  6  2  0
  6  7  1  0
  7  3  2  0
  3  1  1  0
M  END

$$$$
