No_4947-gen_results/8p0m/2024-11-26-14-13-15/
     RDKit          3D

 24 25  0  0  0  0  0  0  0  0999 V2000
  -28.0162   -0.8135   28.8779 C   0  0  0  0  0  0  0  0  0  0  0  0
  -28.4690   -0.7850   29.8287 C   0  0  0  0  0  0  0  0  0  0  0  0
  -27.0871    0.2903   28.6377 C   0  0  0  0  0  0  0  0  0  0  0  0
  -26.8317    1.2487   29.5869 C   0  0  0  0  0  0  0  0  0  0  0  0
  -28.3914    0.0801   31.0065 C   0  0  0  0  0  0  0  0  0  0  0  0
  -27.4940    1.1521   30.7841 C   0  0  0  0  0  0  0  0  0  0  0  0
  -26.3172    0.3994   27.3653 C   0  0  0  0  0  0  0  0  0  0  0  0
  -26.8815    0.9711   26.3721 C   0  0  0  0  0  0  0  0  0  0  0  0
  -26.1465    0.9703   25.0973 C   0  0  0  0  0  0  0  0  0  0  0  0
  -24.7793    0.5609   25.1117 C   0  0  0  0  0  0  0  0  0  0  0  0
  -25.0074   -0.1159   27.2986 C   0  0  0  0  0  0  0  0  0  0  0  0
  -24.2881    0.0057   26.2234 C   0  0  0  0  0  0  0  0  0  0  0  0
  -24.5465   -0.5750   28.5080 F   0  0  0  0  0  0  0  0  0  0  0  0
  -28.5020    1.4950   26.2450 Cl  0  0  0  0  0  0  0  0  0  0  0  0
  -29.3939   -1.8779   30.1495 O   0  0  0  0  0  0  0  0  0  0  0  0
  -30.6520   -1.6377   30.0868 C   0  0  0  0  0  0  0  0  0  0  0  0
  -31.3543   -2.8314   29.9685 C   0  0  0  0  0  0  0  0  0  0  0  0
  -32.1823   -2.9589   29.1536 O   0  0  0  0  0  0  0  0  0  0  0  0
  -31.3990   -3.6935   30.9864 O   0  0  0  0  0  0  0  0  0  0  0  0
  -31.1395   -0.5522   29.9104 O   0  0  0  0  0  0  0  0  0  0  0  0
  -27.2950    2.1566   31.8678 C   0  0  0  0  0  0  0  0  0  0  0  0
  -27.5604    1.8443   33.0042 F   0  0  0  0  0  0  0  0  0  0  0  0
  -27.9721    3.3258   31.5567 F   0  0  0  0  0  0  0  0  0  0  0  0
  -25.9719    2.5344   31.8263 F   0  0  0  0  0  0  0  0  0  0  0  0
  3  7  1  0
 11 13  1  0
  8 14  1  0
  2 15  1  0
 15 16  1  0
 16 17  1  0
 17 18  2  0
 17 19  1  0
 16 20  2  0
  6 21  1  0
 21 22  1  0
 21 23  1  0
 21 24  1  0
  7  8  2  0
  8  9  1  0
  9 10  2  0
 10 12  1  0
 12 11  2  0
 11  7  1  0
  1  2  2  0
  2  5  1  0
  5  6  2  0
  6  4  1  0
  4  3  2  0
  3  1  1  0
M  END

$$$$
