No_4189-gen_results/8p0m/2024-11-26-14-13-15/
     RDKit          3D

 14 14  0  0  0  0  0  0  0  0999 V2000
  -28.0162   -0.8135   28.8779 C   0  0  0  0  0  0  0  0  0  0  0  0
  -27.0636   -0.1189   28.6079 C   0  0  0  0  0  0  0  0  0  0  0  0
  -27.0010    0.6913   27.4910 C   0  0  0  0  0  0  0  0  0  0  0  0
  -25.8548    1.4825   27.0830 C   0  0  0  0  0  0  0  0  0  0  0  0
  -24.6901    1.4526   27.8807 C   0  0  0  0  0  0  0  0  0  0  0  0
  -24.7379    0.6010   29.0416 C   0  0  0  0  0  0  0  0  0  0  0  0
  -25.8234   -0.1688   29.3887 C   0  0  0  0  0  0  0  0  0  0  0  0
  -29.0018   -0.5559   28.2415 F   0  0  0  0  0  0  0  0  0  0  0  0
  -28.3558   -0.6840   30.2688 F   0  0  0  0  0  0  0  0  0  0  0  0
  -23.5136    2.2142   27.5784 C   0  0  0  0  0  0  0  0  0  0  0  0
  -22.4029    1.9937   28.1407 O   0  0  0  0  0  0  0  0  0  0  0  0
  -23.4192    2.7679   26.3312 O   0  0  0  0  0  0  0  0  0  0  0  0
  -23.3254    0.4738   30.0394 Cl  0  0  0  0  0  0  0  0  0  0  0  0
  -27.7077   -2.1221   28.8808 F   0  0  0  0  0  0  0  0  0  0  0  0
  1  2  1  0
  1  8  1  0
  1  9  1  0
  5 10  1  0
 10 11  2  0
 10 12  1  0
  6 13  1  0
  1 14  1  0
  2  3  2  0
  3  4  1  0
  4  5  2  0
  5  6  1  0
  6  7  2  0
  7  2  1  0
M  END

$$$$
