No_4355-gen_results/8p0m/2024-11-26-14-13-15/
     RDKit          3D

 29 31  0  0  0  0  0  0  0  0999 V2000
  -28.0162   -0.8135   28.8779 C   0  0  0  0  0  0  0  0  0  0  0  0
  -27.0636   -0.1189   28.6079 C   0  0  0  0  0  0  0  0  0  0  0  0
  -25.7923   -0.4302   29.0761 C   0  0  0  0  0  0  0  0  0  0  0  0
  -24.5456    0.3494   28.8225 C   0  0  0  0  0  0  0  0  0  0  0  0
  -23.2409    0.0217   29.3323 C   0  0  0  0  0  0  0  0  0  0  0  0
  -27.8820   -1.8995   29.8633 C   0  0  0  0  0  0  0  0  0  0  0  0
  -26.6526   -2.3142   30.3138 C   0  0  0  0  0  0  0  0  0  0  0  0
  -25.5153   -1.5607   29.9787 C   0  0  0  0  0  0  0  0  0  0  0  0
  -23.2072   -1.2289   30.0311 C   0  0  0  0  0  0  0  0  0  0  0  0
  -24.2434   -1.9361   30.3879 C   0  0  0  0  0  0  0  0  0  0  0  0
  -24.5768    1.5651   27.9574 C   0  0  0  0  0  0  0  0  0  0  0  0
  -23.6131    1.7738   27.1396 N   0  0  0  0  0  0  0  0  0  0  0  0
  -22.3900    1.9189   27.5728 C   0  0  0  0  0  0  0  0  0  0  0  0
  -23.8639    1.8719   25.7621 C   0  0  0  0  0  0  0  0  0  0  0  0
  -29.0124   -2.6191   30.1674 O   0  0  0  0  0  0  0  0  0  0  0  0
  -29.3514   -2.7477   31.5373 C   0  0  0  0  0  0  0  0  0  0  0  0
  -30.7294   -2.6484   31.7527 C   0  0  0  0  0  0  0  0  0  0  0  0
  -31.4916   -2.2557   30.7583 C   0  0  0  0  0  0  0  0  0  0  0  0
  -31.1469   -1.1976   30.0486 C   0  0  0  0  0  0  0  0  0  0  0  0
  -30.9009   -0.2239   30.7002 O   0  0  0  0  0  0  0  0  0  0  0  0
  -31.8498   -3.4390   29.8960 O   0  0  0  0  0  0  0  0  0  0  0  0
  -31.6859   -0.9341   28.8128 N   0  0  0  0  0  0  0  0  0  0  0  0
  -31.8887    0.0240   28.2603 C   0  0  0  0  0  0  0  0  0  0  0  0
  -32.7088    0.3624   27.5048 C   0  0  0  0  0  0  0  0  0  0  0  0
  -31.3729   -3.9355   32.8146 Cl  0  0  0  0  0  0  0  0  0  0  0  0
  -32.8786    1.6416   26.8158 C   0  0  0  0  0  0  0  0  0  0  0  0
  -31.9059    2.6137   27.0315 C   0  0  0  0  0  0  0  0  0  0  0  0
  -30.8021    2.2989   27.8269 C   0  0  0  0  0  0  0  0  0  0  0  0
  -30.7565    1.1341   28.4405 C   0  0  0  0  0  0  0  0  0  0  0  0
  4 11  1  0
 11 12  1  0
 12 13  1  0
 12 14  1  0
  6 15  1  0
 15 16  1  0
 16 17  1  0
 17 18  1  0
 18 19  1  0
 19 20  2  0
 18 21  1  0
 19 22  1  0
 22 23  1  0
 17 25  1  0
 23 24  2  0
 24 26  1  0
 26 27  2  0
 27 28  1  0
 28 29  2  0
 29 23  1  0
  1  2  2  0
  2  3  1  0
  8  7  1  0
  7  6  2  0
  6  1  1  0
  3  4  2  0
  4  5  1  0
  5  9  2  0
  9 10  1  0
 10  8  2  0
  8  3  1  0
M  END

$$$$
