No_4778-gen_results/8p0m/2024-11-26-14-13-15/
     RDKit          3D

 27 29  0  0  0  0  0  0  0  0999 V2000
  -28.0162   -0.8135   28.8779 C   0  0  0  0  0  0  0  0  0  0  0  0
  -27.0636   -0.1190   28.6079 C   0  0  0  0  0  0  0  0  0  0  0  0
  -25.7923   -0.4302   29.0761 C   0  0  0  0  0  0  0  0  0  0  0  0
  -24.5456    0.3494   28.8225 C   0  0  0  0  0  0  0  0  0  0  0  0
  -24.6586    1.4196   27.8878 C   0  0  0  0  0  0  0  0  0  0  0  0
  -25.9471    1.6811   27.3792 C   0  0  0  0  0  0  0  0  0  0  0  0
  -26.8806    0.9300   27.7124 C   0  0  0  0  0  0  0  0  0  0  0  0
  -28.0928   -1.4808   30.2234 C   0  0  0  0  0  0  0  0  0  0  0  0
  -29.1781   -2.1384   30.5852 N   0  0  0  0  0  0  0  0  0  0  0  0
  -23.4294    2.1633   27.6072 C   0  0  0  0  0  0  0  0  0  0  0  0
  -22.5051    1.8089   27.2147 N   0  0  0  0  0  0  0  0  0  0  0  0
  -23.6767    3.5737   27.5476 N   0  0  0  0  0  0  0  0  0  0  0  0
  -29.1557   -3.2590   31.2705 C   0  0  0  0  0  0  0  0  0  0  0  0
  -30.4664   -1.6176   30.3698 C   0  0  0  0  0  0  0  0  0  0  0  0
  -31.4937   -2.4558   30.3545 C   0  0  0  0  0  0  0  0  0  0  0  0
  -30.1739   -4.2535   31.2455 C   0  0  0  0  0  0  0  0  0  0  0  0
  -31.4285   -3.7117   30.9656 C   0  0  0  0  0  0  0  0  0  0  0  0
  -27.3548   -0.9029   31.1618 O   0  0  0  0  0  0  0  0  0  0  0  0
  -32.5854   -4.6237   31.0459 C   0  0  0  0  0  0  0  0  0  0  0  0
  -32.5976   -5.6638   30.8429 C   0  0  0  0  0  0  0  0  0  0  0  0
  -33.7272   -6.6437   30.9721 C   0  0  0  0  0  0  0  0  0  0  0  0
  -34.9289   -6.0064   31.2876 C   0  0  0  0  0  0  0  0  0  0  0  0
  -34.9627   -4.6929   31.5020 C   0  0  0  0  0  0  0  0  0  0  0  0
  -33.8150   -3.8745   31.4279 C   0  0  0  0  0  0  0  0  0  0  0  0
  -36.2351   -4.0245   31.8883 C   0  0  0  0  0  0  0  0  0  0  0  0
  -36.8306   -4.3494   32.9831 C   0  0  0  0  0  0  0  0  0  0  0  0
  -38.0715   -3.7086   33.3408 C   0  0  0  0  0  0  0  0  0  0  0  0
  1  2  1  0
  1  8  1  0
  8  9  1  0
  5 10  1  0
 10 11  2  0
 10 12  1  0
  9 13  1  0
  9 14  1  0
 15 17  1  0
 16 17  1  0
  8 18  2  0
 17 19  1  0
 23 25  1  0
 25 26  2  3
 26 27  1  0
 13 16  1  0
 15 14  1  0
  2  3  2  0
  3  4  1  0
  4  5  2  0
  5  6  1  0
  6  7  2  0
  7  2  1  0
 19 20  2  0
 20 21  1  0
 21 22  2  0
 22 23  1  0
 23 24  2  0
 24 19  1  0
M  END

$$$$
