No_4761-gen_results/8p0m/2024-11-26-14-13-15/
     RDKit          3D

 21 22  0  0  0  0  0  0  0  0999 V2000
  -28.1229   -1.3353   28.4874 O   0  0  0  0  0  0  0  0  0  0  0  0
  -27.4806   -0.4044   28.7094 C   0  0  0  0  0  0  0  0  0  0  0  0
  -26.3804   -0.0867   27.9394 C   0  0  0  0  0  0  0  0  0  0  0  0
  -27.6664    0.4468   29.8988 N   0  0  0  0  0  0  0  0  0  0  0  0
  -26.4087    0.8567   26.8802 C   0  0  0  0  0  0  0  0  0  0  0  0
  -25.0824   -0.6970   28.1699 C   0  0  0  0  0  0  0  0  0  0  0  0
  -25.2843    1.0488   26.0470 C   0  0  0  0  0  0  0  0  0  0  0  0
  -23.8947   -0.3309   27.4777 C   0  0  0  0  0  0  0  0  0  0  0  0
  -24.0554    0.5635   26.3806 C   0  0  0  0  0  0  0  0  0  0  0  0
  -28.7860    0.1100   30.7785 C   0  0  0  0  0  0  0  0  0  0  0  0
  -26.8471    1.5250   30.2217 C   0  0  0  0  0  0  0  0  0  0  0  0
  -27.2190    2.6014   30.2577 C   0  0  0  0  0  0  0  0  0  0  0  0
  -26.2856    3.6994   30.4674 C   0  0  0  0  0  0  0  0  0  0  0  0
  -24.9093    3.3492   30.5215 C   0  0  0  0  0  0  0  0  0  0  0  0
  -24.6920    1.9571   30.4642 C   0  0  0  0  0  0  0  0  0  0  0  0
  -25.5238    1.0792   30.2946 C   0  0  0  0  0  0  0  0  0  0  0  0
  -23.1153    1.6771   30.6052 C   0  0  0  0  0  0  0  0  0  0  0  0
  -22.7579    0.4796   30.9014 O   0  0  0  0  0  0  0  0  0  0  0  0
  -27.6706    1.4609   26.4841 C   0  0  0  0  0  0  0  0  0  0  0  0
  -28.1712    2.2572   27.0797 C   0  0  0  0  0  0  0  0  0  0  0  0
  -29.2254    3.1686   26.7690 C   0  0  0  0  0  0  0  0  0  0  0  0
  1  2  2  0
  2  3  1  0
  2  4  1  0
  4 10  1  0
  4 11  1  0
 15 17  1  0
 17 18  2  0
  5 19  1  0
 19 20  2  3
 20 21  1  0
 11 12  2  0
 12 13  1  0
 13 14  2  0
 14 15  1  0
 15 16  2  0
 16 11  1  0
  3  5  2  0
  5  7  1  0
  7  9  2  0
  9  8  1  0
  8  6  2  0
  6  3  1  0
M  END

$$$$
