No_4293-gen_results/8p0m/2024-11-26-14-13-15/
     RDKit          3D

 16 16  0  0  0  0  0  0  0  0999 V2000
  -28.0162   -0.8135   28.8779 C   0  0  0  0  0  0  0  0  0  0  0  0
  -28.4690   -0.7850   29.8287 C   0  0  0  0  0  0  0  0  0  0  0  0
  -26.5042   -0.7777   28.8766 C   0  0  0  0  0  0  0  0  0  0  0  0
  -26.0808   -1.8936   29.1655 F   0  0  0  0  0  0  0  0  0  0  0  0
  -25.9581    0.1184   29.7237 F   0  0  0  0  0  0  0  0  0  0  0  0
  -25.9513   -0.4199   27.6514 F   0  0  0  0  0  0  0  0  0  0  0  0
  -29.9693   -1.1330   30.0329 C   0  0  0  0  0  0  0  0  0  0  0  0
  -30.3518   -1.8783   31.1310 C   0  0  0  0  0  0  0  0  0  0  0  0
  -31.3350   -2.5388   31.2455 N   0  0  0  0  0  0  0  0  0  0  0  0
  -29.3638   -1.9767   32.3511 C   0  0  0  0  0  0  0  0  0  0  0  0
  -28.0732   -1.5633   32.2403 C   0  0  0  0  0  0  0  0  0  0  0  0
  -27.5856   -1.1035   30.9576 C   0  0  0  0  0  0  0  0  0  0  0  0
  -26.2739   -0.8426   31.0460 C   0  0  0  0  0  0  0  0  0  0  0  0
  -25.2997   -1.5099   31.2030 F   0  0  0  0  0  0  0  0  0  0  0  0
  -26.0963    0.4149   31.8231 F   0  0  0  0  0  0  0  0  0  0  0  0
  -25.8884   -1.1495   31.9319 F   0  0  0  0  0  0  0  0  0  0  0  0
  1  2  1  0
  1  3  1  0
  3  4  1  0
  3  5  1  0
  3  6  1  0
 12 13  1  0
 13 14  1  0
 13 15  1  0
 13 16  1  0
  9  8  1  0
  2  7  2  0
  7  8  1  0
  8 10  2  0
 10 11  1  0
 11 12  2  0
 12  2  1  0
M  END

$$$$
