No_4334-gen_results/8p0m/2024-11-26-14-13-15/
     RDKit          3D

 18 18  0  0  0  0  0  0  0  0999 V2000
  -28.0162   -0.8135   28.8779 C   0  0  0  0  0  0  0  0  0  0  0  0
  -28.4690   -0.7850   29.8287 C   0  0  0  0  0  0  0  0  0  0  0  0
  -26.5455   -0.8762   28.8500 C   0  0  0  0  0  0  0  0  0  0  0  0
  -25.8041   -1.0324   30.0571 C   0  0  0  0  0  0  0  0  0  0  0  0
  -24.3697   -1.0998   30.0718 C   0  0  0  0  0  0  0  0  0  0  0  0
  -27.9902   -1.0051   31.2092 C   0  0  0  0  0  0  0  0  0  0  0  0
  -26.5616   -1.1368   31.2600 C   0  0  0  0  0  0  0  0  0  0  0  0
  -23.7274    0.1713   30.0259 C   0  0  0  0  0  0  0  0  0  0  0  0
  -24.0505    1.2537   30.5567 C   0  0  0  0  0  0  0  0  0  0  0  0
  -25.2808    1.3877   31.2587 C   0  0  0  0  0  0  0  0  0  0  0  0
  -25.5434    2.7501   31.7924 C   0  0  0  0  0  0  0  0  0  0  0  0
  -24.8429    3.7717   31.3276 C   0  0  0  0  0  0  0  0  0  0  0  0
  -25.2407    5.0209   31.8922 F   0  0  0  0  0  0  0  0  0  0  0  0
  -24.5832    3.9383   30.3083 F   0  0  0  0  0  0  0  0  0  0  0  0
  -25.5990   -0.6889   27.4397 Cl  0  0  0  0  0  0  0  0  0  0  0  0
  -22.3929    0.0585   29.2291 C   0  0  0  0  0  0  0  0  0  0  0  0
  -21.7119    0.1260   28.3212 N   0  0  0  0  0  0  0  0  0  0  0  0
  -25.5425    2.6498   33.2415 F   0  0  0  0  0  0  0  0  0  0  0  0
  4  5  1  0
  5  8  1  0
  8  9  2  3
  9 10  1  0
 10 11  2  3
 11 12  1  0
 12 13  1  0
 12 14  1  0
  3 15  1  0
  8 16  1  0
 16 17  3  0
 11 18  1  0
  1  2  2  0
  2  6  1  0
  6  7  2  0
  7  4  1  0
  4  3  2  0
  3  1  1  0
M  END

$$$$
