No_4163-gen_results/8p0m/2024-11-26-14-13-15/
     RDKit          3D

 33 35  0  0  0  0  0  0  0  0999 V2000
  -28.0162   -0.8135   28.8779 C   0  0  0  0  0  0  0  0  0  0  0  0
  -27.0636   -0.1190   28.6079 C   0  0  0  0  0  0  0  0  0  0  0  0
  -25.7647   -0.3897   29.0360 C   0  0  0  0  0  0  0  0  0  0  0  0
  -25.5296   -1.5302   29.9014 C   0  0  0  0  0  0  0  0  0  0  0  0
  -26.6577   -2.2915   30.2035 C   0  0  0  0  0  0  0  0  0  0  0  0
  -27.8548   -1.9555   29.7630 C   0  0  0  0  0  0  0  0  0  0  0  0
  -24.5441    0.4126   28.7379 C   0  0  0  0  0  0  0  0  0  0  0  0
  -23.3231    0.0476   29.0499 C   0  0  0  0  0  0  0  0  0  0  0  0
  -22.1997    0.8411   28.7194 C   0  0  0  0  0  0  0  0  0  0  0  0
  -22.3632    1.8394   27.7172 C   0  0  0  0  0  0  0  0  0  0  0  0
  -24.6043    1.5165   27.8119 C   0  0  0  0  0  0  0  0  0  0  0  0
  -23.5582    2.1898   27.3588 C   0  0  0  0  0  0  0  0  0  0  0  0
  -29.0252   -2.7803   30.1840 C   0  0  0  0  0  0  0  0  0  0  0  0
  -28.9454   -4.0124   30.2582 O   0  0  0  0  0  0  0  0  0  0  0  0
  -30.1122   -2.2285   30.5217 O   0  0  0  0  0  0  0  0  0  0  0  0
  -23.5483    3.2149   26.4327 N   0  0  0  0  0  0  0  0  0  0  0  0
  -24.5508    4.1606   26.5601 C   0  0  0  0  0  0  0  0  0  0  0  0
  -23.6067    2.6333   25.0040 C   0  0  0  0  0  0  0  0  0  0  0  0
  -23.9956    5.3836   27.0260 C   0  0  0  0  0  0  0  0  0  0  0  0
  -24.9516    6.5344   27.3187 C   0  0  0  0  0  0  0  0  0  0  0  0
  -24.4775    7.7718   27.7498 C   0  0  0  0  0  0  0  0  0  0  0  0
  -25.2003    8.6634   28.5332 C   0  0  0  0  0  0  0  0  0  0  0  0
  -24.6955    9.8492   29.0693 C   0  0  0  0  0  0  0  0  0  0  0  0
  -25.4671   10.8060   29.7295 C   0  0  0  0  0  0  0  0  0  0  0  0
  -26.8088   10.4184   29.9462 C   0  0  0  0  0  0  0  0  0  0  0  0
  -27.3323    9.3027   29.4893 C   0  0  0  0  0  0  0  0  0  0  0  0
  -26.5617    8.4006   28.7401 C   0  0  0  0  0  0  0  0  0  0  0  0
  -25.7574    4.0146   26.3261 O   0  0  0  0  0  0  0  0  0  0  0  0
  -27.7701   11.5790   30.8713 Cl  0  0  0  0  0  0  0  0  0  0  0  0
  -30.3926   -1.2513   30.8813 C   0  0  0  0  0  0  0  0  0  0  0  0
  -30.1365   -0.9017   32.2061 C   0  0  0  0  0  0  0  0  0  0  0  0
  -30.3497   -1.6581   33.1954 C   0  0  0  0  0  0  0  0  0  0  0  0
  -29.9625   -1.3685   34.5810 C   0  0  0  0  0  0  0  0  0  0  0  0
  3  7  1  0
  6 13  1  0
 13 14  2  0
 13 15  1  0
 12 16  1  0
 16 17  1  0
 16 18  1  0
 17 19  1  0
 19 20  2  3
 20 21  1  0
 17 28  2  0
 25 29  1  0
 15 30  1  0
 30 31  2  3
 31 32  1  0
 32 33  2  0
 21 22  1  0
  7  8  2  0
  8  9  1  0
  9 10  2  0
 10 12  1  0
 12 11  2  0
 11  7  1  0
  1  2  2  0
  2  3  1  0
  3  4  2  0
  4  5  1  0
  5  6  2  0
  6  1  1  0
 22 23  2  0
 23 24  1  0
 24 25  2  0
 25 26  1  0
 26 27  2  0
 27 22  1  0
M  END

$$$$
