No_4631-gen_results/8p0m/2024-11-26-14-13-15/
     RDKit          3D

 35 38  0  0  0  0  0  0  0  0999 V2000
  -28.1229   -1.3353   28.4874 O   0  0  0  0  0  0  0  0  0  0  0  0
  -27.4806   -0.4044   28.7094 C   0  0  0  0  0  0  0  0  0  0  0  0
  -26.4599   -0.1104   28.0051 N   0  0  0  0  0  0  0  0  0  0  0  0
  -26.1476   -0.4948   26.8760 C   0  0  0  0  0  0  0  0  0  0  0  0
  -27.6421    0.4982   29.9779 C   0  0  0  0  0  0  0  0  0  0  0  0
  -28.6119    0.4386   30.6246 C   0  0  0  0  0  0  0  0  0  0  0  0
  -28.7830    1.2025   31.7777 C   0  0  0  0  0  0  0  0  0  0  0  0
  -27.7572    2.1448   32.1191 C   0  0  0  0  0  0  0  0  0  0  0  0
  -26.5881    2.1998   31.3265 C   0  0  0  0  0  0  0  0  0  0  0  0
  -26.4555    1.3126   30.2047 C   0  0  0  0  0  0  0  0  0  0  0  0
  -26.0492    0.6678   25.8288 C   0  0  0  0  0  0  0  0  0  0  0  0
  -26.6878    0.5042   24.7488 C   0  0  0  0  0  0  0  0  0  0  0  0
  -24.9903    1.6338   25.9770 C   0  0  0  0  0  0  0  0  0  0  0  0
  -23.8411    1.5434   26.6885 C   0  0  0  0  0  0  0  0  0  0  0  0
  -22.7279    2.3241   26.6710 C   0  0  0  0  0  0  0  0  0  0  0  0
  -21.6896    2.1722   27.5617 C   0  0  0  0  0  0  0  0  0  0  0  0
  -21.6694    0.9790   28.4228 C   0  0  0  0  0  0  0  0  0  0  0  0
  -22.7613    0.1878   28.4646 C   0  0  0  0  0  0  0  0  0  0  0  0
  -23.8026    0.4362   27.6768 C   0  0  0  0  0  0  0  0  0  0  0  0
  -22.8284   -0.9113   29.4538 C   0  0  0  0  0  0  0  0  0  0  0  0
  -22.2779   -0.7285   30.7438 C   0  0  0  0  0  0  0  0  0  0  0  0
  -23.6051   -2.0580   29.0923 C   0  0  0  0  0  0  0  0  0  0  0  0
  -25.4815    3.0880   31.6647 C   0  0  0  0  0  0  0  0  0  0  0  0
  -25.4509    3.7348   32.5747 O   0  0  0  0  0  0  0  0  0  0  0  0
  -24.3944    2.8397   30.9891 O   0  0  0  0  0  0  0  0  0  0  0  0
  -27.8127    1.3963   24.4720 C   0  0  0  0  0  0  0  0  0  0  0  0
  -29.0043    1.0771   23.8298 C   0  0  0  0  0  0  0  0  0  0  0  0
  -30.0066    1.9932   23.7366 C   0  0  0  0  0  0  0  0  0  0  0  0
  -31.2263    1.8390   23.0915 C   0  0  0  0  0  0  0  0  0  0  0  0
  -32.1100    2.8755   22.7944 C   0  0  0  0  0  0  0  0  0  0  0  0
  -31.9903    4.0671   23.5357 C   0  0  0  0  0  0  0  0  0  0  0  0
  -30.9327    4.1974   24.4431 C   0  0  0  0  0  0  0  0  0  0  0  0
  -29.8957    3.2654   24.5173 C   0  0  0  0  0  0  0  0  0  0  0  0
  -27.7114    2.7649   25.0966 C   0  0  0  0  0  0  0  0  0  0  0  0
  -28.6833    3.5290   25.1831 C   0  0  0  0  0  0  0  0  0  0  0  0
  1  2  2  0
  2  3  1  0
  3  4  1  0
  2  5  1  0
  4 11  1  0
 11 12  2  3
 11 13  1  0
 13 14  1  0
 18 20  1  0
 20 21  1  0
 20 22  1  0
  9 23  1  0
 23 24  2  0
 23 25  1  0
 12 26  1  0
 26 27  2  0
 27 28  1  0
 33 35  1  0
 35 34  2  0
 34 26  1  0
 14 15  2  0
 15 16  1  0
 16 17  2  0
 17 18  1  0
 18 19  2  0
 19 14  1  0
  5  6  2  0
  6  7  1  0
  7  8  2  0
  8  9  1  0
  9 10  2  0
 10  5  1  0
 28 29  2  0
 29 30  1  0
 30 31  2  0
 31 32  1  0
 32 33  2  0
 33 28  1  0
M  END

$$$$
