No_4339-gen_results/8p0m/2024-11-26-14-13-15/
     RDKit          3D

 19 19  0  0  0  0  0  0  0  0999 V2000
  -28.0162   -0.8135   28.8779 C   0  0  0  0  0  0  0  0  0  0  0  0
  -27.0636   -0.1189   28.6079 C   0  0  0  0  0  0  0  0  0  0  0  0
  -27.0010    0.6913   27.4910 C   0  0  0  0  0  0  0  0  0  0  0  0
  -28.1420    0.8282   26.7994 C   0  0  0  0  0  0  0  0  0  0  0  0
  -29.2898   -0.4871   28.3661 C   0  0  0  0  0  0  0  0  0  0  0  0
  -29.2849    0.2608   27.2623 C   0  0  0  0  0  0  0  0  0  0  0  0
  -27.9393   -1.6862   30.1403 C   0  0  0  0  0  0  0  0  0  0  0  0
  -28.6760   -1.9168   30.8763 O   0  0  0  0  0  0  0  0  0  0  0  0
  -26.7752   -2.4775   30.1211 O   0  0  0  0  0  0  0  0  0  0  0  0
  -30.5366    0.4744   26.4864 C   0  0  0  0  0  0  0  0  0  0  0  0
  -31.4885    0.0314   26.7235 O   0  0  0  0  0  0  0  0  0  0  0  0
  -30.4874    1.4911   25.5469 N   0  0  0  0  0  0  0  0  0  0  0  0
  -31.6698    1.8366   24.7265 C   0  0  0  0  0  0  0  0  0  0  0  0
  -25.8783    1.4606   26.9398 C   0  0  0  0  0  0  0  0  0  0  0  0
  -25.1031    2.2194   27.9333 C   0  0  0  0  0  0  0  0  0  0  0  0
  -23.8743    1.8384   28.4187 C   0  0  0  0  0  0  0  0  0  0  0  0
  -23.7628    0.6825   28.4792 O   0  0  0  0  0  0  0  0  0  0  0  0
  -22.9943    0.1641   29.7100 C   0  0  0  0  0  0  0  0  0  0  0  0
  -25.7336    3.3380   28.5237 N   0  0  0  0  0  0  0  0  0  0  0  0
  1  7  1  0
  7  8  2  0
  7  9  1  0
  6 10  1  0
 10 11  2  0
 10 12  1  0
 12 13  1  0
  3 14  1  0
 14 15  1  0
 15 16  1  0
 16 17  1  0
 17 18  1  0
 15 19  2  0
  1  2  2  0
  2  3  1  0
  3  4  2  0
  4  6  1  0
  6  5  2  0
  5  1  1  0
M  END

$$$$
