No_4844-gen_results/8p0m/2024-11-26-14-13-15/
     RDKit          3D

  7  6  0  0  0  0  0  0  0  0999 V2000
  -28.1229   -1.3353   28.4874 O   0  0  0  0  0  0  0  0  0  0  0  0
  -27.0637   -0.8242   28.8687 C   0  0  0  0  0  0  0  0  0  0  0  0
  -26.4017   -0.0623   28.6224 C   0  0  0  0  0  0  0  0  0  0  0  0
  -26.4746   -1.7566   29.9709 F   0  0  0  0  0  0  0  0  0  0  0  0
  -24.9388    0.1669   28.8608 C   0  0  0  0  0  0  0  0  0  0  0  0
  -24.4472   -0.8731   29.8270 C   0  0  0  0  0  0  0  0  0  0  0  0
  -23.0505   -0.8144   30.2049 C   0  0  0  0  0  0  0  0  0  0  0  0
  1  2  2  0
  2  3  1  0
  2  4  1  0
  3  5  2  3
  5  6  1  0
  6  7  1  0
M  END

$$$$
