No_4112-gen_results/8p0m/2024-11-26-14-13-15/
     RDKit          3D

 14 14  0  0  0  0  0  0  0  0999 V2000
  -28.0162   -0.8135   28.8779 C   0  0  0  0  0  0  0  0  0  0  0  0
  -27.0636   -0.1190   28.6079 C   0  0  0  0  0  0  0  0  0  0  0  0
  -25.8176   -0.3427   29.0488 N   0  0  0  0  0  0  0  0  0  0  0  0
  -25.6067   -1.4414   29.8929 C   0  0  0  0  0  0  0  0  0  0  0  0
  -26.6760   -2.2193   30.2363 C   0  0  0  0  0  0  0  0  0  0  0  0
  -27.8635   -1.9317   29.7671 C   0  0  0  0  0  0  0  0  0  0  0  0
  -27.1235    1.1150   27.7507 C   0  0  0  0  0  0  0  0  0  0  0  0
  -27.3033    0.9018   26.5545 O   0  0  0  0  0  0  0  0  0  0  0  0
  -26.9465    2.3911   28.1720 N   0  0  0  0  0  0  0  0  0  0  0  0
  -26.9933    3.5009   27.2686 C   0  0  0  0  0  0  0  0  0  0  0  0
  -26.6587    2.6651   29.5373 C   0  0  0  0  0  0  0  0  0  0  0  0
  -25.6277    2.8722   29.9865 C   0  0  0  0  0  0  0  0  0  0  0  0
  -25.2864    3.0535   31.4142 C   0  0  0  0  0  0  0  0  0  0  0  0
  -24.0339    3.3770   31.9698 C   0  0  0  0  0  0  0  0  0  0  0  0
  2  7  1  0
  7  8  1  0
  7  9  1  0
  9 10  1  0
  9 11  1  0
 11 12  2  3
 12 13  1  0
 13 14  2  0
  1  2  2  0
  2  3  1  0
  3  4  2  0
  4  5  1  0
  5  6  2  0
  6  1  1  0
M  END

$$$$
