No_4434-gen_results/8p0m/2024-11-26-14-13-15/
     RDKit          3D

 14 14  0  0  0  0  0  0  0  0999 V2000
  -28.1229   -1.3353   28.4874 O   0  0  0  0  0  0  0  0  0  0  0  0
  -28.5208   -0.4363   29.0779 C   0  0  0  0  0  0  0  0  0  0  0  0
  -29.6977    0.0507   28.9764 C   0  0  0  0  0  0  0  0  0  0  0  0
  -27.7059   -0.0219   30.1625 N   0  0  0  0  0  0  0  0  0  0  0  0
  -26.3949   -0.3536   30.3653 C   0  0  0  0  0  0  0  0  0  0  0  0
  -29.9125    0.6261   27.6920 C   0  0  0  0  0  0  0  0  0  0  0  0
  -28.9136    1.1132   27.0435 C   0  0  0  0  0  0  0  0  0  0  0  0
  -28.7271    1.0743   25.6481 C   0  0  0  0  0  0  0  0  0  0  0  0
  -27.5179    1.5235   24.9516 C   0  0  0  0  0  0  0  0  0  0  0  0
  -26.4237    1.9527   25.7381 C   0  0  0  0  0  0  0  0  0  0  0  0
  -26.5556    1.9388   27.1272 C   0  0  0  0  0  0  0  0  0  0  0  0
  -27.6901    1.4983   27.7207 C   0  0  0  0  0  0  0  0  0  0  0  0
  -25.7103   -1.0896   29.9369 C   0  0  0  0  0  0  0  0  0  0  0  0
  -26.0536   -2.0413   28.8961 C   0  0  0  0  0  0  0  0  0  0  0  0
  1  2  2  0
  2  3  1  0
  2  4  1  0
  4  5  1  0
  3  6  1  0
  6  7  1  0
  5 13  2  3
 13 14  1  0
  7  8  2  0
  8  9  1  0
  9 10  2  0
 10 11  1  0
 11 12  2  0
 12  7  1  0
M  END

$$$$
