No_482-gen_results/8p0m/2024-11-26-14-13-15/
     RDKit          3D

 29 31  0  0  0  0  0  0  0  0999 V2000
  -28.0162   -0.8135   28.8779 C   0  0  0  0  0  0  0  0  0  0  0  0
  -27.0636   -0.1189   28.6079 C   0  0  0  0  0  0  0  0  0  0  0  0
  -25.7923   -0.4302   29.0761 C   0  0  0  0  0  0  0  0  0  0  0  0
  -25.5756   -1.5654   29.9363 C   0  0  0  0  0  0  0  0  0  0  0  0
  -26.7354   -2.3004   30.2173 C   0  0  0  0  0  0  0  0  0  0  0  0
  -27.9184   -1.9537   29.7629 C   0  0  0  0  0  0  0  0  0  0  0  0
  -27.1057    1.1023   27.7593 C   0  0  0  0  0  0  0  0  0  0  0  0
  -26.7157    2.2350   27.9945 C   0  0  0  0  0  0  0  0  0  0  0  0
  -27.6806    0.8547   26.4259 C   0  0  0  0  0  0  0  0  0  0  0  0
  -26.6450    3.3558   27.2180 C   0  0  0  0  0  0  0  0  0  0  0  0
  -27.7440    1.9438   25.5228 C   0  0  0  0  0  0  0  0  0  0  0  0
  -27.2247    3.2210   25.9315 C   0  0  0  0  0  0  0  0  0  0  0  0
  -29.0600   -2.7834   30.2120 C   0  0  0  0  0  0  0  0  0  0  0  0
  -28.9532   -4.0630   30.5310 N   0  0  0  0  0  0  0  0  0  0  0  0
  -30.2105   -2.2853   30.2071 O   0  0  0  0  0  0  0  0  0  0  0  0
  -30.0480   -4.9580   30.8519 C   0  0  0  0  0  0  0  0  0  0  0  0
  -29.8776   -5.6302   31.9924 C   0  0  0  0  0  0  0  0  0  0  0  0
  -29.5505   -5.1062   33.0790 C   0  0  0  0  0  0  0  0  0  0  0  0
  -29.5342   -5.8606   34.3573 C   0  0  0  0  0  0  0  0  0  0  0  0
  -29.7051   -7.2355   34.2971 C   0  0  0  0  0  0  0  0  0  0  0  0
  -30.2719   -7.0804   32.0612 C   0  0  0  0  0  0  0  0  0  0  0  0
  -30.1448   -7.8031   33.1544 C   0  0  0  0  0  0  0  0  0  0  0  0
  -30.7755   -5.1646   29.8980 O   0  0  0  0  0  0  0  0  0  0  0  0
  -28.3030    1.7726   24.2160 C   0  0  0  0  0  0  0  0  0  0  0  0
  -29.5662    2.3428   24.0045 C   0  0  0  0  0  0  0  0  0  0  0  0
  -30.0151    3.3666   24.7726 C   0  0  0  0  0  0  0  0  0  0  0  0
  -31.3166    3.9313   24.5281 C   0  0  0  0  0  0  0  0  0  0  0  0
  -32.0374    3.4076   23.4472 C   0  0  0  0  0  0  0  0  0  0  0  0
  -33.3204    3.8543   23.1230 C   0  0  0  0  0  0  0  0  0  0  0  0
  2  7  1  0
  6 13  1  0
 13 14  1  0
 13 15  2  0
 14 16  1  0
 16 17  1  0
 16 23  2  0
 11 24  1  0
 24 25  1  0
 25 26  2  3
 26 27  1  0
 27 28  2  3
 28 29  1  0
  1  2  2  0
  2  3  1  0
  3  4  2  0
  4  5  1  0
  5  6  2  0
  6  1  1  0
 17 18  2  0
 18 19  1  0
 19 20  2  0
 20 22  1  0
 22 21  2  0
 21 17  1  0
  7  8  2  0
  8 10  1  0
 10 12  2  0
 12 11  1  0
 11  9  2  0
  9  7  1  0
M  END

$$$$
