No_4294-gen_results/8p0m/2024-11-26-14-13-15/
     RDKit          3D

 26 27  0  0  0  0  0  0  0  0999 V2000
  -28.0162   -0.8135   28.8779 C   0  0  0  0  0  0  0  0  0  0  0  0
  -28.4690   -0.7850   29.8287 C   0  0  0  0  0  0  0  0  0  0  0  0
  -27.1356    0.2359   28.5352 C   0  0  0  0  0  0  0  0  0  0  0  0
  -26.8745    1.2825   29.3982 C   0  0  0  0  0  0  0  0  0  0  0  0
  -28.3613    0.1987   30.9244 C   0  0  0  0  0  0  0  0  0  0  0  0
  -27.5277    1.2234   30.6356 C   0  0  0  0  0  0  0  0  0  0  0  0
  -26.3987    0.2949   27.2279 C   0  0  0  0  0  0  0  0  0  0  0  0
  -25.1481    0.1287   27.3794 N   0  0  0  0  0  0  0  0  0  0  0  0
  -26.9676    0.3869   26.1430 O   0  0  0  0  0  0  0  0  0  0  0  0
  -24.3250    0.0450   28.5471 C   0  0  0  0  0  0  0  0  0  0  0  0
  -23.2561    1.1072   28.5191 C   0  0  0  0  0  0  0  0  0  0  0  0
  -22.2365    1.0055   29.5204 C   0  0  0  0  0  0  0  0  0  0  0  0
  -22.4113   -0.0251   30.4954 C   0  0  0  0  0  0  0  0  0  0  0  0
  -24.1967   -0.8373   29.5031 C   0  0  0  0  0  0  0  0  0  0  0  0
  -25.2291   -1.9473   29.4554 C   0  0  0  0  0  0  0  0  0  0  0  0
  -23.3198   -0.9211   30.5038 C   0  0  0  0  0  0  0  0  0  0  0  0
  -24.7053   -3.1997   29.0434 C   0  0  0  0  0  0  0  0  0  0  0  0
  -25.4969   -4.3754   29.2840 C   0  0  0  0  0  0  0  0  0  0  0  0
  -24.9183   -5.8193   28.8173 Cl  0  0  0  0  0  0  0  0  0  0  0  0
  -26.7937   -4.2925   29.9199 C   0  0  0  0  0  0  0  0  0  0  0  0
  -27.6512   -5.0846   29.5264 F   0  0  0  0  0  0  0  0  0  0  0  0
  -26.5625   -4.3898   31.3099 F   0  0  0  0  0  0  0  0  0  0  0  0
  -27.3118   -3.0291   29.9603 F   0  0  0  0  0  0  0  0  0  0  0  0
  -23.3379    2.1409   27.5588 C   0  0  0  0  0  0  0  0  0  0  0  0
  -23.8050    3.6409   27.9875 Cl  0  0  0  0  0  0  0  0  0  0  0  0
  -22.7566    1.9452   26.2613 C   0  0  0  0  0  0  0  0  0  0  0  0
  3  7  1  0
  7  8  1  0
  7  9  2  0
  8 10  1  0
 14 15  1  0
 15 17  1  0
 17 18  2  3
 18 19  1  0
 18 20  1  0
 20 21  1  0
 20 22  1  0
 20 23  1  0
 11 24  1  0
 24 25  1  0
 24 26  1  0
 10 11  2  0
 11 12  1  0
 12 13  2  0
 13 16  1  0
 16 14  2  0
 14 10  1  0
  1  2  2  0
  2  5  1  0
  5  6  2  0
  6  4  1  0
  4  3  2  0
  3  1  1  0
M  END

$$$$
