No_4400-gen_results/8p0m/2024-11-26-14-13-15/
     RDKit          3D

 18 19  0  0  0  0  0  0  0  0999 V2000
  -28.1229   -1.3353   28.4874 O   0  0  0  0  0  0  0  0  0  0  0  0
  -27.0637   -0.8242   28.8687 C   0  0  0  0  0  0  0  0  0  0  0  0
  -26.4017   -0.0623   28.6224 C   0  0  0  0  0  0  0  0  0  0  0  0
  -26.2652   -1.8674   29.7609 N   0  0  0  0  0  0  0  0  0  0  0  0
  -25.0436    0.3924   29.0662 C   0  0  0  0  0  0  0  0  0  0  0  0
  -24.4726   -0.5445   29.9870 C   0  0  0  0  0  0  0  0  0  0  0  0
  -23.1066   -0.2962   30.5132 C   0  0  0  0  0  0  0  0  0  0  0  0
  -25.0979   -1.7219   30.3405 C   0  0  0  0  0  0  0  0  0  0  0  0
  -26.9046    1.0981   27.6524 C   0  0  0  0  0  0  0  0  0  0  0  0
  -27.0507    2.1102   27.7637 C   0  0  0  0  0  0  0  0  0  0  0  0
  -27.5031    3.1027   26.7178 C   0  0  0  0  0  0  0  0  0  0  0  0
  -27.8566    2.5707   25.4616 C   0  0  0  0  0  0  0  0  0  0  0  0
  -27.6247    1.2378   25.2517 C   0  0  0  0  0  0  0  0  0  0  0  0
  -27.1527    0.4253   26.2423 C   0  0  0  0  0  0  0  0  0  0  0  0
  -23.1205   -0.1418   31.7413 F   0  0  0  0  0  0  0  0  0  0  0  0
  -22.6163    0.9328   30.0307 F   0  0  0  0  0  0  0  0  0  0  0  0
  -22.2380   -1.2076   30.1342 F   0  0  0  0  0  0  0  0  0  0  0  0
  -27.2796   -2.9309   30.1349 C   0  0  0  0  0  0  0  0  0  0  0  0
  1  2  2  0
  2  3  1  0
  2  4  1  0
  5  6  1  0
  6  7  1  0
  4  8  1  0
  6  8  1  0
  3  9  1  0
  7 15  1  0
  7 16  1  0
  7 17  1  0
  4 18  1  0
  3  5  1  0
  9 10  2  0
 10 11  1  0
 11 12  2  0
 12 13  1  0
 13 14  2  0
 14  9  1  0
M  END

$$$$
