No_49-gen_results/8p0m/2024-11-26-14-13-15/
     RDKit          3D

 35 40  0  0  0  0  0  0  0  0999 V2000
  -28.0162   -0.8135   28.8779 C   0  0  0  0  0  0  0  0  0  0  0  0
  -27.0636   -0.1189   28.6079 C   0  0  0  0  0  0  0  0  0  0  0  0
  -26.9287    1.1713   29.0083 C   0  0  0  0  0  0  0  0  0  0  0  0
  -25.7702    2.0341   28.6884 C   0  0  0  0  0  0  0  0  0  0  0  0
  -24.7141    1.4431   27.9188 C   0  0  0  0  0  0  0  0  0  0  0  0
  -24.8590    0.0783   27.5836 C   0  0  0  0  0  0  0  0  0  0  0  0
  -25.9647   -0.6606   27.9164 C   0  0  0  0  0  0  0  0  0  0  0  0
  -28.6995   -0.6441   30.0766 N   0  0  0  0  0  0  0  0  0  0  0  0
  -29.8035   -1.3645   30.5061 C   0  0  0  0  0  0  0  0  0  0  0  0
  -30.3770   -1.0468   31.7411 C   0  0  0  0  0  0  0  0  0  0  0  0
  -23.5470    2.1764   27.5604 C   0  0  0  0  0  0  0  0  0  0  0  0
  -22.4145    1.6928   27.2256 N   0  0  0  0  0  0  0  0  0  0  0  0
  -23.7847    3.3662   27.0491 O   0  0  0  0  0  0  0  0  0  0  0  0
  -29.9863   -0.3005   32.2917 C   0  0  0  0  0  0  0  0  0  0  0  0
  -28.8421    0.5807   32.1551 C   0  0  0  0  0  0  0  0  0  0  0  0
  -28.1985    0.3413   30.9543 C   0  0  0  0  0  0  0  0  0  0  0  0
  -27.2499    1.2586   30.4066 C   0  0  0  0  0  0  0  0  0  0  0  0
  -26.9304    2.4569   31.2466 C   0  0  0  0  0  0  0  0  0  0  0  0
  -25.8799    2.3382   32.1409 C   0  0  0  0  0  0  0  0  0  0  0  0
  -27.6617    3.6111   31.0676 C   0  0  0  0  0  0  0  0  0  0  0  0
  -28.5769    3.9246   30.3416 C   0  0  0  0  0  0  0  0  0  0  0  0
  -29.2725    5.0838   30.2816 C   0  0  0  0  0  0  0  0  0  0  0  0
  -28.8214    6.0884   31.0997 C   0  0  0  0  0  0  0  0  0  0  0  0
  -27.7179    5.9692   31.8986 C   0  0  0  0  0  0  0  0  0  0  0  0
  -27.0925    4.7362   31.9567 C   0  0  0  0  0  0  0  0  0  0  0  0
  -25.9624    4.5256   32.7950 C   0  0  0  0  0  0  0  0  0  0  0  0
  -25.3459    3.3275   32.9394 C   0  0  0  0  0  0  0  0  0  0  0  0
  -25.4210    5.7051   33.6070 C   0  0  0  0  0  0  0  0  0  0  0  0
  -24.5722    6.5405   32.9703 C   0  0  0  0  0  0  0  0  0  0  0  0
  -24.0417    6.5005   31.9824 C   0  0  0  0  0  0  0  0  0  0  0  0
  -23.2220    7.5629   31.6007 N   0  0  0  0  0  0  0  0  0  0  0  0
  -24.1141    7.7896   33.7497 C   0  0  0  0  0  0  0  0  0  0  0  0
  -23.1974    8.2857   32.8011 C   0  0  0  0  0  0  0  0  0  0  0  0
  -25.9083    5.7201   35.0376 C   0  0  0  0  0  0  0  0  0  0  0  0
  -25.2437    5.3150   35.9545 O   0  0  0  0  0  0  0  0  0  0  0  0
  1  2  1  0
  1  8  1  0
  8  9  1  0
  5 11  1  0
 11 12  1  0
 11 13  2  0
 10 14  1  0
  8 16  1  0
 15 16  1  0
  3 17  1  0
 16 17  1  0
 17 18  1  0
 26 28  1  0
 28 29  1  0
 29 30  1  0
 30 31  2  0
 29 32  1  0
 31 33  1  0
 32 33  1  0
 28 34  1  0
 34 35  2  0
  9 10  1  0
 14 15  1  0
 18 19  2  0
 19 27  1  0
 27 26  2  0
 26 25  1  0
 20 18  1  0
  2  7  2  0
  7  6  1  0
  6  5  2  0
  5  4  1  0
  4  3  2  0
  3  2  1  0
 20 21  2  0
 21 22  1  0
 22 23  2  0
 23 24  1  0
 24 25  2  0
 25 20  1  0
M  END

$$$$
