No_4891-gen_results/8p0m/2024-11-26-14-13-15/
     RDKit          3D

 16 17  0  0  0  0  0  0  0  0999 V2000
  -28.0162   -0.8135   28.8779 C   0  0  0  0  0  0  0  0  0  0  0  0
  -28.4690   -0.7850   29.8287 C   0  0  0  0  0  0  0  0  0  0  0  0
  -26.5455   -0.8762   28.8500 C   0  0  0  0  0  0  0  0  0  0  0  0
  -25.8041   -1.0324   30.0571 C   0  0  0  0  0  0  0  0  0  0  0  0
  -26.5373   -1.0386   31.2171 C   0  0  0  0  0  0  0  0  0  0  0  0
  -27.8843   -0.9532   31.1862 C   0  0  0  0  0  0  0  0  0  0  0  0
  -24.3655   -1.1134   30.0483 C   0  0  0  0  0  0  0  0  0  0  0  0
  -23.7447   -1.3690   30.8125 C   0  0  0  0  0  0  0  0  0  0  0  0
  -22.2072   -1.2504   30.8577 C   0  0  0  0  0  0  0  0  0  0  0  0
  -21.6856   -0.8191   29.6527 C   0  0  0  0  0  0  0  0  0  0  0  0
  -23.8081   -0.7876   28.6694 C   0  0  0  0  0  0  0  0  0  0  0  0
  -22.4454   -0.5726   28.5982 C   0  0  0  0  0  0  0  0  0  0  0  0
  -30.0596   -0.6669   29.9155 C   0  0  0  0  0  0  0  0  0  0  0  0
  -30.5099   -0.1877   28.9828 O   0  0  0  0  0  0  0  0  0  0  0  0
  -30.7377   -1.0459   30.9476 O   0  0  0  0  0  0  0  0  0  0  0  0
  -25.8900   -0.8131   27.6911 O   0  0  0  0  0  0  0  0  0  0  0  0
  1  3  1  0
  3  4  1  0
  4  5  1  0
  2  6  1  0
  4  7  1  0
  2 13  1  0
 13 14  2  0
 13 15  1  0
  3 16  2  0
  1  2  1  0
  6  5  1  0
  7  8  2  0
  8  9  1  0
  9 10  2  0
 10 12  1  0
 12 11  2  0
 11  7  1  0
M  END

$$$$
