No_4133-gen_results/8p0m/2024-11-26-14-13-15/
     RDKit          3D

 16 16  0  0  0  0  0  0  0  0999 V2000
  -28.0162   -0.8135   28.8779 C   0  0  0  0  0  0  0  0  0  0  0  0
  -27.0636   -0.1189   28.6079 C   0  0  0  0  0  0  0  0  0  0  0  0
  -26.8756    1.1325   28.9134 C   0  0  0  0  0  0  0  0  0  0  0  0
  -25.6883    1.9515   28.5672 C   0  0  0  0  0  0  0  0  0  0  0  0
  -25.5093    3.3042   28.8859 C   0  0  0  0  0  0  0  0  0  0  0  0
  -29.0972   -0.2347   29.6994 C   0  0  0  0  0  0  0  0  0  0  0  0
  -29.0303    1.0730   30.0324 C   0  0  0  0  0  0  0  0  0  0  0  0
  -27.8549    1.8594   29.6796 C   0  0  0  0  0  0  0  0  0  0  0  0
  -24.6654    1.3370   27.7414 C   0  0  0  0  0  0  0  0  0  0  0  0
  -24.1507    0.2583   27.8326 C   0  0  0  0  0  0  0  0  0  0  0  0
  -24.6498    1.9179   26.4194 C   0  0  0  0  0  0  0  0  0  0  0  0
  -25.1820    3.9815   27.8607 F   0  0  0  0  0  0  0  0  0  0  0  0
  -26.5286    3.8131   29.5293 F   0  0  0  0  0  0  0  0  0  0  0  0
  -24.4911    3.3747   29.8505 F   0  0  0  0  0  0  0  0  0  0  0  0
  -23.6904    1.3196   25.4973 C   0  0  0  0  0  0  0  0  0  0  0  0
  -24.0819   -0.3781   29.2516 C   0  0  0  0  0  0  0  0  0  0  0  0
  3  4  1  0
  4  5  1  0
  4  9  1  0
  9 10  1  0
  9 11  1  0
  5 12  1  0
  5 13  1  0
  5 14  1  0
 11 15  2  0
 10 16  1  0
  1  2  2  0
  2  3  1  0
  3  8  2  0
  8  7  1  0
  7  6  2  0
  6  1  1  0
M  END

$$$$
