No_4963-gen_results/8p0m/2024-11-26-14-13-15/
     RDKit          3D

 33 35  0  0  0  0  0  0  0  0999 V2000
  -28.0162   -0.8135   28.8779 C   0  0  0  0  0  0  0  0  0  0  0  0
  -27.0636   -0.1190   28.6079 C   0  0  0  0  0  0  0  0  0  0  0  0
  -25.7647   -0.3897   29.0360 C   0  0  0  0  0  0  0  0  0  0  0  0
  -25.5296   -1.5302   29.9014 C   0  0  0  0  0  0  0  0  0  0  0  0
  -26.6888   -2.2893   30.1810 C   0  0  0  0  0  0  0  0  0  0  0  0
  -27.8727   -1.9508   29.7373 C   0  0  0  0  0  0  0  0  0  0  0  0
  -24.5491    0.4100   28.7341 C   0  0  0  0  0  0  0  0  0  0  0  0
  -24.4789    1.1871   27.6843 C   0  0  0  0  0  0  0  0  0  0  0  0
  -23.2716    1.8973   27.3731 C   0  0  0  0  0  0  0  0  0  0  0  0
  -22.1063    1.7032   28.0412 C   0  0  0  0  0  0  0  0  0  0  0  0
  -23.3188    0.1792   29.4669 C   0  0  0  0  0  0  0  0  0  0  0  0
  -22.1165    0.8402   29.1011 C   0  0  0  0  0  0  0  0  0  0  0  0
  -28.9582   -2.7065   30.1017 O   0  0  0  0  0  0  0  0  0  0  0  0
  -30.0727   -2.1325   30.5809 C   0  0  0  0  0  0  0  0  0  0  0  0
  -30.5134   -2.8394   31.7130 C   0  0  0  0  0  0  0  0  0  0  0  0
  -31.5172   -2.4028   32.1720 F   0  0  0  0  0  0  0  0  0  0  0  0
  -29.5641   -2.7424   32.6830 F   0  0  0  0  0  0  0  0  0  0  0  0
  -30.6388   -4.1472   31.4666 F   0  0  0  0  0  0  0  0  0  0  0  0
  -29.8123   -0.8822   30.8381 F   0  0  0  0  0  0  0  0  0  0  0  0
  -30.9744   -2.1573   29.5769 F   0  0  0  0  0  0  0  0  0  0  0  0
  -23.3215    2.7688   26.3062 O   0  0  0  0  0  0  0  0  0  0  0  0
  -24.5856    3.2719   25.9682 C   0  0  0  0  0  0  0  0  0  0  0  0
  -27.1725    0.9758   27.7830 O   0  0  0  0  0  0  0  0  0  0  0  0
  -27.9244    0.8388   26.6336 C   0  0  0  0  0  0  0  0  0  0  0  0
  -29.1294    1.4476   26.6916 C   0  0  0  0  0  0  0  0  0  0  0  0
  -29.4942    2.0441   27.6321 O   0  0  0  0  0  0  0  0  0  0  0  0
  -30.1048    0.8852   25.8579 N   0  0  0  0  0  0  0  0  0  0  0  0
  -31.5106    1.2288   25.9285 C   0  0  0  0  0  0  0  0  0  0  0  0
  -27.3194    0.4043   25.6263 O   0  0  0  0  0  0  0  0  0  0  0  0
  -32.2719    0.4590   25.2676 C   0  0  0  0  0  0  0  0  0  0  0  0
  -31.7849   -0.5299   24.4375 C   0  0  0  0  0  0  0  0  0  0  0  0
  -30.4016   -0.8581   24.3899 C   0  0  0  0  0  0  0  0  0  0  0  0
  -29.5666   -0.1459   25.1826 C   0  0  0  0  0  0  0  0  0  0  0  0
  3  7  1  0
  6 13  1  0
 13 14  1  0
 14 15  1  0
 15 16  1  0
 15 17  1  0
 15 18  1  0
 14 19  1  0
 14 20  1  0
  9 21  1  0
 21 22  1  0
  2 23  1  0
 23 24  1  0
 24 25  1  0
 25 26  2  0
 25 27  1  0
 27 28  1  0
 24 29  2  0
 30 31  1  0
 31 32  1  0
 27 33  1  0
 32 33  1  0
 28 30  1  0
  7  8  2  0
  8  9  1  0
  9 10  2  0
 10 12  1  0
 12 11  2  0
 11  7  1  0
  1  2  2  0
  2  3  1  0
  3  4  2  0
  4  5  1  0
  5  6  2  0
  6  1  1  0
M  END

$$$$
