No_4622-gen_results/8p0m/2024-11-26-14-13-15/
     RDKit          3D

 20 23  0  0  0  0  0  0  0  0999 V2000
  -28.0162   -0.8135   28.8779 C   0  0  0  0  0  0  0  0  0  0  0  0
  -28.4690   -0.7850   29.8287 C   0  0  0  0  0  0  0  0  0  0  0  0
  -26.5042   -0.7777   28.8766 C   0  0  0  0  0  0  0  0  0  0  0  0
  -25.7622   -0.0022   27.9705 C   0  0  0  0  0  0  0  0  0  0  0  0
  -24.3914    0.1198   28.1381 C   0  0  0  0  0  0  0  0  0  0  0  0
  -23.7115   -0.7200   29.0863 C   0  0  0  0  0  0  0  0  0  0  0  0
  -24.4207   -1.5358   29.9161 C   0  0  0  0  0  0  0  0  0  0  0  0
  -25.8017   -1.5837   29.8123 C   0  0  0  0  0  0  0  0  0  0  0  0
  -29.9399   -0.6147   29.9523 C   0  0  0  0  0  0  0  0  0  0  0  0
  -30.5535   -0.3493   28.7375 C   0  0  0  0  0  0  0  0  0  0  0  0
  -29.8307   -0.1348   27.6333 C   0  0  0  0  0  0  0  0  0  0  0  0
  -28.5010   -0.1617   27.6990 C   0  0  0  0  0  0  0  0  0  0  0  0
  -27.6082    0.1395   26.5692 C   0  0  0  0  0  0  0  0  0  0  0  0
  -26.3408    0.5023   26.8309 C   0  0  0  0  0  0  0  0  0  0  0  0
  -23.5333    0.9969   27.2938 C   0  0  0  0  0  0  0  0  0  0  0  0
  -22.3140    1.5103   27.8010 C   0  0  0  0  0  0  0  0  0  0  0  0
  -23.9924    1.4681   26.0440 C   0  0  0  0  0  0  0  0  0  0  0  0
  -25.5328    1.2769   25.8127 C   0  0  0  0  0  0  0  0  0  0  0  0
  -22.1323    1.8523   29.0213 O   0  0  0  0  0  0  0  0  0  0  0  0
  -21.3432    1.7122   26.9408 O   0  0  0  0  0  0  0  0  0  0  0  0
  1  2  1  0
  1  3  1  0
  3  4  1  0
  4  5  2  0
  5  6  1  0
  6  7  2  0
  3  8  1  0
  7  8  1  0
  2  9  2  0
  9 10  1  0
 10 11  2  0
  1 12  1  0
 11 12  1  0
 12 13  1  0
  4 14  1  0
 13 14  2  0
  5 15  1  0
 15 16  1  0
 15 17  1  0
 14 18  1  0
 17 18  2  0
 16 19  2  0
 16 20  1  0
M  END

$$$$
