No_4003-gen_results/8p0m/2024-11-26-14-13-15/
     RDKit          3D

 30 32  0  0  0  0  0  0  0  0999 V2000
  -28.0162   -0.8135   28.8779 C   0  0  0  0  0  0  0  0  0  0  0  0
  -27.0636   -0.1189   28.6079 C   0  0  0  0  0  0  0  0  0  0  0  0
  -27.0010    0.6913   27.4910 C   0  0  0  0  0  0  0  0  0  0  0  0
  -27.1778    1.9037   27.5632 C   0  0  0  0  0  0  0  0  0  0  0  0
  -28.0594   -1.3960   30.2136 C   0  0  0  0  0  0  0  0  0  0  0  0
  -26.8947   -1.6080   30.9179 C   0  0  0  0  0  0  0  0  0  0  0  0
  -25.7839   -0.2253   29.3757 C   0  0  0  0  0  0  0  0  0  0  0  0
  -25.7520   -0.9581   30.5315 C   0  0  0  0  0  0  0  0  0  0  0  0
  -27.1170    2.7946   26.3619 C   0  0  0  0  0  0  0  0  0  0  0  0
  -26.8513    2.2095   25.1238 C   0  0  0  0  0  0  0  0  0  0  0  0
  -26.6683    0.1690   26.1643 C   0  0  0  0  0  0  0  0  0  0  0  0
  -26.6112    0.9191   25.0364 C   0  0  0  0  0  0  0  0  0  0  0  0
  -29.2900   -2.1784   30.6429 C   0  0  0  0  0  0  0  0  0  0  0  0
  -29.2965   -3.3257   30.9491 O   0  0  0  0  0  0  0  0  0  0  0  0
  -30.4445   -1.6176   30.2502 O   0  0  0  0  0  0  0  0  0  0  0  0
  -30.8496   -0.5905   30.5721 C   0  0  0  0  0  0  0  0  0  0  0  0
  -30.1542    0.1020   31.3202 F   0  0  0  0  0  0  0  0  0  0  0  0
  -32.0701   -0.7211   31.1750 F   0  0  0  0  0  0  0  0  0  0  0  0
  -31.1399    0.1670   29.3947 F   0  0  0  0  0  0  0  0  0  0  0  0
  -24.5687    0.4876   28.9567 C   0  0  0  0  0  0  0  0  0  0  0  0
  -23.3743   -0.1862   28.9503 C   0  0  0  0  0  0  0  0  0  0  0  0
  -22.1518    0.4682   28.6273 C   0  0  0  0  0  0  0  0  0  0  0  0
  -22.1369    1.6296   27.8927 C   0  0  0  0  0  0  0  0  0  0  0  0
  -24.5741    1.8498   28.4163 C   0  0  0  0  0  0  0  0  0  0  0  0
  -23.3087    2.4281   28.0006 C   0  0  0  0  0  0  0  0  0  0  0  0
  -20.6975   -0.4465   28.6006 Cl  0  0  0  0  0  0  0  0  0  0  0  0
  -27.4816    4.6600   26.5442 Br  0  0  0  0  0  0  0  0  0  0  0  0
  -24.5577   -1.0606   31.3949 C   0  0  0  0  0  0  0  0  0  0  0  0
  -24.7081   -0.6143   32.5913 O   0  0  0  0  0  0  0  0  0  0  0  0
  -23.7363   -2.0991   31.2368 O   0  0  0  0  0  0  0  0  0  0  0  0
  2  3  1  0
  5 13  1  0
 13 14  2  0
 13 15  1  0
 15 16  1  0
 16 17  1  0
 16 18  1  0
 16 19  1  0
  7 20  1  0
 22 26  1  0
  9 27  1  0
  8 28  1  0
 28 29  1  0
 28 30  2  0
  1  2  2  0
  2  7  1  0
  7  8  2  0
  8  6  1  0
  6  5  2  0
  5  1  1  0
 20 21  2  0
 21 22  1  0
 22 23  2  0
 23 25  1  0
 25 24  2  0
 24 20  1  0
  3  4  2  0
  4  9  1  0
  9 10  2  0
 10 12  1  0
 12 11  2  0
 11  3  1  0
M  END

$$$$
