No_4042-gen_results/8p0m/2024-11-26-14-13-15/
     RDKit          3D

 26 27  0  0  0  0  0  0  0  0999 V2000
  -28.0162   -0.8135   28.8779 C   0  0  0  0  0  0  0  0  0  0  0  0
  -28.4690   -0.7850   29.8287 C   0  0  0  0  0  0  0  0  0  0  0  0
  -27.0871    0.2903   28.6377 C   0  0  0  0  0  0  0  0  0  0  0  0
  -26.8317    1.2487   29.5869 C   0  0  0  0  0  0  0  0  0  0  0  0
  -28.3914    0.0801   31.0065 C   0  0  0  0  0  0  0  0  0  0  0  0
  -27.4940    1.1521   30.7841 C   0  0  0  0  0  0  0  0  0  0  0  0
  -26.3109    0.3918   27.3640 C   0  0  0  0  0  0  0  0  0  0  0  0
  -25.1298    0.0734   27.3738 N   0  0  0  0  0  0  0  0  0  0  0  0
  -26.9694    0.4111   26.1587 N   0  0  0  0  0  0  0  0  0  0  0  0
  -24.1039    0.2628   26.6872 C   0  0  0  0  0  0  0  0  0  0  0  0
  -23.9398    1.5923   26.3885 C   0  0  0  0  0  0  0  0  0  0  0  0
  -23.2435    2.5361   27.2967 C   0  0  0  0  0  0  0  0  0  0  0  0
  -22.6157    1.8589   28.3190 C   0  0  0  0  0  0  0  0  0  0  0  0
  -21.4237    1.5060   28.0801 F   0  0  0  0  0  0  0  0  0  0  0  0
  -22.4786    2.7370   29.4620 F   0  0  0  0  0  0  0  0  0  0  0  0
  -23.2980    0.8663   28.8733 F   0  0  0  0  0  0  0  0  0  0  0  0
  -27.3025    2.2015   31.8185 C   0  0  0  0  0  0  0  0  0  0  0  0
  -27.5458    3.4245   31.5995 C   0  0  0  0  0  0  0  0  0  0  0  0
  -28.0968    3.9128   30.4934 C   0  0  0  0  0  0  0  0  0  0  0  0
  -28.2310    5.3371   30.2414 C   0  0  0  0  0  0  0  0  0  0  0  0
  -28.6814    5.8352   29.0315 C   0  0  0  0  0  0  0  0  0  0  0  0
  -29.0282    4.8795   28.0332 C   0  0  0  0  0  0  0  0  0  0  0  0
  -28.9150    3.5579   28.1714 C   0  0  0  0  0  0  0  0  0  0  0  0
  -28.4080    3.1551   29.3699 C   0  0  0  0  0  0  0  0  0  0  0  0
  -27.5330    2.4243   29.2794 F   0  0  0  0  0  0  0  0  0  0  0  0
  -29.5571    2.3051   29.9154 O   0  0  0  0  0  0  0  0  0  0  0  0
  3  7  1  0
  7  8  2  3
  7  9  1  0
  8 10  1  0
 10 11  1  0
 11 12  1  0
 12 13  1  0
 13 14  1  0
 13 15  1  0
 13 16  1  0
  6 17  1  0
 17 18  2  3
 18 19  1  0
  4 25  1  0
 24 26  1  0
  1  2  2  0
  2  5  1  0
  5  6  2  0
  6  4  1  0
  4  3  2  0
  3  1  1  0
 19 20  2  0
 20 21  1  0
 21 22  2  0
 22 23  1  0
 23 24  2  0
 24 19  1  0
M  END

$$$$
