No_4591-gen_results/8p0m/2024-11-26-14-13-15/
     RDKit          3D

 16 17  0  0  0  0  0  0  0  0999 V2000
  -28.0162   -0.8135   28.8779 C   0  0  0  0  0  0  0  0  0  0  0  0
  -27.0636   -0.1190   28.6079 C   0  0  0  0  0  0  0  0  0  0  0  0
  -25.7923   -0.4302   29.0761 C   0  0  0  0  0  0  0  0  0  0  0  0
  -24.5456    0.3494   28.8225 C   0  0  0  0  0  0  0  0  0  0  0  0
  -24.6586    1.4196   27.8878 C   0  0  0  0  0  0  0  0  0  0  0  0
  -25.9471    1.6811   27.3792 C   0  0  0  0  0  0  0  0  0  0  0  0
  -27.0439    0.9739   27.6871 C   0  0  0  0  0  0  0  0  0  0  0  0
  -28.6567   -0.5529   30.0960 N   0  0  0  0  0  0  0  0  0  0  0  0
  -29.6293   -1.2869   30.6343 C   0  0  0  0  0  0  0  0  0  0  0  0
  -30.1544   -0.9011   31.9004 C   0  0  0  0  0  0  0  0  0  0  0  0
  -28.2410    0.5095   30.9664 C   0  0  0  0  0  0  0  0  0  0  0  0
  -28.7266    0.8599   32.1335 C   0  0  0  0  0  0  0  0  0  0  0  0
  -29.7106    0.1338   32.6449 C   0  0  0  0  0  0  0  0  0  0  0  0
  -23.2643    2.2775   27.5006 Cl  0  0  0  0  0  0  0  0  0  0  0  0
  -23.1368    0.0548   29.1931 C   0  0  0  0  0  0  0  0  0  0  0  0
  -22.0603    0.1791   28.5749 C   0  0  0  0  0  0  0  0  0  0  0  0
  1  2  1  0
  1  8  1  0
  8  9  1  0
  8 11  1  0
 10 13  1  0
 12 13  1  0
  5 14  1  0
  4 15  1  0
 15 16  2  0
  9 10  1  0
 12 11  1  0
  2  3  2  0
  3  4  1  0
  4  5  2  0
  5  6  1  0
  6  7  2  0
  7  2  1  0
M  END

$$$$
