No_4283-gen_results/8p0m/2024-11-26-14-13-15/
     RDKit          3D

 21 22  0  0  0  0  0  0  0  0999 V2000
  -28.0162   -0.8135   28.8779 C   0  0  0  0  0  0  0  0  0  0  0  0
  -28.4690   -0.7850   29.8287 C   0  0  0  0  0  0  0  0  0  0  0  0
  -28.1960    0.3478   28.0550 C   0  0  0  0  0  0  0  0  0  0  0  0
  -29.0191    1.3501   28.3782 C   0  0  0  0  0  0  0  0  0  0  0  0
  -29.4107    0.1803   30.3782 C   0  0  0  0  0  0  0  0  0  0  0  0
  -29.6059    1.2495   29.6193 C   0  0  0  0  0  0  0  0  0  0  0  0
  -27.5056    0.3640   26.7956 N   0  0  0  0  0  0  0  0  0  0  0  0
  -27.8194    0.6254   25.7819 C   0  0  0  0  0  0  0  0  0  0  0  0
  -26.0359    0.0724   26.8908 C   0  0  0  0  0  0  0  0  0  0  0  0
  -25.1552    1.1356   27.2876 C   0  0  0  0  0  0  0  0  0  0  0  0
  -23.9939    0.8731   27.9507 C   0  0  0  0  0  0  0  0  0  0  0  0
  -23.0372    1.9449   28.1282 C   0  0  0  0  0  0  0  0  0  0  0  0
  -23.2576    3.0918   27.4064 C   0  0  0  0  0  0  0  0  0  0  0  0
  -25.0369    2.4329   26.6128 C   0  0  0  0  0  0  0  0  0  0  0  0
  -24.1901    3.3042   26.6230 C   0  0  0  0  0  0  0  0  0  0  0  0
  -27.4446    0.1791   24.6701 O   0  0  0  0  0  0  0  0  0  0  0  0
  -28.4611    1.8990   25.5983 F   0  0  0  0  0  0  0  0  0  0  0  0
  -23.7112   -0.3573   28.6927 C   0  0  0  0  0  0  0  0  0  0  0  0
  -22.5285   -0.5963   28.8667 F   0  0  0  0  0  0  0  0  0  0  0  0
  -24.3835   -0.2056   29.9237 F   0  0  0  0  0  0  0  0  0  0  0  0
  -24.2614   -1.4152   28.0902 F   0  0  0  0  0  0  0  0  0  0  0  0
  3  7  1  0
  7  8  1  0
  7  9  1  0
  9 10  1  0
  8 16  2  0
  8 17  1  0
 11 18  1  0
 18 19  1  0
 18 20  1  0
 18 21  1  0
 10 11  2  0
 11 12  1  0
 12 13  2  0
 13 15  1  0
 15 14  2  0
 14 10  1  0
  1  2  2  0
  2  5  1  0
  5  6  2  0
  6  4  1  0
  4  3  2  0
  3  1  1  0
M  END

$$$$
