No_4449-gen_results/8p0m/2024-11-26-14-13-15/
     RDKit          3D

 29 32  0  0  0  0  0  0  0  0999 V2000
  -28.0162   -0.8135   28.8779 C   0  0  0  0  0  0  0  0  0  0  0  0
  -27.0636   -0.1189   28.6079 C   0  0  0  0  0  0  0  0  0  0  0  0
  -25.7647   -0.3897   29.0360 C   0  0  0  0  0  0  0  0  0  0  0  0
  -25.5296   -1.5302   29.9014 C   0  0  0  0  0  0  0  0  0  0  0  0
  -26.6888   -2.2893   30.1810 C   0  0  0  0  0  0  0  0  0  0  0  0
  -27.8727   -1.9508   29.7373 C   0  0  0  0  0  0  0  0  0  0  0  0
  -29.2926   -2.7683   30.1523 Cl  0  0  0  0  0  0  0  0  0  0  0  0
  -24.5222    0.4049   28.7207 C   0  0  0  0  0  0  0  0  0  0  0  0
  -24.0819    1.4019   29.5474 C   0  0  0  0  0  0  0  0  0  0  0  0
  -24.6013    1.7079   30.5859 O   0  0  0  0  0  0  0  0  0  0  0  0
  -22.9138    2.1195   29.1200 N   0  0  0  0  0  0  0  0  0  0  0  0
  -22.1510    1.8298   27.9401 C   0  0  0  0  0  0  0  0  0  0  0  0
  -23.6681    0.3026   27.5799 C   0  0  0  0  0  0  0  0  0  0  0  0
  -22.6300    0.9462   27.2473 C   0  0  0  0  0  0  0  0  0  0  0  0
  -27.1665    1.0708   27.6497 C   0  0  0  0  0  0  0  0  0  0  0  0
  -27.7243    2.4042   28.3527 Cl  0  0  0  0  0  0  0  0  0  0  0  0
  -27.9075    0.7217   26.4003 C   0  0  0  0  0  0  0  0  0  0  0  0
  -27.2141    0.7630   25.2138 C   0  0  0  0  0  0  0  0  0  0  0  0
  -25.8969    1.2453   25.3155 C   0  0  0  0  0  0  0  0  0  0  0  0
  -25.3329    2.0063   26.2528 C   0  0  0  0  0  0  0  0  0  0  0  0
  -25.9890    1.8715   27.5891 C   0  0  0  0  0  0  0  0  0  0  0  0
  -25.6689    2.7059   28.5198 O   0  0  0  0  0  0  0  0  0  0  0  0
  -25.8570    4.1362   28.3664 C   0  0  0  0  0  0  0  0  0  0  0  0
  -26.6952    4.7989   28.7644 C   0  0  0  0  0  0  0  0  0  0  0  0
  -24.6058    4.6983   27.7011 C   0  0  0  0  0  0  0  0  0  0  0  0
  -26.6832    6.2576   28.6365 C   0  0  0  0  0  0  0  0  0  0  0  0
  -24.5736    6.1124   27.5290 C   0  0  0  0  0  0  0  0  0  0  0  0
  -25.5870    6.8893   28.0301 C   0  0  0  0  0  0  0  0  0  0  0  0
  -29.0147    0.1113   26.4731 F   0  0  0  0  0  0  0  0  0  0  0  0
  6  7  1  0
  3  8  1  0
  8  9  1  0
  9 10  2  0
  9 11  1  0
  8 13  1  0
 12 14  1  0
 13 14  1  0
  2 15  1  0
 15 16  1  0
 15 17  1  0
 17 18  2  0
 18 19  1  0
 19 20  2  0
 15 21  1  0
 20 21  1  0
 21 22  1  0
 22 23  1  0
 17 29  1  0
 12 11  1  0
  1  2  2  0
  2  3  1  0
  3  4  2  0
  4  5  1  0
  5  6  2  0
  6  1  1  0
 23 24  2  0
 24 26  1  0
 26 28  2  0
 28 27  1  0
 27 25  2  0
 25 23  1  0
M  END

$$$$
