No_4817-gen_results/8p0m/2024-11-26-14-13-15/
     RDKit          3D

  7  7  0  0  0  0  0  0  0  0999 V2000
  -28.1229   -1.3353   28.4874 O   0  0  0  0  0  0  0  0  0  0  0  0
  -28.5208   -0.4363   29.0779 C   0  0  0  0  0  0  0  0  0  0  0  0
  -29.6977    0.0507   28.9764 C   0  0  0  0  0  0  0  0  0  0  0  0
  -27.5405    0.1756   30.0054 N   0  0  0  0  0  0  0  0  0  0  0  0
  -27.8890    1.2664   30.8176 C   0  0  0  0  0  0  0  0  0  0  0  0
  -30.0489    1.1130   29.8183 N   0  0  0  0  0  0  0  0  0  0  0  0
  -29.1790    1.7145   30.6670 C   0  0  0  0  0  0  0  0  0  0  0  0
  1  2  2  0
  2  3  1  0
  2  4  1  0
  4  5  1  0
  6  7  1  0
  3  6  1  0
  7  5  1  0
M  END

$$$$
