No_4257-gen_results/8p0m/2024-11-26-14-13-15/
     RDKit          3D

 34 36  0  0  0  0  0  0  0  0999 V2000
  -28.0162   -0.8135   28.8779 C   0  0  0  0  0  0  0  0  0  0  0  0
  -28.4690   -0.7850   29.8287 C   0  0  0  0  0  0  0  0  0  0  0  0
  -27.1356    0.2359   28.5352 C   0  0  0  0  0  0  0  0  0  0  0  0
  -26.8050    1.0509   29.2763 C   0  0  0  0  0  0  0  0  0  0  0  0
  -28.2372    0.1503   30.9300 C   0  0  0  0  0  0  0  0  0  0  0  0
  -27.3522    1.1239   30.6071 C   0  0  0  0  0  0  0  0  0  0  0  0
  -26.4705    0.1962   27.1308 C   0  0  0  0  0  0  0  0  0  0  0  0
  -26.0501    1.3795   26.9401 F   0  0  0  0  0  0  0  0  0  0  0  0
  -25.4632   -0.6737   27.0814 F   0  0  0  0  0  0  0  0  0  0  0  0
  -27.3401   -0.0543   26.1229 F   0  0  0  0  0  0  0  0  0  0  0  0
  -29.4418   -1.9633   30.3596 C   0  0  0  0  0  0  0  0  0  0  0  0
  -30.4635   -1.8714   30.0386 O   0  0  0  0  0  0  0  0  0  0  0  0
  -28.9475   -2.9513   31.0603 O   0  0  0  0  0  0  0  0  0  0  0  0
  -26.9847    2.2071   31.5642 C   0  0  0  0  0  0  0  0  0  0  0  0
  -26.0493    2.8258   31.5241 C   0  0  0  0  0  0  0  0  0  0  0  0
  -25.5219    3.8046   32.0798 C   0  0  0  0  0  0  0  0  0  0  0  0
  -26.3160    4.4700   33.0888 C   0  0  0  0  0  0  0  0  0  0  0  0
  -27.5850    3.8281   33.2393 C   0  0  0  0  0  0  0  0  0  0  0  0
  -27.9746    2.7660   32.4873 C   0  0  0  0  0  0  0  0  0  0  0  0
  -25.8477    5.6190   33.8617 C   0  0  0  0  0  0  0  0  0  0  0  0
  -26.4729    6.6800   33.5850 O   0  0  0  0  0  0  0  0  0  0  0  0
  -25.1513    5.4679   34.8801 O   0  0  0  0  0  0  0  0  0  0  0  0
  -29.3323   -4.2639   30.7574 C   0  0  0  0  0  0  0  0  0  0  0  0
  -28.7191   -5.2590   31.3296 C   0  0  0  0  0  0  0  0  0  0  0  0
  -29.9539   -6.5550   32.1174 Br  0  0  0  0  0  0  0  0  0  0  0  0
  -27.8356   -5.9669   30.3136 N   0  0  0  0  0  0  0  0  0  0  0  0
  -27.0145   -4.9113   29.7160 C   0  0  0  0  0  0  0  0  0  0  0  0
  -25.5970   -4.8259   30.0138 C   0  0  0  0  0  0  0  0  0  0  0  0
  -24.8405   -3.8968   29.1877 C   0  0  0  0  0  0  0  0  0  0  0  0
  -23.5702   -3.9672   28.8661 C   0  0  0  0  0  0  0  0  0  0  0  0
  -23.1512   -2.7166   28.1293 C   0  0  0  0  0  0  0  0  0  0  0  0
  -25.5209   -2.5980   28.9012 C   0  0  0  0  0  0  0  0  0  0  0  0
  -23.6530   -1.5315   28.4098 C   0  0  0  0  0  0  0  0  0  0  0  0
  -24.8983   -1.5083   28.7269 N   0  0  0  0  0  0  0  0  0  0  0  0
  3  7  1  0
  7  8  1  0
  7  9  1  0
  7 10  1  0
  2 11  1  0
 11 12  2  0
 11 13  1  0
  6 14  1  0
 17 20  1  0
 20 21  2  0
 20 22  1  0
 13 23  1  0
 23 24  1  0
 24 25  1  0
 24 26  1  0
 26 27  1  0
 27 28  2  3
 28 29  1  0
 14 15  2  0
 15 16  1  0
 16 17  2  0
 17 18  1  0
 18 19  2  0
 19 14  1  0
 29 30  2  0
 30 31  1  0
 31 33  2  0
 33 34  1  0
 34 32  2  0
 32 29  1  0
  1  2  2  0
  2  5  1  0
  5  6  2  0
  6  4  1  0
  4  3  2  0
  3  1  1  0
M  END

$$$$
