No_4854-gen_results/8p0m/2024-11-26-14-13-15/
     RDKit          3D

 22 24  0  0  0  0  0  0  0  0999 V2000
  -28.0162   -0.8135   28.8779 C   0  0  0  0  0  0  0  0  0  0  0  0
  -27.0636   -0.1189   28.6079 C   0  0  0  0  0  0  0  0  0  0  0  0
  -26.9716    0.7139   27.5060 C   0  0  0  0  0  0  0  0  0  0  0  0
  -28.1053    0.7744   26.6421 C   0  0  0  0  0  0  0  0  0  0  0  0
  -29.2041    0.1179   27.0477 C   0  0  0  0  0  0  0  0  0  0  0  0
  -29.2127   -0.6088   28.1281 C   0  0  0  0  0  0  0  0  0  0  0  0
  -30.2643    0.2460   25.9920 C   0  0  0  0  0  0  0  0  0  0  0  0
  -30.1855    0.4120   24.8591 O   0  0  0  0  0  0  0  0  0  0  0  0
  -31.5214   -0.0856   26.4645 O   0  0  0  0  0  0  0  0  0  0  0  0
  -25.6583    1.4063   27.1423 C   0  0  0  0  0  0  0  0  0  0  0  0
  -25.1248    2.3052   28.1575 C   0  0  0  0  0  0  0  0  0  0  0  0
  -24.0241    2.3903   28.6056 C   0  0  0  0  0  0  0  0  0  0  0  0
  -22.9267    1.6287   27.8690 C   0  0  0  0  0  0  0  0  0  0  0  0
  -23.3118    0.8900   26.8009 C   0  0  0  0  0  0  0  0  0  0  0  0
  -24.5465    0.3335   26.9465 C   0  0  0  0  0  0  0  0  0  0  0  0
  -25.8055    2.1975   25.8100 C   0  0  0  0  0  0  0  0  0  0  0  0
  -26.1871    3.3104   28.7612 C   0  0  0  0  0  0  0  0  0  0  0  0
  -26.1680    3.5599   30.0307 C   0  0  0  0  0  0  0  0  0  0  0  0
  -27.1007    4.4605   30.6154 C   0  0  0  0  0  0  0  0  0  0  0  0
  -28.1443    4.8918   29.8604 C   0  0  0  0  0  0  0  0  0  0  0  0
  -28.2317    4.5709   28.5030 C   0  0  0  0  0  0  0  0  0  0  0  0
  -27.2242    3.7593   27.9438 C   0  0  0  0  0  0  0  0  0  0  0  0
  5  7  1  0
  7  8  2  0
  7  9  1  0
  3 10  1  0
 10 11  1  0
 12 13  1  0
 10 15  1  0
 14 15  1  0
 10 16  1  0
 11 17  1  0
 11 12  1  0
 13 14  1  0
 17 18  2  0
 18 19  1  0
 19 20  2  0
 20 21  1  0
 21 22  2  0
 22 17  1  0
  1  2  2  0
  2  3  1  0
  3  4  2  0
  4  5  1  0
  5  6  2  0
  6  1  1  0
M  END

$$$$
