No_4191-gen_results/8p0m/2024-11-26-14-13-15/
     RDKit          3D

 20 21  0  0  0  0  0  0  0  0999 V2000
  -28.1229   -1.3353   28.4874 O   0  0  0  0  0  0  0  0  0  0  0  0
  -27.4806   -0.4044   28.7094 C   0  0  0  0  0  0  0  0  0  0  0  0
  -26.3804   -0.0867   27.9394 C   0  0  0  0  0  0  0  0  0  0  0  0
  -27.6664    0.4468   29.8988 N   0  0  0  0  0  0  0  0  0  0  0  0
  -25.1773   -0.4388   28.3946 C   0  0  0  0  0  0  0  0  0  0  0  0
  -23.9281   -0.2469   27.6677 C   0  0  0  0  0  0  0  0  0  0  0  0
  -22.6980   -0.4046   28.4363 C   0  0  0  0  0  0  0  0  0  0  0  0
  -22.7797   -1.1458   29.6708 C   0  0  0  0  0  0  0  0  0  0  0  0
  -23.9693   -1.4630   30.2503 C   0  0  0  0  0  0  0  0  0  0  0  0
  -25.1522   -1.1248   29.6547 C   0  0  0  0  0  0  0  0  0  0  0  0
  -27.0810    1.6754   30.1039 C   0  0  0  0  0  0  0  0  0  0  0  0
  -27.1252    2.5397   29.1264 C   0  0  0  0  0  0  0  0  0  0  0  0
  -26.1069    3.3869   29.0277 C   0  0  0  0  0  0  0  0  0  0  0  0
  -25.2308    3.6493   30.1867 C   0  0  0  0  0  0  0  0  0  0  0  0
  -25.2804    2.7492   31.2273 C   0  0  0  0  0  0  0  0  0  0  0  0
  -26.1986    1.6548   31.1843 C   0  0  0  0  0  0  0  0  0  0  0  0
  -28.9888    0.2866   30.4687 C   0  0  0  0  0  0  0  0  0  0  0  0
  -25.9773    4.5107   28.0184 C   0  0  0  0  0  0  0  0  0  0  0  0
  -25.0077    4.2936   27.2389 O   0  0  0  0  0  0  0  0  0  0  0  0
  -26.7901    5.3246   27.8219 O   0  0  0  0  0  0  0  0  0  0  0  0
  1  2  2  0
  2  3  1  0
  2  4  1  0
  4 11  1  0
  4 17  1  0
 13 18  1  0
 18 19  2  0
 18 20  1  0
  3  5  1  0
 11 12  2  0
 12 13  1  0
 13 14  2  0
 14 15  1  0
 15 16  2  0
 16 11  1  0
  5  6  2  0
  6  7  1  0
  7  8  2  0
  8  9  1  0
  9 10  2  0
 10  5  1  0
M  END

$$$$
