No_4706-gen_results/8p0m/2024-11-26-14-13-15/
     RDKit          3D

 19 20  0  0  0  0  0  0  0  0999 V2000
  -28.0162   -0.8135   28.8779 C   0  0  0  0  0  0  0  0  0  0  0  0
  -27.0636   -0.1189   28.6079 C   0  0  0  0  0  0  0  0  0  0  0  0
  -27.0010    0.6913   27.4910 C   0  0  0  0  0  0  0  0  0  0  0  0
  -25.8548    1.4825   27.0830 C   0  0  0  0  0  0  0  0  0  0  0  0
  -24.6901    1.4526   27.8807 C   0  0  0  0  0  0  0  0  0  0  0  0
  -24.7379    0.6010   29.0416 C   0  0  0  0  0  0  0  0  0  0  0  0
  -25.8234   -0.1688   29.3887 C   0  0  0  0  0  0  0  0  0  0  0  0
  -29.2150   -0.1726   29.0132 N   0  0  0  0  0  0  0  0  0  0  0  0
  -30.2463   -0.7736   29.6388 C   0  0  0  0  0  0  0  0  0  0  0  0
  -23.5190    2.2034   27.5550 C   0  0  0  0  0  0  0  0  0  0  0  0
  -23.4334    2.7576   26.3383 N   0  0  0  0  0  0  0  0  0  0  0  0
  -22.4067    2.0541   28.1756 O   0  0  0  0  0  0  0  0  0  0  0  0
  -30.4174   -0.8287   30.8192 C   0  0  0  0  0  0  0  0  0  0  0  0
  -29.5331    0.0229   31.6196 C   0  0  0  0  0  0  0  0  0  0  0  0
  -28.8085   -0.4679   32.6313 C   0  0  0  0  0  0  0  0  0  0  0  0
  -28.0263    0.3479   33.5350 C   0  0  0  0  0  0  0  0  0  0  0  0
  -27.8813    1.7344   33.2219 C   0  0  0  0  0  0  0  0  0  0  0  0
  -28.6285    2.2017   32.1080 C   0  0  0  0  0  0  0  0  0  0  0  0
  -29.4031    1.3971   31.3489 C   0  0  0  0  0  0  0  0  0  0  0  0
  1  2  1  0
  1  8  1  0
  8  9  1  0
  5 10  1  0
 10 11  2  0
 10 12  1  0
  9 13  2  3
 13 14  1  0
  2  3  2  0
  3  4  1  0
  4  5  2  0
  5  6  1  0
  6  7  2  0
  7  2  1  0
 14 15  2  0
 15 16  1  0
 16 17  2  0
 17 18  1  0
 18 19  2  0
 19 14  1  0
M  END

$$$$
