No_4460-gen_results/8p0m/2024-11-26-14-13-15/
     RDKit          3D

  8  7  0  0  0  0  0  0  0  0999 V2000
  -28.1229   -1.3353   28.4874 O   0  0  0  0  0  0  0  0  0  0  0  0
  -27.4806   -0.4044   28.7094 C   0  0  0  0  0  0  0  0  0  0  0  0
  -26.4599   -0.1104   28.0051 N   0  0  0  0  0  0  0  0  0  0  0  0
  -25.8102    0.6598   28.0792 C   0  0  0  0  0  0  0  0  0  0  0  0
  -25.8032    1.6173   29.1338 C   0  0  0  0  0  0  0  0  0  0  0  0
  -27.6891    0.2894   29.9988 C   0  0  0  0  0  0  0  0  0  0  0  0
  -26.7830    1.3987   30.1503 C   0  0  0  0  0  0  0  0  0  0  0  0
  -24.8568    2.7153   29.2955 C   0  0  0  0  0  0  0  0  0  0  0  0
  1  2  2  0
  2  3  1  0
  3  4  1  0
  4  5  1  0
  2  6  1  0
  6  7  1  0
  5  8  1  0
M  END

$$$$
