No_4341-gen_results/8p0m/2024-11-26-14-13-15/
     RDKit          3D

 24 26  0  0  0  0  0  0  0  0999 V2000
  -28.0162   -0.8135   28.8779 C   0  0  0  0  0  0  0  0  0  0  0  0
  -27.0636   -0.1189   28.6079 C   0  0  0  0  0  0  0  0  0  0  0  0
  -25.7923   -0.4302   29.0761 C   0  0  0  0  0  0  0  0  0  0  0  0
  -25.5756   -1.5654   29.9363 C   0  0  0  0  0  0  0  0  0  0  0  0
  -26.7354   -2.3004   30.2173 C   0  0  0  0  0  0  0  0  0  0  0  0
  -27.9184   -1.9537   29.7629 C   0  0  0  0  0  0  0  0  0  0  0  0
  -27.1057    1.1023   27.7593 C   0  0  0  0  0  0  0  0  0  0  0  0
  -26.1219    1.4820   27.0232 C   0  0  0  0  0  0  0  0  0  0  0  0
  -24.7142    1.1299   27.4889 C   0  0  0  0  0  0  0  0  0  0  0  0
  -24.5718    0.0966   28.4066 C   0  0  0  0  0  0  0  0  0  0  0  0
  -23.5476    1.7679   26.9015 C   0  0  0  0  0  0  0  0  0  0  0  0
  -22.4527    1.9481   27.6193 N   0  0  0  0  0  0  0  0  0  0  0  0
  -23.5340    2.1547   25.7020 O   0  0  0  0  0  0  0  0  0  0  0  0
  -29.0894   -2.7264   30.2569 C   0  0  0  0  0  0  0  0  0  0  0  0
  -30.1237   -2.3993   30.1464 O   0  0  0  0  0  0  0  0  0  0  0  0
  -28.8093   -3.8864   30.8379 O   0  0  0  0  0  0  0  0  0  0  0  0
  -28.4822    1.5786   27.3981 C   0  0  0  0  0  0  0  0  0  0  0  0
  -28.9485    1.6450   26.3802 O   0  0  0  0  0  0  0  0  0  0  0  0
  -29.2094    1.9777   28.5865 N   0  0  0  0  0  0  0  0  0  0  0  0
  -30.5514    2.5032   28.4628 C   0  0  0  0  0  0  0  0  0  0  0  0
  -31.3087    2.1829   29.4923 C   0  0  0  0  0  0  0  0  0  0  0  0
  -30.7604    1.8776   30.7314 C   0  0  0  0  0  0  0  0  0  0  0  0
  -29.3810    1.5138   30.8452 C   0  0  0  0  0  0  0  0  0  0  0  0
  -28.7047    1.5251   29.7849 C   0  0  0  0  0  0  0  0  0  0  0  0
  9 11  1  0
 11 12  1  0
 11 13  2  0
  6 14  1  0
 14 15  1  0
 14 16  2  0
  7 17  1  0
 17 18  2  0
 17 19  1  0
 19 20  1  0
 21 22  1  0
 19 24  1  0
 23 24  1  0
 20 21  1  0
 22 23  1  0
  1  2  2  0
  3  4  2  0
  4  5  1  0
  5  6  2  0
  6  1  1  0
  2  3  1  0
  3 10  1  0
 10  9  2  0
  9  8  1  0
  8  7  2  0
  7  2  1  0
M  END

$$$$
