No_4482-gen_results/8p0m/2024-11-26-14-13-15/
     RDKit          3D

 19 20  0  0  0  0  0  0  0  0999 V2000
  -28.0162   -0.8135   28.8779 C   0  0  0  0  0  0  0  0  0  0  0  0
  -28.4690   -0.7850   29.8287 C   0  0  0  0  0  0  0  0  0  0  0  0
  -26.5042   -0.7777   28.8766 C   0  0  0  0  0  0  0  0  0  0  0  0
  -25.8305   -1.6808   29.6849 C   0  0  0  0  0  0  0  0  0  0  0  0
  -28.1491   -1.8854   30.9031 C   0  0  0  0  0  0  0  0  0  0  0  0
  -26.6460   -1.9561   31.0330 C   0  0  0  0  0  0  0  0  0  0  0  0
  -28.5823   -3.1584   30.5023 O   0  0  0  0  0  0  0  0  0  0  0  0
  -26.1739   -0.8711   31.8577 O   0  0  0  0  0  0  0  0  0  0  0  0
  -24.8148   -2.4089   29.3638 O   0  0  0  0  0  0  0  0  0  0  0  0
  -28.5864   -1.7138   32.3478 C   0  0  0  0  0  0  0  0  0  0  0  0
  -29.1442   -4.0398   31.3426 C   0  0  0  0  0  0  0  0  0  0  0  0
  -29.9275   -1.3316   32.3999 C   0  0  0  0  0  0  0  0  0  0  0  0
  -30.8072   -2.4701   32.7021 C   0  0  0  0  0  0  0  0  0  0  0  0
  -30.1453   -3.9551   32.0842 C   0  0  0  0  0  0  0  0  0  0  0  0
  -30.1294   -0.2123   33.3838 C   0  0  0  0  0  0  0  0  0  0  0  0
  -30.3297    0.8069   33.0407 O   0  0  0  0  0  0  0  0  0  0  0  0
  -30.4491   -0.6571   34.6361 O   0  0  0  0  0  0  0  0  0  0  0  0
  -30.9537   -4.9417   32.4121 O   0  0  0  0  0  0  0  0  0  0  0  0
  -28.0191   -4.5142   32.0321 F   0  0  0  0  0  0  0  0  0  0  0  0
  1  2  1  0
  1  3  1  0
  3  4  1  0
  2  5  1  0
  4  6  1  0
  5  6  1  0
  5  7  1  0
  6  8  1  0
  4  9  2  0
  5 10  1  0
  7 11  1  0
 10 12  1  0
 12 13  1  0
 11 14  2  0
 13 14  1  0
 12 15  1  0
 15 16  2  0
 15 17  1  0
 14 18  1  0
 11 19  1  0
M  END

$$$$
