No_4172-gen_results/8p0m/2024-11-26-14-13-15/
     RDKit          3D

 13 14  0  0  0  0  0  0  0  0999 V2000
  -28.0162   -0.8135   28.8779 C   0  0  0  0  0  0  0  0  0  0  0  0
  -27.0636   -0.1190   28.6079 C   0  0  0  0  0  0  0  0  0  0  0  0
  -25.7647   -0.3897   29.0360 C   0  0  0  0  0  0  0  0  0  0  0  0
  -24.5516    0.4058   28.7646 C   0  0  0  0  0  0  0  0  0  0  0  0
  -24.6957    1.4480   27.7988 C   0  0  0  0  0  0  0  0  0  0  0  0
  -26.0010    1.6784   27.2965 C   0  0  0  0  0  0  0  0  0  0  0  0
  -27.0736    0.9682   27.6500 C   0  0  0  0  0  0  0  0  0  0  0  0
  -27.8521   -1.7396   29.9423 N   0  0  0  0  0  0  0  0  0  0  0  0
  -26.6102   -2.2072   30.3101 C   0  0  0  0  0  0  0  0  0  0  0  0
  -25.5461   -1.4642   29.9243 N   0  0  0  0  0  0  0  0  0  0  0  0
  -23.5118    2.2587   27.4657 C   0  0  0  0  0  0  0  0  0  0  0  0
  -23.5530    2.9714   26.3907 O   0  0  0  0  0  0  0  0  0  0  0  0
  -22.3720    2.1119   28.0498 O   0  0  0  0  0  0  0  0  0  0  0  0
  5 11  1  0
 11 12  2  0
 11 13  1  0
  3  4  1  0
  4  5  2  0
  5  6  1  0
  6  7  2  0
  7  2  1  0
  1  2  2  0
  2  3  1  0
  3 10  2  0
 10  9  1  0
  9  8  2  0
  8  1  1  0
M  END

$$$$
