No_4083-gen_results/8p0m/2024-11-26-14-13-15/
     RDKit          3D

 21 22  0  0  0  0  0  0  0  0999 V2000
  -28.0162   -0.8135   28.8779 C   0  0  0  0  0  0  0  0  0  0  0  0
  -28.4690   -0.7850   29.8287 C   0  0  0  0  0  0  0  0  0  0  0  0
  -26.5042   -0.7777   28.8766 C   0  0  0  0  0  0  0  0  0  0  0  0
  -25.8103   -0.8531   30.1028 C   0  0  0  0  0  0  0  0  0  0  0  0
  -27.9906   -0.8916   31.2257 C   0  0  0  0  0  0  0  0  0  0  0  0
  -26.6042   -0.8676   31.2652 C   0  0  0  0  0  0  0  0  0  0  0  0
  -24.3894   -0.8049   30.1638 C   0  0  0  0  0  0  0  0  0  0  0  0
  -23.7660   -0.9500   31.0679 C   0  0  0  0  0  0  0  0  0  0  0  0
  -22.2665   -0.8379   31.2250 C   0  0  0  0  0  0  0  0  0  0  0  0
  -21.6700   -0.5264   30.0648 C   0  0  0  0  0  0  0  0  0  0  0  0
  -23.6437   -0.4433   28.9621 C   0  0  0  0  0  0  0  0  0  0  0  0
  -22.3479   -0.3035   28.9177 C   0  0  0  0  0  0  0  0  0  0  0  0
  -30.0924   -0.7792   29.8445 C   0  0  0  0  0  0  0  0  0  0  0  0
  -30.7615   -1.6043   30.2940 O   0  0  0  0  0  0  0  0  0  0  0  0
  -30.6116    0.3932   29.5468 O   0  0  0  0  0  0  0  0  0  0  0  0
  -31.6540    0.6950   29.2305 C   0  0  0  0  0  0  0  0  0  0  0  0
  -31.9231    1.7568   28.2279 C   0  0  0  0  0  0  0  0  0  0  0  0
  -30.9939    2.6886   28.1823 C   0  0  0  0  0  0  0  0  0  0  0  0
  -31.0476    3.7241   27.1221 C   0  0  0  0  0  0  0  0  0  0  0  0
  -30.0359    4.7363   27.0527 C   0  0  0  0  0  0  0  0  0  0  0  0
  -30.0863    5.7329   26.0374 C   0  0  0  0  0  0  0  0  0  0  0  0
  4  7  1  0
  2 13  1  0
 13 14  2  0
 13 15  1  0
 15 16  1  0
 16 17  1  0
 17 18  2  3
 18 19  1  0
 19 20  2  3
 20 21  1  0
  7  8  2  0
  8  9  1  0
  9 10  2  0
 10 12  1  0
 12 11  2  0
 11  7  1  0
  1  2  2  0
  2  5  1  0
  5  6  2  0
  6  4  1  0
  4  3  2  0
  3  1  1  0
M  END

$$$$
