No_4528-gen_results/8p0m/2024-11-26-14-13-15/
     RDKit          3D

 26 28  0  0  0  0  0  0  0  0999 V2000
  -28.0162   -0.8135   28.8779 C   0  0  0  0  0  0  0  0  0  0  0  0
  -27.0636   -0.1189   28.6079 C   0  0  0  0  0  0  0  0  0  0  0  0
  -26.8756    1.1325   28.9134 C   0  0  0  0  0  0  0  0  0  0  0  0
  -25.6883    1.9515   28.5672 C   0  0  0  0  0  0  0  0  0  0  0  0
  -24.6394    1.2834   27.8753 C   0  0  0  0  0  0  0  0  0  0  0  0
  -24.8068   -0.0513   27.6040 C   0  0  0  0  0  0  0  0  0  0  0  0
  -25.9020   -0.7670   27.9511 C   0  0  0  0  0  0  0  0  0  0  0  0
  -28.0611   -1.4288   30.2827 C   0  0  0  0  0  0  0  0  0  0  0  0
  -27.1060   -1.8511   30.7338 N   0  0  0  0  0  0  0  0  0  0  0  0
  -29.1892   -1.5135   30.8734 O   0  0  0  0  0  0  0  0  0  0  0  0
  -23.4135    1.9801   27.5041 C   0  0  0  0  0  0  0  0  0  0  0  0
  -22.1454    1.5848   28.0963 C   0  0  0  0  0  0  0  0  0  0  0  0
  -23.4617    2.8173   26.3345 C   0  0  0  0  0  0  0  0  0  0  0  0
  -25.5188    3.3824   28.9182 C   0  0  0  0  0  0  0  0  0  0  0  0
  -25.1003    3.6745   30.0140 O   0  0  0  0  0  0  0  0  0  0  0  0
  -25.7220    4.2497   27.9873 O   0  0  0  0  0  0  0  0  0  0  0  0
  -22.0502    1.0164   29.1830 O   0  0  0  0  0  0  0  0  0  0  0  0
  -20.9880    1.7354   27.4242 O   0  0  0  0  0  0  0  0  0  0  0  0
  -25.7517   -1.8948   30.2062 C   0  0  0  0  0  0  0  0  0  0  0  0
  -25.3319   -1.6845   29.1660 N   0  0  0  0  0  0  0  0  0  0  0  0
  -27.9628    2.0175   29.5620 C   0  0  0  0  0  0  0  0  0  0  0  0
  -28.3238    3.2605   29.2481 C   0  0  0  0  0  0  0  0  0  0  0  0
  -29.4404    3.7264   29.8529 C   0  0  0  0  0  0  0  0  0  0  0  0
  -30.1999    2.9305   30.7071 C   0  0  0  0  0  0  0  0  0  0  0  0
  -29.8228    1.6650   31.0414 C   0  0  0  0  0  0  0  0  0  0  0  0
  -28.6995    1.2083   30.4750 C   0  0  0  0  0  0  0  0  0  0  0  0
  1  2  2  0
  2  3  1  0
  3  4  1  0
  4  5  1  0
  5  6  1  0
  2  7  1  0
  6  7  1  0
  1  8  1  0
  8  9  1  0
  8 10  2  0
  5 11  1  0
 11 12  1  0
 11 13  1  0
  4 14  1  0
 14 15  2  0
 14 16  1  0
 12 17  2  0
 12 18  1  0
  9 19  1  0
  7 20  1  0
 19 20  2  0
  3 21  1  0
 21 22  2  0
 22 23  1  0
 23 24  2  0
 24 25  1  0
 25 26  2  0
 26 21  1  0
M  END

$$$$
