No_4480-gen_results/8p0m/2024-11-26-14-13-15/
     RDKit          3D

 28 30  0  0  0  0  0  0  0  0999 V2000
  -28.1229   -1.3353   28.4874 O   0  0  0  0  0  0  0  0  0  0  0  0
  -27.4806   -0.4044   28.7094 C   0  0  0  0  0  0  0  0  0  0  0  0
  -26.3804   -0.0867   27.9394 C   0  0  0  0  0  0  0  0  0  0  0  0
  -27.6664    0.4468   29.8988 N   0  0  0  0  0  0  0  0  0  0  0  0
  -25.1773   -0.4388   28.3946 C   0  0  0  0  0  0  0  0  0  0  0  0
  -23.9281   -0.2469   27.6677 C   0  0  0  0  0  0  0  0  0  0  0  0
  -24.0115    0.7683   26.6848 C   0  0  0  0  0  0  0  0  0  0  0  0
  -25.2436    1.2341   26.2435 C   0  0  0  0  0  0  0  0  0  0  0  0
  -26.3955    0.8712   26.8685 C   0  0  0  0  0  0  0  0  0  0  0  0
  -28.7657    0.1195   30.7687 C   0  0  0  0  0  0  0  0  0  0  0  0
  -26.8570    1.5236   30.2067 C   0  0  0  0  0  0  0  0  0  0  0  0
  -26.3372    1.6492   31.1156 C   0  0  0  0  0  0  0  0  0  0  0  0
  -25.3948    2.8095   31.3256 C   0  0  0  0  0  0  0  0  0  0  0  0
  -25.1330    3.6304   30.2418 C   0  0  0  0  0  0  0  0  0  0  0  0
  -25.7782    3.3621   29.0389 C   0  0  0  0  0  0  0  0  0  0  0  0
  -26.8684    2.4837   29.1366 C   0  0  0  0  0  0  0  0  0  0  0  0
  -25.5688    4.4175   28.0028 C   0  0  0  0  0  0  0  0  0  0  0  0
  -24.6635    4.4853   27.4452 O   0  0  0  0  0  0  0  0  0  0  0  0
  -26.6554    5.1294   27.6788 O   0  0  0  0  0  0  0  0  0  0  0  0
  -27.6505    1.3809   26.3264 C   0  0  0  0  0  0  0  0  0  0  0  0
  -28.2383    0.6796   25.2428 C   0  0  0  0  0  0  0  0  0  0  0  0
  -29.5048    0.9316   24.8282 C   0  0  0  0  0  0  0  0  0  0  0  0
  -30.3027    0.9583   25.4910 C   0  0  0  0  0  0  0  0  0  0  0  0
  -30.1391    1.6205   26.8560 C   0  0  0  0  0  0  0  0  0  0  0  0
  -28.7635    1.6777   27.3124 C   0  0  0  0  0  0  0  0  0  0  0  0
  -28.5703   -0.5072   31.7498 C   0  0  0  0  0  0  0  0  0  0  0  0
  -27.5604   -0.9443   32.2518 C   0  0  0  0  0  0  0  0  0  0  0  0
  -26.3484   -0.7875   31.6491 N   0  0  0  0  0  0  0  0  0  0  0  0
  1  2  2  0
  2  3  1  0
  2  4  1  0
  4 10  1  0
  4 11  1  0
 15 17  1  0
 17 18  2  0
 17 19  1  0
  9 20  1  0
 10 26  2  3
 26 27  1  0
 27 28  1  0
 11 12  2  0
 12 13  1  0
 13 14  2  0
 14 15  1  0
 15 16  2  0
 16 11  1  0
  3  5  2  0
  5  6  1  0
  6  7  2  0
  7  8  1  0
  8  9  2  0
  9  3  1  0
 20 21  2  0
 21 22  1  0
 22 23  2  0
 23 24  1  0
 24 25  2  0
 25 20  1  0
M  END

$$$$
