No_4521-gen_results/8p0m/2024-11-26-14-13-15/
     RDKit          3D

 27 29  0  0  0  0  0  0  0  0999 V2000
  -28.0162   -0.8135   28.8779 C   0  0  0  0  0  0  0  0  0  0  0  0
  -27.0636   -0.1189   28.6079 C   0  0  0  0  0  0  0  0  0  0  0  0
  -27.0010    0.6913   27.4910 C   0  0  0  0  0  0  0  0  0  0  0  0
  -28.1373    0.7363   26.6350 C   0  0  0  0  0  0  0  0  0  0  0  0
  -29.2360    0.0765   27.0690 C   0  0  0  0  0  0  0  0  0  0  0  0
  -29.2177   -0.6429   28.1747 C   0  0  0  0  0  0  0  0  0  0  0  0
  -30.4152    0.1590   26.1820 C   0  0  0  0  0  0  0  0  0  0  0  0
  -31.6778   -0.7731   26.5294 Cl  0  0  0  0  0  0  0  0  0  0  0  0
  -30.4071    0.8825   25.0868 O   0  0  0  0  0  0  0  0  0  0  0  0
  -25.7060   -0.2004   29.4211 C   0  0  0  0  0  0  0  0  0  0  0  0
  -24.6849   -0.8114   28.9610 N   0  0  0  0  0  0  0  0  0  0  0  0
  -23.4990   -0.9135   29.3871 C   0  0  0  0  0  0  0  0  0  0  0  0
  -22.5421   -0.3077   28.4207 C   0  0  0  0  0  0  0  0  0  0  0  0
  -23.1012    0.8343   27.7192 C   0  0  0  0  0  0  0  0  0  0  0  0
  -22.2520    1.9617   27.5624 C   0  0  0  0  0  0  0  0  0  0  0  0
  -20.8886    1.7400   27.8459 C   0  0  0  0  0  0  0  0  0  0  0  0
  -20.4363    0.6604   28.6176 C   0  0  0  0  0  0  0  0  0  0  0  0
  -21.2546   -0.2697   28.9800 C   0  0  0  0  0  0  0  0  0  0  0  0
  -25.5270    0.6937   30.3343 O   0  0  0  0  0  0  0  0  0  0  0  0
  -23.4675   -0.7529   31.0422 Cl  0  0  0  0  0  0  0  0  0  0  0  0
  -28.0540   -1.6760   30.1500 C   0  0  0  0  0  0  0  0  0  0  0  0
  -28.1303   -1.1738   31.2689 O   0  0  0  0  0  0  0  0  0  0  0  0
  -27.9095   -2.9377   29.9620 O   0  0  0  0  0  0  0  0  0  0  0  0
  -23.0792   -2.5221   29.0453 C   0  0  0  0  0  0  0  0  0  0  0  0
  -25.0868   -1.7980   27.8263 C   0  0  0  0  0  0  0  0  0  0  0  0
  -24.3110   -3.3165   29.0862 C   0  0  0  0  0  0  0  0  0  0  0  0
  -25.1760   -3.1142   28.0860 C   0  0  0  0  0  0  0  0  0  0  0  0
  5  7  1  0
  7  8  1  0
  7  9  2  0
  2 10  1  0
 10 11  1  0
 11 12  1  0
 12 13  1  0
 10 19  2  0
 12 20  1  0
  1 21  1  0
 21 22  1  0
 21 23  2  0
 12 24  1  0
 11 25  1  0
 24 26  1  0
 25 27  1  0
 26 27  1  0
  1  2  2  0
  2  3  1  0
  3  4  2  0
  4  5  1  0
  5  6  2  0
  6  1  1  0
 13 14  2  0
 14 15  1  0
 15 16  2  0
 16 17  1  0
 17 18  2  0
 18 13  1  0
M  END

$$$$
