No_4012-gen_results/8p0m/2024-11-26-14-13-15/
     RDKit          3D

 29 31  0  0  0  0  0  0  0  0999 V2000
  -28.1493   -0.8198   28.9079 Cl  0  0  0  0  0  0  0  0  0  0  0  0
  -27.8339    0.4961   29.0598 C   0  0  0  0  0  0  0  0  0  0  0  0
  -27.6022    1.0128   30.2974 C   0  0  0  0  0  0  0  0  0  0  0  0
  -27.1699    2.3964   30.5338 C   0  0  0  0  0  0  0  0  0  0  0  0
  -26.9133    3.1827   29.3680 C   0  0  0  0  0  0  0  0  0  0  0  0
  -27.0551    2.6221   28.1384 C   0  0  0  0  0  0  0  0  0  0  0  0
  -27.4622    1.3345   27.9669 C   0  0  0  0  0  0  0  0  0  0  0  0
  -27.5746    0.8563   26.5913 C   0  0  0  0  0  0  0  0  0  0  0  0
  -26.5963    1.1537   25.6434 C   0  0  0  0  0  0  0  0  0  0  0  0
  -26.2045    0.1909   24.7732 C   0  0  0  0  0  0  0  0  0  0  0  0
  -27.1380   -0.7888   24.3883 C   0  0  0  0  0  0  0  0  0  0  0  0
  -28.3782   -0.8141   25.0002 C   0  0  0  0  0  0  0  0  0  0  0  0
  -28.6037   -0.0294   26.1238 C   0  0  0  0  0  0  0  0  0  0  0  0
  -26.4211    4.5755   29.5259 C   0  0  0  0  0  0  0  0  0  0  0  0
  -25.8541    5.1279   28.6483 O   0  0  0  0  0  0  0  0  0  0  0  0
  -26.9450    5.3439   30.5454 N   0  0  0  0  0  0  0  0  0  0  0  0
  -26.5398    6.7201   30.7194 C   0  0  0  0  0  0  0  0  0  0  0  0
  -25.4434    6.8700   31.3931 C   0  0  0  0  0  0  0  0  0  0  0  0
  -24.9978    5.9474   32.3065 C   0  0  0  0  0  0  0  0  0  0  0  0
  -23.6784    6.0471   32.9954 C   0  0  0  0  0  0  0  0  0  0  0  0
  -22.9164    7.1944   32.8042 C   0  0  0  0  0  0  0  0  0  0  0  0
  -23.3731    8.1690   31.8669 C   0  0  0  0  0  0  0  0  0  0  0  0
  -24.5411    8.0010   31.2221 C   0  0  0  0  0  0  0  0  0  0  0  0
  -21.6667    7.3026   33.5351 C   0  0  0  0  0  0  0  0  0  0  0  0
  -21.2863    6.4145   34.2491 N   0  0  0  0  0  0  0  0  0  0  0  0
  -21.0189    8.4016   33.4179 O   0  0  0  0  0  0  0  0  0  0  0  0
  -27.4102    7.6445   30.2139 C   0  0  0  0  0  0  0  0  0  0  0  0
  -27.7791    7.6918   28.9644 C   0  0  0  0  0  0  0  0  0  0  0  0
  -28.6426    8.7180   28.4718 C   0  0  0  0  0  0  0  0  0  0  0  0
  1  2  1  0
  7  8  1  0
  5 14  1  0
 14 15  2  0
 14 16  1  0
 16 17  1  0
 17 18  1  0
 21 24  1  0
 24 25  1  0
 24 26  2  0
 17 27  1  0
 27 28  2  3
 28 29  1  0
 18 19  2  0
 19 20  1  0
 20 21  2  0
 21 22  1  0
 22 23  2  0
 23 18  1  0
  2  3  2  0
  3  4  1  0
  4  5  2  0
  5  6  1  0
  6  7  2  0
  7  2  1  0
  8  9  2  0
  9 10  1  0
 10 11  2  0
 11 12  1  0
 12 13  2  0
 13  8  1  0
M  END

$$$$
