No_422-gen_results/8p0m/2024-11-26-14-13-15/
     RDKit          3D

 19 20  0  0  0  0  0  0  0  0999 V2000
  -28.0162   -0.8135   28.8779 C   0  0  0  0  0  0  0  0  0  0  0  0
  -28.4690   -0.7850   29.8287 C   0  0  0  0  0  0  0  0  0  0  0  0
  -28.1960    0.3478   28.0550 C   0  0  0  0  0  0  0  0  0  0  0  0
  -29.0191    1.3501   28.3782 C   0  0  0  0  0  0  0  0  0  0  0  0
  -29.4107    0.1803   30.3782 C   0  0  0  0  0  0  0  0  0  0  0  0
  -29.6059    1.2495   29.6193 C   0  0  0  0  0  0  0  0  0  0  0  0
  -27.4597    0.3802   26.7091 C   0  0  0  0  0  0  0  0  0  0  0  0
  -26.0094    0.3317   26.7236 C   0  0  0  0  0  0  0  0  0  0  0  0
  -25.3055    0.0239   27.8527 C   0  0  0  0  0  0  0  0  0  0  0  0
  -23.9153    0.1563   27.8949 C   0  0  0  0  0  0  0  0  0  0  0  0
  -23.1483   -0.2523   29.0524 C   0  0  0  0  0  0  0  0  0  0  0  0
  -21.7767    0.0855   29.0711 C   0  0  0  0  0  0  0  0  0  0  0  0
  -21.2022    0.9425   28.1427 C   0  0  0  0  0  0  0  0  0  0  0  0
  -22.0507    1.5804   27.2012 C   0  0  0  0  0  0  0  0  0  0  0  0
  -23.3659    1.2640   27.1513 C   0  0  0  0  0  0  0  0  0  0  0  0
  -28.2198    0.3781   25.5687 C   0  0  0  0  0  0  0  0  0  0  0  0
  -25.4390   -0.0118   25.4053 C   0  0  0  0  0  0  0  0  0  0  0  0
  -29.2734    0.4411   25.3554 C   0  0  0  0  0  0  0  0  0  0  0  0
  -29.9038    0.3287   24.0507 C   0  0  0  0  0  0  0  0  0  0  0  0
  3  7  1  0
  7  8  1  0
  8  9  1  0
  7 16  1  0
  8 17  1  0
 16 18  2  3
 18 19  1  0
  9 10  1  0
  1  2  2  0
  2  5  1  0
  5  6  2  0
  6  4  1  0
  4  3  2  0
  3  1  1  0
 10 11  2  0
 11 12  1  0
 12 13  2  0
 13 14  1  0
 14 15  2  0
 15 10  1  0
M  END

$$$$
