No_4454-gen_results/8p0m/2024-11-26-14-13-15/
     RDKit          3D

 22 22  0  0  0  0  0  0  0  0999 V2000
  -28.0162   -0.8135   28.8779 C   0  0  0  0  0  0  0  0  0  0  0  0
  -27.0636   -0.1189   28.6079 C   0  0  0  0  0  0  0  0  0  0  0  0
  -26.9716    0.7139   27.5060 C   0  0  0  0  0  0  0  0  0  0  0  0
  -28.1053    0.7744   26.6421 C   0  0  0  0  0  0  0  0  0  0  0  0
  -29.2008    0.1044   27.0527 C   0  0  0  0  0  0  0  0  0  0  0  0
  -29.2096   -0.6029   28.1853 C   0  0  0  0  0  0  0  0  0  0  0  0
  -30.3749    0.2232   26.1670 C   0  0  0  0  0  0  0  0  0  0  0  0
  -30.3266    0.0573   24.9664 O   0  0  0  0  0  0  0  0  0  0  0  0
  -31.6321    0.2796   26.7595 N   0  0  0  0  0  0  0  0  0  0  0  0
  -32.7999    0.2424   25.9576 C   0  0  0  0  0  0  0  0  0  0  0  0
  -28.0347   -1.6638   30.1457 C   0  0  0  0  0  0  0  0  0  0  0  0
  -28.6980   -1.5835   31.0839 N   0  0  0  0  0  0  0  0  0  0  0  0
  -26.9661   -2.4641   30.2379 O   0  0  0  0  0  0  0  0  0  0  0  0
  -28.7127   -2.5068   32.2349 C   0  0  0  0  0  0  0  0  0  0  0  0
  -29.9076   -0.6249   31.1368 C   0  0  0  0  0  0  0  0  0  0  0  0
  -30.0742   -2.6061   32.9080 C   0  0  0  0  0  0  0  0  0  0  0  0
  -30.6951   -3.2403   32.2463 C   0  0  0  0  0  0  0  0  0  0  0  0
  -31.5361   -4.1466   32.8796 C   0  0  0  0  0  0  0  0  0  0  0  0
  -31.5131   -5.1652   32.9924 C   0  0  0  0  0  0  0  0  0  0  0  0
  -32.4412   -6.1502   33.6171 C   0  0  0  0  0  0  0  0  0  0  0  0
  -33.6083   -5.6342   34.0611 C   0  0  0  0  0  0  0  0  0  0  0  0
  -33.8281   -4.3093   33.9011 C   0  0  0  0  0  0  0  0  0  0  0  0
  5  7  1  0
  7  8  2  0
  7  9  1  0
  9 10  1  0
  1 11  1  0
 11 12  1  0
 11 13  2  0
 12 14  1  0
 12 15  1  0
 14 16  1  0
 16 17  1  0
 17 18  2  3
 18 19  1  0
 19 20  1  0
 20 21  2  3
 21 22  1  0
  1  2  2  0
  2  3  1  0
  3  4  2  0
  4  5  1  0
  5  6  2  0
  6  1  1  0
M  END

$$$$
