No_43-gen_results/8p0m/2024-11-26-14-13-15/
     RDKit          3D

 18 19  0  0  0  0  0  0  0  0999 V2000
  -28.0162   -0.8135   28.8779 C   0  0  0  0  0  0  0  0  0  0  0  0
  -28.4690   -0.7850   29.8287 C   0  0  0  0  0  0  0  0  0  0  0  0
  -28.1816    0.4277   28.1134 C   0  0  0  0  0  0  0  0  0  0  0  0
  -28.9841    1.4155   28.5154 C   0  0  0  0  0  0  0  0  0  0  0  0
  -28.3375   -2.0481   30.7873 C   0  0  0  0  0  0  0  0  0  0  0  0
  -29.5615    1.2930   29.7416 C   0  0  0  0  0  0  0  0  0  0  0  0
  -29.3196    0.1647   30.4451 C   0  0  0  0  0  0  0  0  0  0  0  0
  -28.8290   -2.9408   30.7338 O   0  0  0  0  0  0  0  0  0  0  0  0
  -27.2321   -1.9599   31.6547 O   0  0  0  0  0  0  0  0  0  0  0  0
  -27.4475    0.4940   26.7458 C   0  0  0  0  0  0  0  0  0  0  0  0
  -26.2969    0.2122   26.6405 O   0  0  0  0  0  0  0  0  0  0  0  0
  -28.0912    0.8076   25.7163 O   0  0  0  0  0  0  0  0  0  0  0  0
  -25.2410    1.1610   26.8582 C   0  0  0  0  0  0  0  0  0  0  0  0
  -24.2841    0.8377   27.8288 C   0  0  0  0  0  0  0  0  0  0  0  0
  -23.1632    1.7014   27.9688 C   0  0  0  0  0  0  0  0  0  0  0  0
  -22.8962    2.6287   26.9672 C   0  0  0  0  0  0  0  0  0  0  0  0
  -23.7983    2.7329   25.8825 C   0  0  0  0  0  0  0  0  0  0  0  0
  -24.9174    1.9779   25.8458 C   0  0  0  0  0  0  0  0  0  0  0  0
  2  5  1  0
  5  8  2  0
  5  9  1  0
  3 10  1  0
 10 11  1  0
 10 12  2  0
 11 13  1  0
 13 14  2  0
 14 15  1  0
 15 16  2  0
 16 17  1  0
 17 18  2  0
 18 13  1  0
  1  2  2  0
  2  7  1  0
  7  6  2  0
  6  4  1  0
  4  3  2  0
  3  1  1  0
M  END

$$$$
