No_4162-gen_results/8p0m/2024-11-26-14-13-15/
     RDKit          3D

 13 13  0  0  0  0  0  0  0  0999 V2000
  -28.0162   -0.8135   28.8779 C   0  0  0  0  0  0  0  0  0  0  0  0
  -28.4690   -0.7850   29.8287 C   0  0  0  0  0  0  0  0  0  0  0  0
  -28.1960    0.3478   28.0550 C   0  0  0  0  0  0  0  0  0  0  0  0
  -29.0191    1.3501   28.3782 C   0  0  0  0  0  0  0  0  0  0  0  0
  -29.6249    1.2683   29.6012 C   0  0  0  0  0  0  0  0  0  0  0  0
  -29.3821    0.1816   30.4004 C   0  0  0  0  0  0  0  0  0  0  0  0
  -27.4497    0.3750   26.7070 C   0  0  0  0  0  0  0  0  0  0  0  0
  -26.4791    1.3700   26.6045 C   0  0  0  0  0  0  0  0  0  0  0  0
  -25.3638    1.3624   27.5303 C   0  0  0  0  0  0  0  0  0  0  0  0
  -24.8321    0.5232   28.1175 C   0  0  0  0  0  0  0  0  0  0  0  0
  -23.6959    0.6441   28.9749 C   0  0  0  0  0  0  0  0  0  0  0  0
  -23.2631   -0.3556   29.8916 C   0  0  0  0  0  0  0  0  0  0  0  0
  -24.2629    2.4951   27.4479 C   0  0  0  0  0  0  0  0  0  0  0  0
  3  7  1  0
  7  8  1  0
  8  9  1  0
  9 10  2  3
 10 11  1  0
 11 12  2  0
  9 13  1  0
  1  2  2  0
  2  6  1  0
  6  5  2  0
  5  4  1  0
  4  3  2  0
  3  1  1  0
M  END

$$$$
