No_4010-gen_results/8p0m/2024-11-26-14-13-15/
     RDKit          3D

 10 10  0  0  0  0  0  0  0  0999 V2000
  -28.1229   -1.3353   28.4874 O   0  0  0  0  0  0  0  0  0  0  0  0
  -28.5208   -0.4363   29.0779 C   0  0  0  0  0  0  0  0  0  0  0  0
  -27.6655    0.1129   30.0346 C   0  0  0  0  0  0  0  0  0  0  0  0
  -29.8108   -0.1163   29.1503 N   0  0  0  0  0  0  0  0  0  0  0  0
  -27.8986    0.9581   30.9114 C   0  0  0  0  0  0  0  0  0  0  0  0
  -30.7280   -0.6145   28.3618 C   0  0  0  0  0  0  0  0  0  0  0  0
  -26.1745   -0.3124   29.9178 C   0  0  0  0  0  0  0  0  0  0  0  0
  -25.2490    0.1248   30.7761 C   0  0  0  0  0  0  0  0  0  0  0  0
  -26.9032    1.5314   31.8624 C   0  0  0  0  0  0  0  0  0  0  0  0
  -25.6095    1.1219   31.7563 C   0  0  0  0  0  0  0  0  0  0  0  0
  1  2  2  0
  2  3  1  0
  2  4  1  0
  4  6  1  0
  3  5  2  0
  5  9  1  0
  9 10  2  0
 10  8  1  0
  8  7  2  0
  7  3  1  0
M  END

$$$$
