No_4771-gen_results/8p0m/2024-11-26-14-13-15/
     RDKit          3D

 25 29  0  0  0  0  0  0  0  0999 V2000
  -28.0544   -1.0498   28.7246 N   0  0  0  0  0  0  0  0  0  0  0  0
  -27.7460   -0.0733   29.0098 C   0  0  0  0  0  0  0  0  0  0  0  0
  -27.1741    0.7325   28.8254 C   0  0  0  0  0  0  0  0  0  0  0  0
  -26.9135    2.0291   29.5745 C   0  0  0  0  0  0  0  0  0  0  0  0
  -27.4918    2.0212   30.8117 C   0  0  0  0  0  0  0  0  0  0  0  0
  -28.1878    0.9396   31.2489 C   0  0  0  0  0  0  0  0  0  0  0  0
  -28.3179   -0.1035   30.5491 C   0  0  0  0  0  0  0  0  0  0  0  0
  -26.4733    0.9109   27.4333 C   0  0  0  0  0  0  0  0  0  0  0  0
  -25.1519    0.5016   27.4386 C   0  0  0  0  0  0  0  0  0  0  0  0
  -24.4921   -0.0992   28.4341 C   0  0  0  0  0  0  0  0  0  0  0  0
  -23.0272   -0.2297   28.3852 C   0  0  0  0  0  0  0  0  0  0  0  0
  -22.3094    0.7079   27.6507 C   0  0  0  0  0  0  0  0  0  0  0  0
  -22.9847    1.5586   26.7428 C   0  0  0  0  0  0  0  0  0  0  0  0
  -24.3713    1.5454   26.6696 C   0  0  0  0  0  0  0  0  0  0  0  0
  -26.8883    1.9970   26.6309 C   0  0  0  0  0  0  0  0  0  0  0  0
  -25.0846    2.4257   25.9839 N   0  0  0  0  0  0  0  0  0  0  0  0
  -26.2990    2.7328   25.8560 C   0  0  0  0  0  0  0  0  0  0  0  0
  -28.4243    2.2368   26.5282 C   0  0  0  0  0  0  0  0  0  0  0  0
  -28.9829    3.1020   26.3505 N   0  0  0  0  0  0  0  0  0  0  0  0
  -30.4030    3.2081   26.2341 C   0  0  0  0  0  0  0  0  0  0  0  0
  -29.3132    1.0980   26.8227 C   0  0  0  0  0  0  0  0  0  0  0  0
  -30.6405    1.1192   26.7481 C   0  0  0  0  0  0  0  0  0  0  0  0
  -31.1714    2.3119   26.4725 C   0  0  0  0  0  0  0  0  0  0  0  0
  -28.8917   -1.4333   30.5869 C   0  0  0  0  0  0  0  0  0  0  0  0
  -28.6868   -1.9614   29.4369 N   0  0  0  0  0  0  0  0  0  0  0  0
  1  2  1  0
  3  8  1  0
 15 18  1  0
  7 24  1  0
  1 25  2  0
 24 25  1  0
 18 19  2  0
 19 20  1  0
 20 23  2  0
 23 22  1  0
 22 21  2  0
 21 18  1  0
  2  3  2  0
  3  4  1  0
  4  5  2  0
  5  6  1  0
  6  7  2  0
  7  2  1  0
  9 10  2  0
 10 11  1  0
 11 12  2  0
 12 13  1  0
 13 14  2  0
  8  9  1  0
  9 14  1  0
 14 16  1  0
 16 17  2  0
 17 15  1  0
 15  8  2  0
M  END

$$$$
