No_4029-gen_results/8p0m/2024-11-26-14-13-15/
     RDKit          3D

 33 37  0  0  0  0  0  0  0  0999 V2000
  -28.0162   -0.8135   28.8779 C   0  0  0  0  0  0  0  0  0  0  0  0
  -28.4690   -0.7850   29.8287 C   0  0  0  0  0  0  0  0  0  0  0  0
  -28.1816    0.4277   28.1134 C   0  0  0  0  0  0  0  0  0  0  0  0
  -27.4498    0.6435   26.8500 C   0  0  0  0  0  0  0  0  0  0  0  0
  -26.1815    0.0357   26.7145 C   0  0  0  0  0  0  0  0  0  0  0  0
  -25.7800   -0.9326   27.6938 C   0  0  0  0  0  0  0  0  0  0  0  0
  -26.5568   -1.2134   28.7413 C   0  0  0  0  0  0  0  0  0  0  0  0
  -28.3021   -1.9782   30.6613 N   0  0  0  0  0  0  0  0  0  0  0  0
  -29.5330   -0.1613   30.2779 O   0  0  0  0  0  0  0  0  0  0  0  0
  -27.3274   -2.9047   30.4033 C   0  0  0  0  0  0  0  0  0  0  0  0
  -26.1918   -2.4606   29.5004 C   0  0  0  0  0  0  0  0  0  0  0  0
  -25.0586   -3.2620   29.3081 C   0  0  0  0  0  0  0  0  0  0  0  0
  -24.0581   -3.4570   29.1123 N   0  0  0  0  0  0  0  0  0  0  0  0
  -29.1833   -2.3615   31.8492 C   0  0  0  0  0  0  0  0  0  0  0  0
  -27.7698    1.6669   25.9145 C   0  0  0  0  0  0  0  0  0  0  0  0
  -27.2085    2.7868   26.1238 N   0  0  0  0  0  0  0  0  0  0  0  0
  -27.8497    4.0112   26.3730 C   0  0  0  0  0  0  0  0  0  0  0  0
  -25.7460    2.9151   26.0214 C   0  0  0  0  0  0  0  0  0  0  0  0
  -25.0736    3.9026   26.8008 C   0  0  0  0  0  0  0  0  0  0  0  0
  -25.6848    5.1666   27.0346 C   0  0  0  0  0  0  0  0  0  0  0  0
  -27.1165    5.1402   27.0002 C   0  0  0  0  0  0  0  0  0  0  0  0
  -29.2676    1.8542   25.8410 C   0  0  0  0  0  0  0  0  0  0  0  0
  -29.9927    0.9610   25.0302 C   0  0  0  0  0  0  0  0  0  0  0  0
  -30.0178    2.6258   26.7484 C   0  0  0  0  0  0  0  0  0  0  0  0
  -31.3861    2.6219   26.7722 C   0  0  0  0  0  0  0  0  0  0  0  0
  -31.3470    0.8760   25.0419 C   0  0  0  0  0  0  0  0  0  0  0  0
  -32.0353    1.7311   25.8785 C   0  0  0  0  0  0  0  0  0  0  0  0
  -33.5198    1.6185   25.8958 C   0  0  0  0  0  0  0  0  0  0  0  0
  -34.2791    2.2558   26.5771 O   0  0  0  0  0  0  0  0  0  0  0  0
  -34.0398    0.7200   25.0796 O   0  0  0  0  0  0  0  0  0  0  0  0
  -29.2162    0.0273   24.1824 C   0  0  0  0  0  0  0  0  0  0  0  0
  -27.3058    1.3065   24.4834 C   0  0  0  0  0  0  0  0  0  0  0  0
  -27.9436    0.2999   23.8380 C   0  0  0  0  0  0  0  0  0  0  0  0
  1  2  1  0
  2  8  1  0
  2  9  2  0
  8 10  1  0
  7 11  1  0
 10 11  1  0
 11 12  1  0
 12 13  3  0
  8 14  1  0
  4 15  1  0
 15 16  1  0
 16 17  1  0
 16 18  1  0
 19 20  1  0
 15 22  1  0
 27 28  1  0
 28 29  2  0
 28 30  1  0
 23 31  1  0
 15 32  1  0
 31 33  1  0
 32 33  1  0
 17 21  1  0
 21 20  1  0
 19 18  1  0
  1  3  2  0
  3  4  1  0
  4  5  2  0
  5  6  1  0
  6  7  2  0
  7  1  1  0
 22 23  2  0
 23 26  1  0
 26 27  2  0
 27 25  1  0
 25 24  2  0
 24 22  1  0
M  END

$$$$
