No_4961-gen_results/8p0m/2024-11-26-14-13-15/
     RDKit          3D

 21 24  0  0  0  0  0  0  0  0999 V2000
  -28.0162   -0.8135   28.8779 C   0  0  0  0  0  0  0  0  0  0  0  0
  -28.4690   -0.7850   29.8287 C   0  0  0  0  0  0  0  0  0  0  0  0
  -27.0871    0.2903   28.6377 C   0  0  0  0  0  0  0  0  0  0  0  0
  -26.2516    0.4114   27.4223 C   0  0  0  0  0  0  0  0  0  0  0  0
  -28.3913    0.1041   30.9805 C   0  0  0  0  0  0  0  0  0  0  0  0
  -27.5332    1.1666   30.7866 C   0  0  0  0  0  0  0  0  0  0  0  0
  -26.8281    1.2557   29.6454 C   0  0  0  0  0  0  0  0  0  0  0  0
  -25.1894    0.4694   27.3614 N   0  0  0  0  0  0  0  0  0  0  0  0
  -26.9287    0.0634   26.2698 O   0  0  0  0  0  0  0  0  0  0  0  0
  -24.2450    0.7371   28.5158 C   0  0  0  0  0  0  0  0  0  0  0  0
  -23.3049   -0.3885   28.6751 C   0  0  0  0  0  0  0  0  0  0  0  0
  -22.9089   -0.5551   29.8309 C   0  0  0  0  0  0  0  0  0  0  0  0
  -22.9279    0.4291   30.9283 C   0  0  0  0  0  0  0  0  0  0  0  0
  -23.8050    1.5123   30.6708 C   0  0  0  0  0  0  0  0  0  0  0  0
  -24.5390    1.5753   29.4738 C   0  0  0  0  0  0  0  0  0  0  0  0
  -25.9213    1.4533   29.9806 N   0  0  0  0  0  0  0  0  0  0  0  0
  -25.9391    2.8249   30.9931 C   0  0  0  0  0  0  0  0  0  0  0  0
  -25.4663    3.8595   30.6599 C   0  0  0  0  0  0  0  0  0  0  0  0
  -25.5555    4.9821   31.4395 C   0  0  0  0  0  0  0  0  0  0  0  0
  -26.0442    4.8281   32.7675 C   0  0  0  0  0  0  0  0  0  0  0  0
  -26.4151    3.0036   32.3538 C   0  0  0  0  0  0  0  0  0  0  0  0
  3  4  1  0
  4  8  1  0
  4  9  2  0
  8 10  1  0
  7 16  1  0
 15 16  1  0
 16 17  1  0
 17 18  1  0
 18 19  2  0
 19 20  1  0
 17 21  1  0
 20 21  2  0
  1  2  2  0
  2  5  1  0
  5  6  2  0
  6  7  1  0
  7  3  2  0
  3  1  1  0
 10 11  2  0
 11 12  1  0
 12 13  2  0
 13 14  1  0
 14 15  2  0
 15 10  1  0
M  END

$$$$
