No_4989-gen_results/8p0m/2024-11-26-14-13-15/
     RDKit          3D

 21 24  0  0  0  0  0  0  0  0999 V2000
  -28.0162   -0.8135   28.8779 C   0  0  0  0  0  0  0  0  0  0  0  0
  -27.0636   -0.1189   28.6079 C   0  0  0  0  0  0  0  0  0  0  0  0
  -26.9716    0.7139   27.5060 C   0  0  0  0  0  0  0  0  0  0  0  0
  -28.1053    0.7744   26.6421 C   0  0  0  0  0  0  0  0  0  0  0  0
  -29.2041    0.1179   27.0477 C   0  0  0  0  0  0  0  0  0  0  0  0
  -29.2127   -0.6088   28.1281 C   0  0  0  0  0  0  0  0  0  0  0  0
  -25.7106    1.4519   27.1380 C   0  0  0  0  0  0  0  0  0  0  0  0
  -24.6052    0.9253   27.6902 C   0  0  0  0  0  0  0  0  0  0  0  0
  -23.3376    1.6509   27.5494 C   0  0  0  0  0  0  0  0  0  0  0  0
  -22.1760    1.2278   28.2868 C   0  0  0  0  0  0  0  0  0  0  0  0
  -22.1814    0.0854   29.0261 C   0  0  0  0  0  0  0  0  0  0  0  0
  -23.3607   -0.6934   29.1008 C   0  0  0  0  0  0  0  0  0  0  0  0
  -24.5306   -0.2411   28.4874 C   0  0  0  0  0  0  0  0  0  0  0  0
  -25.7150   -0.6112   29.1351 C   0  0  0  0  0  0  0  0  0  0  0  0
  -25.7732    2.6005   26.3017 C   0  0  0  0  0  0  0  0  0  0  0  0
  -25.7682   -1.4828   30.0763 O   0  0  0  0  0  0  0  0  0  0  0  0
  -30.3550    0.4039   26.1187 C   0  0  0  0  0  0  0  0  0  0  0  0
  -31.3852    0.0559   26.3085 O   0  0  0  0  0  0  0  0  0  0  0  0
  -30.1349    1.2770   25.1162 N   0  0  0  0  0  0  0  0  0  0  0  0
  -29.1157    2.0482   24.7580 C   0  0  0  0  0  0  0  0  0  0  0  0
  -28.0231    1.8051   25.5819 C   0  0  0  0  0  0  0  0  0  0  0  0
  3  7  1  0
  7  8  1  0
  2 14  1  0
 13 14  1  0
  7 15  1  0
 14 16  2  0
  5 17  1  0
 17 18  2  0
 17 19  1  0
 19 20  1  0
  4 21  1  0
 21 20  1  0
  1  2  2  0
  2  3  1  0
  3  4  2  0
  4  5  1  0
  5  6  2  0
  6  1  1  0
  8  9  2  0
  9 10  1  0
 10 11  2  0
 11 12  1  0
 12 13  2  0
 13  8  1  0
M  END

$$$$
