No_4511-gen_results/8p0m/2024-11-26-14-13-15/
     RDKit          3D

 18 19  0  0  0  0  0  0  0  0999 V2000
  -28.1229   -1.3353   28.4874 O   0  0  0  0  0  0  0  0  0  0  0  0
  -27.0637   -0.8242   28.8687 C   0  0  0  0  0  0  0  0  0  0  0  0
  -26.9592    0.0926   29.7582 C   0  0  0  0  0  0  0  0  0  0  0  0
  -25.9002   -1.3969   28.3552 F   0  0  0  0  0  0  0  0  0  0  0  0
  -25.6945    0.7127   30.0607 C   0  0  0  0  0  0  0  0  0  0  0  0
  -25.0067    1.3447   29.6632 C   0  0  0  0  0  0  0  0  0  0  0  0
  -23.6088    1.7354   30.0536 C   0  0  0  0  0  0  0  0  0  0  0  0
  -22.8395    0.7600   29.9607 C   0  0  0  0  0  0  0  0  0  0  0  0
  -23.3483   -0.5092   30.5943 C   0  0  0  0  0  0  0  0  0  0  0  0
  -24.7741   -0.5975   30.4914 C   0  0  0  0  0  0  0  0  0  0  0  0
  -25.7672    2.7772   29.2592 C   0  0  0  0  0  0  0  0  0  0  0  0
  -26.7315    2.6351   28.4964 N   0  0  0  0  0  0  0  0  0  0  0  0
  -27.3500    3.2292   27.9485 C   0  0  0  0  0  0  0  0  0  0  0  0
  -27.2605    4.5817   28.1327 C   0  0  0  0  0  0  0  0  0  0  0  0
  -26.1141    5.0293   28.8829 C   0  0  0  0  0  0  0  0  0  0  0  0
  -25.3083    4.0976   29.4769 C   0  0  0  0  0  0  0  0  0  0  0  0
  -26.8569    1.2294   28.1745 N   0  0  0  0  0  0  0  0  0  0  0  0
  -27.7856    1.2805   27.0722 C   0  0  0  0  0  0  0  0  0  0  0  0
  1  2  2  0
  2  3  1  0
  2  4  1  0
  3  5  1  0
  6 11  1  0
 11 12  1  0
 12 13  1  0
 14 15  1  0
 11 16  1  0
 15 16  1  0
 12 17  1  0
 17 18  2  0
 14 13  1  0
  5  6  2  0
  6  7  1  0
  7  8  2  0
  8  9  1  0
  9 10  2  0
 10  5  1  0
M  END

$$$$
