No_4531-gen_results/8p0m/2024-11-26-14-13-15/
     RDKit          3D

 17 18  0  0  0  0  0  0  0  0999 V2000
  -28.0162   -0.8135   28.8779 C   0  0  0  0  0  0  0  0  0  0  0  0
  -28.4690   -0.7850   29.8287 C   0  0  0  0  0  0  0  0  0  0  0  0
  -27.1356    0.2359   28.5352 C   0  0  0  0  0  0  0  0  0  0  0  0
  -26.8745    1.2825   29.3982 C   0  0  0  0  0  0  0  0  0  0  0  0
  -28.3613    0.1987   30.9244 C   0  0  0  0  0  0  0  0  0  0  0  0
  -27.5277    1.2234   30.6356 C   0  0  0  0  0  0  0  0  0  0  0  0
  -26.3987    0.2949   27.2279 C   0  0  0  0  0  0  0  0  0  0  0  0
  -26.2345    1.5269   26.9600 F   0  0  0  0  0  0  0  0  0  0  0  0
  -25.2362   -0.3484   27.3099 F   0  0  0  0  0  0  0  0  0  0  0  0
  -27.1496   -0.2082   26.2061 F   0  0  0  0  0  0  0  0  0  0  0  0
  -29.5215   -2.1758   30.3746 Cl  0  0  0  0  0  0  0  0  0  0  0  0
  -27.3061    2.3653   31.5874 C   0  0  0  0  0  0  0  0  0  0  0  0
  -26.3831    2.7233   31.9636 N   0  0  0  0  0  0  0  0  0  0  0  0
  -26.0560    3.8511   32.6501 C   0  0  0  0  0  0  0  0  0  0  0  0
  -28.3041    3.4330   31.4887 C   0  0  0  0  0  0  0  0  0  0  0  0
  -28.2086    4.5968   32.2169 C   0  0  0  0  0  0  0  0  0  0  0  0
  -26.9882    4.8346   32.8736 C   0  0  0  0  0  0  0  0  0  0  0  0
  3  7  1  0
  7  8  1  0
  7  9  1  0
  7 10  1  0
  2 11  1  0
  6 12  1  0
 12 13  2  0
 13 14  1  0
 14 17  2  0
 17 16  1  0
 16 15  2  0
 15 12  1  0
  1  2  2  0
  2  5  1  0
  5  6  2  0
  6  4  1  0
  4  3  2  0
  3  1  1  0
M  END

$$$$
