No_4432-gen_results/8p0m/2024-11-26-14-13-15/
     RDKit          3D

 16 17  0  0  0  0  0  0  0  0999 V2000
  -28.0162   -0.8135   28.8779 C   0  0  0  0  0  0  0  0  0  0  0  0
  -27.0636   -0.1189   28.6079 C   0  0  0  0  0  0  0  0  0  0  0  0
  -25.7647   -0.3897   29.0360 C   0  0  0  0  0  0  0  0  0  0  0  0
  -25.5296   -1.5302   29.9014 C   0  0  0  0  0  0  0  0  0  0  0  0
  -26.6577   -2.2915   30.2035 C   0  0  0  0  0  0  0  0  0  0  0  0
  -27.8548   -1.9555   29.7630 C   0  0  0  0  0  0  0  0  0  0  0  0
  -24.4274    0.2189   28.7748 C   0  0  0  0  0  0  0  0  0  0  0  0
  -24.0094    1.2736   29.4388 C   0  0  0  0  0  0  0  0  0  0  0  0
  -22.8045    1.8417   29.0019 N   0  0  0  0  0  0  0  0  0  0  0  0
  -24.6688    1.9068   30.5474 C   0  0  0  0  0  0  0  0  0  0  0  0
  -25.9062    2.3373   30.4813 C   0  0  0  0  0  0  0  0  0  0  0  0
  -26.1780    3.5303   29.8163 C   0  0  0  0  0  0  0  0  0  0  0  0
  -27.4670    4.1204   29.7915 C   0  0  0  0  0  0  0  0  0  0  0  0
  -28.4511    3.4309   30.5067 C   0  0  0  0  0  0  0  0  0  0  0  0
  -28.1951    2.3270   31.2607 C   0  0  0  0  0  0  0  0  0  0  0  0
  -26.9192    1.8197   31.3518 C   0  0  0  0  0  0  0  0  0  0  0  0
  3  7  1  0
  7  8  2  3
  8  9  1  0
  8 10  1  0
 10 11  1  0
 11 12  2  0
 12 13  1  0
 13 14  2  0
 14 15  1  0
 15 16  2  0
 16 11  1  0
  1  2  2  0
  2  3  1  0
  3  4  2  0
  4  5  1  0
  5  6  2  0
  6  1  1  0
M  END

$$$$
