No_445-gen_results/8p0m/2024-11-26-14-13-15/
     RDKit          3D

  4  3  0  0  0  0  0  0  0  0999 V2000
  -28.0162   -0.8135   28.8779 C   0  0  0  0  0  0  0  0  0  0  0  0
  -28.4690   -0.7850   29.8287 C   0  0  0  0  0  0  0  0  0  0  0  0
  -28.1915    0.1474   27.8715 C   0  0  0  0  0  0  0  0  0  0  0  0
  -29.2816    1.0120   27.9611 C   0  0  0  0  0  0  0  0  0  0  0  0
  1  2  3  0
  1  3  1  0
  3  4  1  0
M  END

$$$$
