No_4415-gen_results/8p0m/2024-11-26-14-13-15/
     RDKit          3D

 20 22  0  0  0  0  0  0  0  0999 V2000
  -28.0162   -0.8135   28.8779 C   0  0  0  0  0  0  0  0  0  0  0  0
  -28.4690   -0.7850   29.8287 C   0  0  0  0  0  0  0  0  0  0  0  0
  -26.5042   -0.7777   28.8766 C   0  0  0  0  0  0  0  0  0  0  0  0
  -25.6540   -0.6597   27.7191 C   0  0  0  0  0  0  0  0  0  0  0  0
  -27.9180   -0.9374   31.1824 C   0  0  0  0  0  0  0  0  0  0  0  0
  -26.5423   -0.9399   31.2606 C   0  0  0  0  0  0  0  0  0  0  0  0
  -25.7832   -0.8935   30.1201 C   0  0  0  0  0  0  0  0  0  0  0  0
  -25.9259    0.2819   26.7445 C   0  0  0  0  0  0  0  0  0  0  0  0
  -24.9904    0.6776   25.8676 C   0  0  0  0  0  0  0  0  0  0  0  0
  -24.1885    1.6080   25.8479 C   0  0  0  0  0  0  0  0  0  0  0  0
  -24.1204    2.5824   26.9652 C   0  0  0  0  0  0  0  0  0  0  0  0
  -25.3103    3.1437   27.3184 C   0  0  0  0  0  0  0  0  0  0  0  0
  -26.3989    2.2622   27.7436 C   0  0  0  0  0  0  0  0  0  0  0  0
  -26.8552    1.2291   27.1369 C   0  0  0  0  0  0  0  0  0  0  0  0
  -29.9536   -0.7847   29.8945 N   0  0  0  0  0  0  0  0  0  0  0  0
  -30.7069   -1.5975   30.3426 C   0  0  0  0  0  0  0  0  0  0  0  0
  -32.1077   -1.4357   30.1926 C   0  0  0  0  0  0  0  0  0  0  0  0
  -30.5382    0.3410   29.2264 C   0  0  0  0  0  0  0  0  0  0  0  0
  -31.8384    0.5335   29.0493 C   0  0  0  0  0  0  0  0  0  0  0  0
  -32.6587   -0.4124   29.5985 C   0  0  0  0  0  0  0  0  0  0  0  0
  3  4  1  0
  4  8  1  0
  8  9  2  0
  9 10  1  0
 10 11  2  0
 11 12  1  0
 12 13  2  0
  8 14  1  0
 13 14  1  0
  2 15  1  0
 15 16  1  0
 15 18  1  0
 17 20  1  0
 19 20  1  0
 16 17  1  0
 19 18  1  0
  1  2  2  0
  2  5  1  0
  5  6  2  0
  6  7  1  0
  7  3  2  0
  3  1  1  0
M  END

$$$$
