No_4576-gen_results/8p0m/2024-11-26-14-13-15/
     RDKit          3D

 17 19  0  0  0  0  0  0  0  0999 V2000
  -28.0162   -0.8135   28.8779 C   0  0  0  0  0  0  0  0  0  0  0  0
  -27.0636   -0.1190   28.6079 C   0  0  0  0  0  0  0  0  0  0  0  0
  -25.7923   -0.4302   29.0761 C   0  0  0  0  0  0  0  0  0  0  0  0
  -25.5756   -1.5654   29.9363 C   0  0  0  0  0  0  0  0  0  0  0  0
  -26.7354   -2.3004   30.2173 C   0  0  0  0  0  0  0  0  0  0  0  0
  -27.9184   -1.9537   29.7629 C   0  0  0  0  0  0  0  0  0  0  0  0
  -27.1057    1.1023   27.7593 C   0  0  0  0  0  0  0  0  0  0  0  0
  -26.1219    1.4820   27.0232 C   0  0  0  0  0  0  0  0  0  0  0  0
  -26.0928    2.6187   26.1808 C   0  0  0  0  0  0  0  0  0  0  0  0
  -24.8978    3.1557   25.6096 C   0  0  0  0  0  0  0  0  0  0  0  0
  -23.6829    2.4421   25.8463 C   0  0  0  0  0  0  0  0  0  0  0  0
  -23.6913    1.3254   26.6991 C   0  0  0  0  0  0  0  0  0  0  0  0
  -24.8098    0.8591   27.2802 C   0  0  0  0  0  0  0  0  0  0  0  0
  -24.7160   -0.1674   28.2908 C   0  0  0  0  0  0  0  0  0  0  0  0
  -28.4979    1.5753   27.4709 C   0  0  0  0  0  0  0  0  0  0  0  0
  -29.2566    1.0269   26.5859 C   0  0  0  0  0  0  0  0  0  0  0  0
  -30.5333    1.5238   26.3475 C   0  0  0  0  0  0  0  0  0  0  0  0
  7 15  1  0
 15 16  2  3
 16 17  1  0
  1  2  2  0
  3  4  2  0
  4  5  1  0
  5  6  2  0
  6  1  1  0
  2  3  1  0
  3 14  1  0
 14 13  2  0
  8  7  2  0
  7  2  1  0
  8  9  1  0
  9 10  2  0
 10 11  1  0
 11 12  2  0
 12 13  1  0
 13  8  1  0
M  END

$$$$
