No_42-gen_results/8p0m/2024-11-26-14-13-15/
     RDKit          3D

 33 35  0  0  0  0  0  0  0  0999 V2000
  -28.1229   -1.3353   28.4874 O   0  0  0  0  0  0  0  0  0  0  0  0
  -27.4806   -0.4044   28.7094 C   0  0  0  0  0  0  0  0  0  0  0  0
  -26.3804   -0.0867   27.9394 C   0  0  0  0  0  0  0  0  0  0  0  0
  -27.8993    0.6459   29.6321 N   0  0  0  0  0  0  0  0  0  0  0  0
  -25.2331   -0.5875   28.2500 N   0  0  0  0  0  0  0  0  0  0  0  0
  -24.8978   -1.6924   28.7297 C   0  0  0  0  0  0  0  0  0  0  0  0
  -23.5314   -2.0560   29.0939 C   0  0  0  0  0  0  0  0  0  0  0  0
  -23.9307    0.1071   27.9418 C   0  0  0  0  0  0  0  0  0  0  0  0
  -22.8900   -0.7900   28.6593 C   0  0  0  0  0  0  0  0  0  0  0  0
  -27.2645    1.9030   29.8632 C   0  0  0  0  0  0  0  0  0  0  0  0
  -27.5849    2.4311   30.8545 C   0  0  0  0  0  0  0  0  0  0  0  0
  -28.5798    2.1255   31.7371 C   0  0  0  0  0  0  0  0  0  0  0  0
  -29.1845    0.8993   31.5457 C   0  0  0  0  0  0  0  0  0  0  0  0
  -28.7992    0.0826   30.5354 C   0  0  0  0  0  0  0  0  0  0  0  0
  -26.6334    0.0159   26.4500 C   0  0  0  0  0  0  0  0  0  0  0  0
  -23.5921    1.3727   27.5454 C   0  0  0  0  0  0  0  0  0  0  0  0
  -22.3292    1.8153   27.3566 C   0  0  0  0  0  0  0  0  0  0  0  0
  -24.6305    2.2072   26.9830 C   0  0  0  0  0  0  0  0  0  0  0  0
  -24.3905    3.5152   26.5357 C   0  0  0  0  0  0  0  0  0  0  0  0
  -25.4287    4.3973   26.3126 C   0  0  0  0  0  0  0  0  0  0  0  0
  -26.7342    3.8385   26.4465 C   0  0  0  0  0  0  0  0  0  0  0  0
  -27.8032    4.6957   26.3322 C   0  0  0  0  0  0  0  0  0  0  0  0
  -27.6054    6.0746   26.4366 C   0  0  0  0  0  0  0  0  0  0  0  0
  -26.3399    6.6462   26.5209 C   0  0  0  0  0  0  0  0  0  0  0  0
  -25.2405    5.8273   26.5246 C   0  0  0  0  0  0  0  0  0  0  0  0
  -29.1670    4.1967   26.2580 C   0  0  0  0  0  0  0  0  0  0  0  0
  -29.4255    3.4339   25.4905 O   0  0  0  0  0  0  0  0  0  0  0  0
  -29.9089    4.2480   27.3926 O   0  0  0  0  0  0  0  0  0  0  0  0
  -27.0111    3.9147   31.0148 C   0  0  0  0  0  0  0  0  0  0  0  0
  -26.0887    4.2399   30.3556 O   0  0  0  0  0  0  0  0  0  0  0  0
  -27.2294    4.5871   32.1718 N   0  0  0  0  0  0  0  0  0  0  0  0
  -26.6014    5.8905   32.4363 C   0  0  0  0  0  0  0  0  0  0  0  0
  -25.9422    6.4559   31.5272 C   0  0  0  0  0  0  0  0  0  0  0  0
  1  2  2  0
  2  3  1  0
  2  4  1  0
  3  5  1  0
  5  6  1  0
  6  7  2  0
  5  8  1  0
  7  9  1  0
  8  9  2  0
  4 10  1  0
 11 12  1  0
  4 14  1  0
 13 14  1  0
  3 15  1  0
  8 16  1  0
 16 17  2  0
 16 18  1  0
 18 19  2  3
 19 20  1  0
 22 26  1  0
 26 27  2  0
 26 28  1  0
 11 29  1  0
 29 30  2  0
 29 31  1  0
 31 32  1  0
 32 33  1  0
 10 11  1  0
 12 13  1  0
 20 21  2  0
 21 22  1  0
 22 23  2  0
 23 24  1  0
 24 25  2  0
 25 20  1  0
M  END

$$$$
