No_4710-gen_results/8p0m/2024-11-26-14-13-15/
     RDKit          3D

 14 14  0  0  0  0  0  0  0  0999 V2000
  -28.0162   -0.8135   28.8779 C   0  0  0  0  0  0  0  0  0  0  0  0
  -28.4690   -0.7850   29.8287 C   0  0  0  0  0  0  0  0  0  0  0  0
  -28.1960    0.3478   28.0550 C   0  0  0  0  0  0  0  0  0  0  0  0
  -29.0191    1.3501   28.3782 C   0  0  0  0  0  0  0  0  0  0  0  0
  -29.4107    0.1803   30.3782 C   0  0  0  0  0  0  0  0  0  0  0  0
  -29.6059    1.2495   29.6193 C   0  0  0  0  0  0  0  0  0  0  0  0
  -27.4597    0.3802   26.7091 C   0  0  0  0  0  0  0  0  0  0  0  0
  -28.1604    0.0466   25.8046 F   0  0  0  0  0  0  0  0  0  0  0  0
  -26.9244    1.6642   26.4653 F   0  0  0  0  0  0  0  0  0  0  0  0
  -26.2459   -0.3364   26.7691 F   0  0  0  0  0  0  0  0  0  0  0  0
  -30.6796    2.4908   30.0949 Cl  0  0  0  0  0  0  0  0  0  0  0  0
  -28.2794   -2.0662   30.8625 C   0  0  0  0  0  0  0  0  0  0  0  0
  -28.0215   -1.9795   31.9073 O   0  0  0  0  0  0  0  0  0  0  0  0
  -28.1065   -3.2597   30.2027 O   0  0  0  0  0  0  0  0  0  0  0  0
  3  7  1  0
  7  8  1  0
  7  9  1  0
  7 10  1  0
  6 11  1  0
  2 12  1  0
 12 13  1  0
 12 14  2  0
  1  2  2  0
  2  5  1  0
  5  6  2  0
  6  4  1  0
  4  3  2  0
  3  1  1  0
M  END

$$$$
