No_44-gen_results/8p0m/2024-11-26-14-13-15/
     RDKit          3D

 33 36  0  0  0  0  0  0  0  0999 V2000
  -28.0162   -0.8135   28.8779 C   0  0  0  0  0  0  0  0  0  0  0  0
  -27.0636   -0.1189   28.6079 C   0  0  0  0  0  0  0  0  0  0  0  0
  -26.8756    1.1325   28.9134 C   0  0  0  0  0  0  0  0  0  0  0  0
  -27.9014    1.8066   29.6436 C   0  0  0  0  0  0  0  0  0  0  0  0
  -29.0458   -0.2316   29.7181 C   0  0  0  0  0  0  0  0  0  0  0  0
  -28.9402    1.0517   30.0597 C   0  0  0  0  0  0  0  0  0  0  0  0
  -25.8732   -0.7125   27.8045 C   0  0  0  0  0  0  0  0  0  0  0  0
  -24.7599   -1.1987   28.6570 C   0  0  0  0  0  0  0  0  0  0  0  0
  -24.2774   -0.5180   29.6587 C   0  0  0  0  0  0  0  0  0  0  0  0
  -23.3485   -0.1468   30.0338 C   0  0  0  0  0  0  0  0  0  0  0  0
  -23.0216    0.6279   31.2390 C   0  0  0  0  0  0  0  0  0  0  0  0
  -24.1905    0.9760   32.0070 C   0  0  0  0  0  0  0  0  0  0  0  0
  -25.4237    0.6507   31.5978 C   0  0  0  0  0  0  0  0  0  0  0  0
  -25.5750   -0.0579   30.5290 C   0  0  0  0  0  0  0  0  0  0  0  0
  -26.4490   -1.2625   30.7669 C   0  0  0  0  0  0  0  0  0  0  0  0
  -30.1512   -1.1374   30.1945 C   0  0  0  0  0  0  0  0  0  0  0  0
  -29.8273   -2.0302   30.8550 O   0  0  0  0  0  0  0  0  0  0  0  0
  -31.2915   -1.0162   29.6020 O   0  0  0  0  0  0  0  0  0  0  0  0
  -22.0177   -0.3576   29.2101 C   0  0  0  0  0  0  0  0  0  0  0  0
  -26.5326    1.0315   32.5262 C   0  0  0  0  0  0  0  0  0  0  0  0
  -26.2802    1.1523   33.8928 C   0  0  0  0  0  0  0  0  0  0  0  0
  -25.7276   -2.1889   31.7930 C   0  0  0  0  0  0  0  0  0  0  0  0
  -27.0785    2.1085   34.5473 C   0  0  0  0  0  0  0  0  0  0  0  0
  -27.9004    2.7930   33.8497 C   0  0  0  0  0  0  0  0  0  0  0  0
  -28.7901    3.6777   34.6059 C   0  0  0  0  0  0  0  0  0  0  0  0
  -29.7764    4.4699   33.8890 C   0  0  0  0  0  0  0  0  0  0  0  0
  -29.8421    4.2387   32.5156 C   0  0  0  0  0  0  0  0  0  0  0  0
  -29.0148    3.4330   31.8479 C   0  0  0  0  0  0  0  0  0  0  0  0
  -28.0369    2.7050   32.5529 C   0  0  0  0  0  0  0  0  0  0  0  0
  -27.5210    1.5845   31.9505 O   0  0  0  0  0  0  0  0  0  0  0  0
  -28.5443    2.9165   28.6334 C   0  0  0  0  0  0  0  0  0  0  0  0
  -29.6956    2.8540   28.0254 C   0  0  0  0  0  0  0  0  0  0  0  0
  -30.1072    3.8190   27.1787 C   0  0  0  0  0  0  0  0  0  0  0  0
  1  2  2  0
  2  3  1  0
  3  4  2  0
  1  5  1  0
  4  6  1  0
  5  6  2  0
  2  7  1  0
  7  8  1  0
  8  9  1  0
  9 10  1  0
 10 11  2  0
 11 12  1  0
 12 13  2  0
  9 14  1  0
 13 14  1  0
 14 15  1  0
  5 16  1  0
 16 17  2  0
 16 18  1  0
 10 19  1  0
 13 20  1  0
 20 21  1  0
 15 22  1  0
 21 23  1  0
 23 24  2  0
 24 25  1  0
 25 26  2  0
 26 27  1  0
 27 28  2  0
 24 29  1  0
 28 29  1  0
 20 30  1  0
 29 30  1  0
  4 31  1  0
 31 32  2  3
 32 33  1  0
M  END

$$$$
