No_4548-gen_results/8p0m/2024-11-26-14-13-15/
     RDKit          3D

 13 14  0  0  0  0  0  0  0  0999 V2000
  -28.0162   -0.8135   28.8779 C   0  0  0  0  0  0  0  0  0  0  0  0
  -28.4690   -0.7850   29.8287 C   0  0  0  0  0  0  0  0  0  0  0  0
  -26.5042   -0.7777   28.8766 C   0  0  0  0  0  0  0  0  0  0  0  0
  -25.8103   -0.8531   30.1028 C   0  0  0  0  0  0  0  0  0  0  0  0
  -27.9906   -0.8916   31.2257 C   0  0  0  0  0  0  0  0  0  0  0  0
  -26.6042   -0.8676   31.2652 C   0  0  0  0  0  0  0  0  0  0  0  0
  -30.0739   -0.8360   29.8615 C   0  0  0  0  0  0  0  0  0  0  0  0
  -30.7602    0.2411   30.4035 C   0  0  0  0  0  0  0  0  0  0  0  0
  -32.1439    0.2456   30.3542 C   0  0  0  0  0  0  0  0  0  0  0  0
  -32.7758   -0.8510   29.7208 C   0  0  0  0  0  0  0  0  0  0  0  0
  -32.0839   -1.8817   29.1877 C   0  0  0  0  0  0  0  0  0  0  0  0
  -30.7139   -1.9001   29.2890 C   0  0  0  0  0  0  0  0  0  0  0  0
  -32.8255   -3.2092   28.4547 Cl  0  0  0  0  0  0  0  0  0  0  0  0
  2  7  1  0
 11 13  1  0
  1  2  2  0
  2  5  1  0
  5  6  2  0
  6  4  1  0
  4  3  2  0
  3  1  1  0
  7  8  2  0
  8  9  1  0
  9 10  2  0
 10 11  1  0
 11 12  2  0
 12  7  1  0
M  END

$$$$
