No_4986-gen_results/8p0m/2024-11-26-14-13-15/
     RDKit          3D

  7  6  0  0  0  0  0  0  0  0999 V2000
  -28.0162   -0.8135   28.8779 C   0  0  0  0  0  0  0  0  0  0  0  0
  -27.0636   -0.1189   28.6079 C   0  0  0  0  0  0  0  0  0  0  0  0
  -25.7923   -0.4302   29.0761 C   0  0  0  0  0  0  0  0  0  0  0  0
  -24.5523    0.3182   28.8150 C   0  0  0  0  0  0  0  0  0  0  0  0
  -23.2607    0.0039   29.3333 C   0  0  0  0  0  0  0  0  0  0  0  0
  -27.8839   -1.8963   29.8940 C   0  0  0  0  0  0  0  0  0  0  0  0
  -26.6545   -2.3147   30.3371 C   0  0  0  0  0  0  0  0  0  0  0  0
  1  2  1  0
  2  3  3  0
  3  4  1  0
  4  5  2  0
  1  6  1  0
  6  7  1  0
M  END

$$$$
