No_403-gen_results/8p0m/2024-11-26-14-13-15/
     RDKit          3D

 35 37  0  0  0  0  0  0  0  0999 V2000
  -28.0162   -0.8135   28.8779 C   0  0  0  0  0  0  0  0  0  0  0  0
  -28.4690   -0.7850   29.8287 C   0  0  0  0  0  0  0  0  0  0  0  0
  -27.1356    0.2359   28.5352 C   0  0  0  0  0  0  0  0  0  0  0  0
  -26.8745    1.2825   29.3982 C   0  0  0  0  0  0  0  0  0  0  0  0
  -27.5070    1.2380   30.6295 C   0  0  0  0  0  0  0  0  0  0  0  0
  -29.4093   -1.9436   30.2887 C   0  0  0  0  0  0  0  0  0  0  0  0
  -28.3221    0.1318   30.9672 C   0  0  0  0  0  0  0  0  0  0  0  0
  -29.1121   -3.1910   30.4283 N   0  0  0  0  0  0  0  0  0  0  0  0
  -30.1857   -1.6341   31.6041 C   0  0  0  0  0  0  0  0  0  0  0  0
  -26.2014    0.2799   26.8583 Br  0  0  0  0  0  0  0  0  0  0  0  0
  -29.7894   -4.3382   30.6287 C   0  0  0  0  0  0  0  0  0  0  0  0
  -27.6212   -3.5917   30.2200 C   0  0  0  0  0  0  0  0  0  0  0  0
  -29.7518   -5.0174   31.6932 C   0  0  0  0  0  0  0  0  0  0  0  0
  -30.7048   -4.6953   29.6078 C   0  0  0  0  0  0  0  0  0  0  0  0
  -30.4712   -6.1796   31.8993 C   0  0  0  0  0  0  0  0  0  0  0  0
  -31.4144   -5.8954   29.6581 C   0  0  0  0  0  0  0  0  0  0  0  0
  -31.2985   -6.6513   30.8363 C   0  0  0  0  0  0  0  0  0  0  0  0
  -31.3208   -0.8086   31.4040 C   0  0  0  0  0  0  0  0  0  0  0  0
  -32.0887   -0.4841   32.5330 C   0  0  0  0  0  0  0  0  0  0  0  0
  -33.1601    0.3790   32.4067 C   0  0  0  0  0  0  0  0  0  0  0  0
  -31.6513   -0.2601   30.1990 C   0  0  0  0  0  0  0  0  0  0  0  0
  -32.7350    0.6295   30.0291 C   0  0  0  0  0  0  0  0  0  0  0  0
  -33.4948    0.9379   31.1543 C   0  0  0  0  0  0  0  0  0  0  0  0
  -34.5230    1.8216   30.9966 O   0  0  0  0  0  0  0  0  0  0  0  0
  -26.6522   -2.5452   30.1869 C   0  0  0  0  0  0  0  0  0  0  0  0
  -25.2129   -3.1224   30.0039 C   0  0  0  0  0  0  0  0  0  0  0  0
  -24.5910   -2.7149   28.7703 C   0  0  0  0  0  0  0  0  0  0  0  0
  -27.3397   -4.7466   30.0786 O   0  0  0  0  0  0  0  0  0  0  0  0
  -27.2369    2.3290   31.6453 C   0  0  0  0  0  0  0  0  0  0  0  0
  -26.9779    2.2655   32.6605 O   0  0  0  0  0  0  0  0  0  0  0  0
  -27.4628    3.5624   31.0199 O   0  0  0  0  0  0  0  0  0  0  0  0
  -23.7656   -1.4086   28.9651 C   0  0  0  0  0  0  0  0  0  0  0  0
  -23.5654   -0.4243   28.4132 C   0  0  0  0  0  0  0  0  0  0  0  0
  -22.5846    0.5971   28.7699 C   0  0  0  0  0  0  0  0  0  0  0  0
  -21.7870    0.1692   29.8022 C   0  0  0  0  0  0  0  0  0  0  0  0
  2  6  1  0
  6  8  1  0
  6  9  1  0
  3 10  1  0
  8 11  1  0
  8 12  1  0
 23 24  1  0
 12 25  1  0
 25 26  2  3
 26 27  1  0
 12 28  2  0
  5 29  1  0
 29 30  2  0
 29 31  1  0
 27 32  1  0
 32 33  2  3
 33 34  1  0
 34 35  2  0
  9 18  1  0
  1  2  2  0
  2  7  1  0
  7  5  2  0
  5  4  1  0
  4  3  2  0
  3  1  1  0
 18 19  2  0
 19 20  1  0
 20 23  2  0
 23 22  1  0
 22 21  2  0
 21 18  1  0
 11 13  2  0
 13 15  1  0
 15 17  2  0
 17 16  1  0
 16 14  2  0
 14 11  1  0
M  END

$$$$
