No_4086-gen_results/8p0m/2024-11-26-14-13-15/
     RDKit          3D

 31 33  0  0  0  0  0  0  0  0999 V2000
  -28.0162   -0.8135   28.8779 C   0  0  0  0  0  0  0  0  0  0  0  0
  -28.4690   -0.7850   29.8287 C   0  0  0  0  0  0  0  0  0  0  0  0
  -26.5042   -0.7777   28.8766 C   0  0  0  0  0  0  0  0  0  0  0  0
  -25.8305   -1.6807   29.6849 C   0  0  0  0  0  0  0  0  0  0  0  0
  -28.1490   -1.8854   30.9031 C   0  0  0  0  0  0  0  0  0  0  0  0
  -26.6460   -1.9561   31.0330 C   0  0  0  0  0  0  0  0  0  0  0  0
  -28.6274   -1.7308   32.1858 O   0  0  0  0  0  0  0  0  0  0  0  0
  -30.0168   -0.9269   29.8771 O   0  0  0  0  0  0  0  0  0  0  0  0
  -24.6534   -2.3030   29.3807 C   0  0  0  0  0  0  0  0  0  0  0  0
  -23.3568   -1.8979   29.8520 C   0  0  0  0  0  0  0  0  0  0  0  0
  -24.6504   -3.6906   28.8594 C   0  0  0  0  0  0  0  0  0  0  0  0
  -28.5202   -0.2308   27.6935 O   0  0  0  0  0  0  0  0  0  0  0  0
  -23.0770   -0.4457   29.6608 C   0  0  0  0  0  0  0  0  0  0  0  0
  -23.6283    0.4500   30.4557 C   0  0  0  0  0  0  0  0  0  0  0  0
  -22.1523   -0.0170   28.5980 C   0  0  0  0  0  0  0  0  0  0  0  0
  -22.0046    1.2974   28.2143 C   0  0  0  0  0  0  0  0  0  0  0  0
  -23.4476    1.9066   30.1722 C   0  0  0  0  0  0  0  0  0  0  0  0
  -22.5736    2.3257   29.0462 C   0  0  0  0  0  0  0  0  0  0  0  0
  -29.1670    0.8842   27.6257 C   0  0  0  0  0  0  0  0  0  0  0  0
  -29.6879    1.0522   26.5373 C   0  0  0  0  0  0  0  0  0  0  0  0
  -30.5759    0.8446   26.0922 C   0  0  0  0  0  0  0  0  0  0  0  0
  -28.5099    1.5476   25.5738 C   0  0  0  0  0  0  0  0  0  0  0  0
  -27.2252    1.8893   26.0257 C   0  0  0  0  0  0  0  0  0  0  0  0
  -31.7331    0.3843   26.9163 C   0  0  0  0  0  0  0  0  0  0  0  0
  -31.9519    1.0382   28.4643 Br  0  0  0  0  0  0  0  0  0  0  0  0
  -26.1692    1.0985   25.6261 C   0  0  0  0  0  0  0  0  0  0  0  0
  -24.8143    1.4748   26.1374 C   0  0  0  0  0  0  0  0  0  0  0  0
  -24.6206    2.6307   26.8463 C   0  0  0  0  0  0  0  0  0  0  0  0
  -25.8078    3.4692   27.1385 C   0  0  0  0  0  0  0  0  0  0  0  0
  -27.0443    3.0397   26.7171 C   0  0  0  0  0  0  0  0  0  0  0  0
  -28.8196    1.6892   24.1839 C   0  0  0  0  0  0  0  0  0  0  0  0
  1  2  1  0
  1  3  1  0
  3  4  1  0
  2  5  1  0
  4  6  1  0
  5  6  1  0
  5  7  1  0
  2  8  1  0
  4  9  1  0
  9 10  1  0
  9 11  1  0
  1 12  1  0
 10 13  1  0
 12 19  1  0
 19 20  1  0
 20 21  2  3
 20 22  1  0
 22 23  1  0
 21 24  1  0
 24 25  1  0
 22 31  1  0
 23 26  2  0
 26 27  1  0
 27 28  2  0
 28 29  1  0
 29 30  2  0
 30 23  1  0
 13 14  2  0
 14 17  1  0
 17 18  2  0
 18 16  1  0
 16 15  2  0
 15 13  1  0
M  END

$$$$
