No_4171-gen_results/8p0m/2024-11-26-14-13-15/
     RDKit          3D

 19 20  0  0  0  0  0  0  0  0999 V2000
  -28.0162   -0.8135   28.8779 C   0  0  0  0  0  0  0  0  0  0  0  0
  -28.4690   -0.7850   29.8287 C   0  0  0  0  0  0  0  0  0  0  0  0
  -28.1816    0.4277   28.1134 C   0  0  0  0  0  0  0  0  0  0  0  0
  -28.9841    1.4155   28.5154 C   0  0  0  0  0  0  0  0  0  0  0  0
  -29.3802    0.1384   30.4612 C   0  0  0  0  0  0  0  0  0  0  0  0
  -29.5415    1.2736   29.7242 C   0  0  0  0  0  0  0  0  0  0  0  0
  -27.4586    0.4934   26.7701 C   0  0  0  0  0  0  0  0  0  0  0  0
  -26.0264    0.3840   26.7617 C   0  0  0  0  0  0  0  0  0  0  0  0
  -25.2257    1.3507   27.3721 C   0  0  0  0  0  0  0  0  0  0  0  0
  -24.3523    1.2062   28.1853 C   0  0  0  0  0  0  0  0  0  0  0  0
  -23.3438    2.2142   28.5217 C   0  0  0  0  0  0  0  0  0  0  0  0
  -22.3243    1.8557   29.1838 N   0  0  0  0  0  0  0  0  0  0  0  0
  -24.0567   -0.0557   28.9607 C   0  0  0  0  0  0  0  0  0  0  0  0
  -22.9110   -0.2271   29.7425 C   0  0  0  0  0  0  0  0  0  0  0  0
  -21.9977    0.8305   29.8909 C   0  0  0  0  0  0  0  0  0  0  0  0
  -25.4738    2.6997   26.8012 C   0  0  0  0  0  0  0  0  0  0  0  0
  -28.2070    0.6637   25.6105 C   0  0  0  0  0  0  0  0  0  0  0  0
  -28.0459   -0.0939   24.6644 N   0  0  0  0  0  0  0  0  0  0  0  0
  -29.1374    1.5254   25.5681 F   0  0  0  0  0  0  0  0  0  0  0  0
  3  7  1  0
  7  8  1  0
  8  9  1  0
  9 16  1  0
  7 17  1  0
 17 18  1  0
 17 19  1  0
  9 10  1  0
  1  2  2  0
  2  5  1  0
  5  6  2  0
  6  4  1  0
  4  3  2  0
  3  1  1  0
 10 11  2  0
 11 12  1  0
 12 15  2  0
 15 14  1  0
 14 13  2  0
 13 10  1  0
M  END

$$$$
