No_4302-gen_results/8p0m/2024-11-26-14-13-15/
     RDKit          3D

 20 22  0  0  0  0  0  0  0  0999 V2000
  -28.0162   -0.8135   28.8779 C   0  0  0  0  0  0  0  0  0  0  0  0
  -28.4690   -0.7850   29.8287 C   0  0  0  0  0  0  0  0  0  0  0  0
  -26.5042   -0.7777   28.8766 C   0  0  0  0  0  0  0  0  0  0  0  0
  -25.6540   -0.6597   27.7191 C   0  0  0  0  0  0  0  0  0  0  0  0
  -27.9180   -0.9374   31.1824 C   0  0  0  0  0  0  0  0  0  0  0  0
  -26.5423   -0.9399   31.2606 C   0  0  0  0  0  0  0  0  0  0  0  0
  -25.7832   -0.8935   30.1201 C   0  0  0  0  0  0  0  0  0  0  0  0
  -24.3179   -0.2373   27.8436 C   0  0  0  0  0  0  0  0  0  0  0  0
  -23.6632   -0.4277   29.0855 C   0  0  0  0  0  0  0  0  0  0  0  0
  -24.3624   -0.6461   30.1936 C   0  0  0  0  0  0  0  0  0  0  0  0
  -22.1965   -0.1594   29.1257 C   0  0  0  0  0  0  0  0  0  0  0  0
  -21.2459    0.3685   28.7359 N   0  0  0  0  0  0  0  0  0  0  0  0
  -29.9111   -0.8649   29.8495 O   0  0  0  0  0  0  0  0  0  0  0  0
  -30.5986    0.2557   30.2022 C   0  0  0  0  0  0  0  0  0  0  0  0
  -30.4679    0.9687   30.9676 C   0  0  0  0  0  0  0  0  0  0  0  0
  -30.8619    2.0935   31.4202 C   0  0  0  0  0  0  0  0  0  0  0  0
  -30.6317    2.9487   31.9707 C   0  0  0  0  0  0  0  0  0  0  0  0
  -29.4030    2.8866   32.8456 C   0  0  0  0  0  0  0  0  0  0  0  0
  -28.6794    1.7330   32.6460 C   0  0  0  0  0  0  0  0  0  0  0  0
  -29.0890    0.8306   31.7561 C   0  0  0  0  0  0  0  0  0  0  0  0
  9 11  1  0
 11 12  3  0
  2 13  1  0
 13 14  1  0
 14 15  1  0
 15 16  2  0
 16 17  1  0
 17 18  2  0
 18 19  1  0
 19 20  2  0
 20 15  1  0
  1  2  2  0
  2  5  1  0
  5  6  2  0
  6  7  1  0
  3  1  1  0
  3  4  2  0
  4  8  1  0
  8  9  2  0
  9 10  1  0
 10  7  2  0
  7  3  1  0
M  END

$$$$
