No_4438-gen_results/8p0m/2024-11-26-14-13-15/
     RDKit          3D

 17 18  0  0  0  0  0  0  0  0999 V2000
  -28.0162   -0.8135   28.8779 C   0  0  0  0  0  0  0  0  0  0  0  0
  -28.4690   -0.7850   29.8287 C   0  0  0  0  0  0  0  0  0  0  0  0
  -27.0871    0.2903   28.6377 C   0  0  0  0  0  0  0  0  0  0  0  0
  -26.7676    1.0274   29.4716 C   0  0  0  0  0  0  0  0  0  0  0  0
  -28.2764    0.0268   31.0145 C   0  0  0  0  0  0  0  0  0  0  0  0
  -27.3287    1.0538   30.7535 C   0  0  0  0  0  0  0  0  0  0  0  0
  -26.4387    0.4214   27.4276 F   0  0  0  0  0  0  0  0  0  0  0  0
  -29.5072   -1.9673   30.2528 C   0  0  0  0  0  0  0  0  0  0  0  0
  -29.2565   -3.2017   30.3280 N   0  0  0  0  0  0  0  0  0  0  0  0
  -30.8653   -1.7939   29.5350 C   0  0  0  0  0  0  0  0  0  0  0  0
  -27.9898   -3.5717   30.8579 C   0  0  0  0  0  0  0  0  0  0  0  0
  -30.1117   -4.2502   30.1492 C   0  0  0  0  0  0  0  0  0  0  0  0
  -30.9717   -4.5460   31.0804 C   0  0  0  0  0  0  0  0  0  0  0  0
  -31.8268   -5.5688   30.9538 C   0  0  0  0  0  0  0  0  0  0  0  0
  -31.9281   -6.1012   30.0982 C   0  0  0  0  0  0  0  0  0  0  0  0
  -31.0964   -5.9343   28.8512 C   0  0  0  0  0  0  0  0  0  0  0  0
  -30.1528   -4.9516   28.9888 C   0  0  0  0  0  0  0  0  0  0  0  0
  3  7  1  0
  2  8  1  0
  8  9  1  0
  8 10  1  0
  9 11  1  0
  9 12  1  0
 12 13  2  0
 13 14  1  0
 14 15  2  0
 15 16  1  0
 16 17  2  0
 17 12  1  0
  1  2  2  0
  2  5  1  0
  5  6  2  0
  6  4  1  0
  4  3  2  0
  3  1  1  0
M  END

$$$$
