No_4638-gen_results/8p0m/2024-11-26-14-13-15/
     RDKit          3D

 21 23  0  0  0  0  0  0  0  0999 V2000
  -28.0162   -0.8135   28.8779 C   0  0  0  0  0  0  0  0  0  0  0  0
  -28.4690   -0.7850   29.8287 C   0  0  0  0  0  0  0  0  0  0  0  0
  -26.5042   -0.7777   28.8766 C   0  0  0  0  0  0  0  0  0  0  0  0
  -25.8103   -0.8531   30.1028 C   0  0  0  0  0  0  0  0  0  0  0  0
  -27.9906   -0.8916   31.2257 C   0  0  0  0  0  0  0  0  0  0  0  0
  -26.6042   -0.8676   31.2652 C   0  0  0  0  0  0  0  0  0  0  0  0
  -30.0739   -0.8360   29.8615 C   0  0  0  0  0  0  0  0  0  0  0  0
  -30.6891   -1.6554   30.2229 O   0  0  0  0  0  0  0  0  0  0  0  0
  -30.6022    0.4333   29.5984 N   0  0  0  0  0  0  0  0  0  0  0  0
  -32.0098    0.5508   29.4757 C   0  0  0  0  0  0  0  0  0  0  0  0
  -32.3458    1.5388   28.7508 C   0  0  0  0  0  0  0  0  0  0  0  0
  -31.4426    2.5780   28.2707 C   0  0  0  0  0  0  0  0  0  0  0  0
  -30.0496    2.3198   28.4141 C   0  0  0  0  0  0  0  0  0  0  0  0
  -29.6438    1.2549   28.9641 C   0  0  0  0  0  0  0  0  0  0  0  0
  -25.6593   -0.6799   27.6651 C   0  0  0  0  0  0  0  0  0  0  0  0
  -25.8785    0.3579   26.7255 C   0  0  0  0  0  0  0  0  0  0  0  0
  -25.5380    1.3730   26.6713 C   0  0  0  0  0  0  0  0  0  0  0  0
  -25.7283    2.3149   25.5272 C   0  0  0  0  0  0  0  0  0  0  0  0
  -26.7213    1.8650   24.6681 C   0  0  0  0  0  0  0  0  0  0  0  0
  -26.9003    0.1550   25.5828 C   0  0  0  0  0  0  0  0  0  0  0  0
  -29.1661    3.3801   27.7893 C   0  0  0  0  0  0  0  0  0  0  0  0
  2  7  1  0
  7  8  2  0
  7  9  1  0
  9 10  1  0
 11 12  1  0
  9 14  1  0
 13 14  1  0
  3 15  1  0
 15 16  1  0
 16 17  2  0
 17 18  1  0
 18 19  2  0
 16 20  1  0
 19 20  1  0
 13 21  1  0
 10 11  1  0
 12 13  1  0
  1  2  2  0
  2  5  1  0
  5  6  2  0
  6  4  1  0
  4  3  2  0
  3  1  1  0
M  END

$$$$
