No_497-gen_results/8p0m/2024-11-26-14-13-15/
     RDKit          3D

 10 10  0  0  0  0  0  0  0  0999 V2000
  -28.1229   -1.3353   28.4874 O   0  0  0  0  0  0  0  0  0  0  0  0
  -27.4806   -0.4044   28.7094 C   0  0  0  0  0  0  0  0  0  0  0  0
  -27.1904    0.2460   29.5268 C   0  0  0  0  0  0  0  0  0  0  0  0
  -26.6021   -0.1576   27.5515 N   0  0  0  0  0  0  0  0  0  0  0  0
  -25.6421    0.9031   27.5822 C   0  0  0  0  0  0  0  0  0  0  0  0
  -25.5004    1.6142   28.7368 C   0  0  0  0  0  0  0  0  0  0  0  0
  -26.2553    1.3158   29.8133 C   0  0  0  0  0  0  0  0  0  0  0  0
  -24.7065    1.2076   26.2125 Cl  0  0  0  0  0  0  0  0  0  0  0  0
  -28.0731   -0.2140   30.8229 C   0  0  0  0  0  0  0  0  0  0  0  0
  -29.1833   -0.7725   30.6189 C   0  0  0  0  0  0  0  0  0  0  0  0
  1  2  2  0
  2  3  1  0
  2  4  1  0
  4  5  1  0
  5  6  1  0
  6  7  1  0
  5  8  1  0
  3  9  1  0
  9 10  1  0
  3  7  1  0
M  END

$$$$
