No_4103-gen_results/8p0m/2024-11-26-14-13-15/
     RDKit          3D

 34 38  0  0  0  0  0  0  0  0999 V2000
  -28.0162   -0.8135   28.8779 C   0  0  0  0  0  0  0  0  0  0  0  0
  -28.4690   -0.7850   29.8287 C   0  0  0  0  0  0  0  0  0  0  0  0
  -26.5042   -0.7777   28.8766 C   0  0  0  0  0  0  0  0  0  0  0  0
  -25.6540   -0.6597   27.7191 C   0  0  0  0  0  0  0  0  0  0  0  0
  -27.9180   -0.9374   31.1824 C   0  0  0  0  0  0  0  0  0  0  0  0
  -26.5423   -0.9399   31.2606 C   0  0  0  0  0  0  0  0  0  0  0  0
  -25.7832   -0.8935   30.1201 C   0  0  0  0  0  0  0  0  0  0  0  0
  -25.8989    0.3149   26.7473 C   0  0  0  0  0  0  0  0  0  0  0  0
  -26.7729    0.4751   26.2575 C   0  0  0  0  0  0  0  0  0  0  0  0
  -26.9520    1.5350   25.1864 C   0  0  0  0  0  0  0  0  0  0  0  0
  -28.1917    1.8421   24.6418 C   0  0  0  0  0  0  0  0  0  0  0  0
  -29.3074    1.0611   24.9673 C   0  0  0  0  0  0  0  0  0  0  0  0
  -29.1680    0.0720   25.8833 C   0  0  0  0  0  0  0  0  0  0  0  0
  -27.9870   -0.2209   26.5029 C   0  0  0  0  0  0  0  0  0  0  0  0
  -28.5637   -0.3099   27.6383 C   0  0  0  0  0  0  0  0  0  0  0  0
  -24.3651   -1.0096   30.2020 C   0  0  0  0  0  0  0  0  0  0  0  0
  -23.7712   -1.2244   31.1386 C   0  0  0  0  0  0  0  0  0  0  0  0
  -24.4295   -1.0006   32.4656 C   0  0  0  0  0  0  0  0  0  0  0  0
  -25.8398   -0.9702   32.4778 C   0  0  0  0  0  0  0  0  0  0  0  0
  -28.7191   -1.0774   32.4391 C   0  0  0  0  0  0  0  0  0  0  0  0
  -29.3261    0.0869   32.9066 C   0  0  0  0  0  0  0  0  0  0  0  0
  -29.5103    1.1191   32.2705 C   0  0  0  0  0  0  0  0  0  0  0  0
  -30.0058    1.4565   31.3287 C   0  0  0  0  0  0  0  0  0  0  0  0
  -30.0997    2.7992   30.7271 C   0  0  0  0  0  0  0  0  0  0  0  0
  -29.4000    3.7812   31.3439 C   0  0  0  0  0  0  0  0  0  0  0  0
  -28.7400    3.5444   32.5339 C   0  0  0  0  0  0  0  0  0  0  0  0
  -28.7325    2.3205   33.0479 C   0  0  0  0  0  0  0  0  0  0  0  0
  -29.8917   -0.1450   34.3052 C   0  0  0  0  0  0  0  0  0  0  0  0
  -29.1493   -2.2526   32.6566 O   0  0  0  0  0  0  0  0  0  0  0  0
  -30.5508   -0.2567   26.1208 O   0  0  0  0  0  0  0  0  0  0  0  0
  -30.9056   -1.2694   25.2964 C   0  0  0  0  0  0  0  0  0  0  0  0
  -32.0234   -2.0282   25.8742 C   0  0  0  0  0  0  0  0  0  0  0  0
  -32.2641   -3.0719   25.3675 O   0  0  0  0  0  0  0  0  0  0  0  0
  -32.3564   -2.0029   27.0619 O   0  0  0  0  0  0  0  0  0  0  0  0
  3  4  1  0
  4  8  1  0
  1 15  1  0
 14 15  1  0
  5 20  1  0
 20 21  1  0
 21 22  1  0
 21 28  1  0
 20 29  2  0
 13 30  1  0
 30 31  1  0
 31 32  1  0
 32 33  2  0
 32 34  1  0
  8  9  1  0
  9 10  2  0
 10 11  1  0
 11 12  2  0
 12 13  1  0
 13 14  2  0
 14  9  1  0
 22 23  2  0
 23 24  1  0
 24 25  2  0
 25 26  1  0
 26 27  2  0
 27 22  1  0
  7 16  1  0
 16 17  2  0
 17 18  1  0
 18 19  2  0
 19  6  1  0
  1  2  2  0
  2  5  1  0
  5  6  2  0
  6  7  1  0
  7  3  2  0
  3  1  1  0
M  END

$$$$
