No_4727-gen_results/8p0m/2024-11-26-14-13-15/
     RDKit          3D

 16 16  0  0  0  0  0  0  0  0999 V2000
  -28.0162   -0.8135   28.8779 C   0  0  0  0  0  0  0  0  0  0  0  0
  -27.0636   -0.1190   28.6079 C   0  0  0  0  0  0  0  0  0  0  0  0
  -26.9287    1.1713   29.0083 C   0  0  0  0  0  0  0  0  0  0  0  0
  -27.9560    1.7411   29.7840 C   0  0  0  0  0  0  0  0  0  0  0  0
  -29.0569   -0.3271   29.7466 C   0  0  0  0  0  0  0  0  0  0  0  0
  -28.9828    0.9722   30.1516 C   0  0  0  0  0  0  0  0  0  0  0  0
  -25.8907   -0.6263   27.7857 C   0  0  0  0  0  0  0  0  0  0  0  0
  -25.4633    0.1123   26.6815 C   0  0  0  0  0  0  0  0  0  0  0  0
  -25.0310   -1.6701   28.2406 C   0  0  0  0  0  0  0  0  0  0  0  0
  -24.3963   -1.7192   29.4773 C   0  0  0  0  0  0  0  0  0  0  0  0
  -24.0579   -0.5328   30.1981 C   0  0  0  0  0  0  0  0  0  0  0  0
  -22.9057    0.1493   29.8624 C   0  0  0  0  0  0  0  0  0  0  0  0
  -24.9529   -0.1730   31.2808 C   0  0  0  0  0  0  0  0  0  0  0  0
  -24.7973    1.0695   31.9061 C   0  0  0  0  0  0  0  0  0  0  0  0
  -22.0081   -0.1483   28.8586 C   0  0  0  0  0  0  0  0  0  0  0  0
  -25.7722    1.4202   32.9224 C   0  0  0  0  0  0  0  0  0  0  0  0
  2  7  1  0
  7  8  1  0
  7  9  1  0
  9 10  1  0
 10 11  1  0
 11 12  1  0
 11 13  1  0
 13 14  2  3
 12 15  1  0
 14 16  1  0
  1  2  2  0
  2  3  1  0
  3  4  2  0
  4  6  1  0
  6  5  2  0
  5  1  1  0
M  END

$$$$
