No_4939-gen_results/8p0m/2024-11-26-14-13-15/
     RDKit          3D

 15 16  0  0  0  0  0  0  0  0999 V2000
  -28.1229   -1.3353   28.4874 O   0  0  0  0  0  0  0  0  0  0  0  0
  -27.4806   -0.4044   28.7094 C   0  0  0  0  0  0  0  0  0  0  0  0
  -26.3804   -0.0867   27.9394 C   0  0  0  0  0  0  0  0  0  0  0  0
  -27.8993    0.6459   29.6320 N   0  0  0  0  0  0  0  0  0  0  0  0
  -26.3190    0.9178   27.1016 C   0  0  0  0  0  0  0  0  0  0  0  0
  -25.1519   -0.8370   28.1792 C   0  0  0  0  0  0  0  0  0  0  0  0
  -25.1266    1.1744   26.2946 C   0  0  0  0  0  0  0  0  0  0  0  0
  -23.9065   -0.4909   27.5569 C   0  0  0  0  0  0  0  0  0  0  0  0
  -23.9564    0.5366   26.6142 C   0  0  0  0  0  0  0  0  0  0  0  0
  -29.0700    0.3875   30.4290 C   0  0  0  0  0  0  0  0  0  0  0  0
  -25.1126   -1.9160   29.1513 C   0  0  0  0  0  0  0  0  0  0  0  0
  -29.7156    1.3798   30.6119 C   0  0  0  0  0  0  0  0  0  0  0  0
  -29.1814    2.6616   30.5312 C   0  0  0  0  0  0  0  0  0  0  0  0
  -27.9951    2.8662   29.7745 C   0  0  0  0  0  0  0  0  0  0  0  0
  -27.3469    1.8028   29.3481 C   0  0  0  0  0  0  0  0  0  0  0  0
  1  2  2  0
  2  3  1  0
  2  4  1  0
  4 10  1  0
  6 11  1  0
 12 13  1  0
  4 15  1  0
 14 15  1  0
 10 12  1  0
 13 14  1  0
  3  5  2  0
  5  7  1  0
  7  9  2  0
  9  8  1  0
  8  6  2  0
  6  3  1  0
M  END

$$$$
