No_4699-gen_results/8p0m/2024-11-26-14-13-15/
     RDKit          3D

 35 38  0  0  0  0  0  0  0  0999 V2000
  -28.0162   -0.8135   28.8779 C   0  0  0  0  0  0  0  0  0  0  0  0
  -27.0636   -0.1189   28.6079 C   0  0  0  0  0  0  0  0  0  0  0  0
  -25.7923   -0.4302   29.0761 C   0  0  0  0  0  0  0  0  0  0  0  0
  -25.5756   -1.5654   29.9363 C   0  0  0  0  0  0  0  0  0  0  0  0
  -26.7354   -2.3004   30.2173 C   0  0  0  0  0  0  0  0  0  0  0  0
  -27.8207   -1.9449   29.7721 C   0  0  0  0  0  0  0  0  0  0  0  0
  -27.1235    1.0231   27.8500 O   0  0  0  0  0  0  0  0  0  0  0  0
  -26.9039    0.9566   26.5325 C   0  0  0  0  0  0  0  0  0  0  0  0
  -29.0246   -2.7939   30.2274 C   0  0  0  0  0  0  0  0  0  0  0  0
  -29.4021   -2.6666   31.2612 O   0  0  0  0  0  0  0  0  0  0  0  0
  -29.4594   -3.6969   29.4451 O   0  0  0  0  0  0  0  0  0  0  0  0
  -27.9201    0.6515   25.7079 C   0  0  0  0  0  0  0  0  0  0  0  0
  -29.1359    0.5429   26.2214 C   0  0  0  0  0  0  0  0  0  0  0  0
  -30.2594    0.1857   25.3897 C   0  0  0  0  0  0  0  0  0  0  0  0
  -29.9045   -0.1324   24.0599 C   0  0  0  0  0  0  0  0  0  0  0  0
  -28.6663   -0.0769   23.5678 C   0  0  0  0  0  0  0  0  0  0  0  0
  -27.6095    0.3094   24.3775 C   0  0  0  0  0  0  0  0  0  0  0  0
  -25.4756    0.4147   26.2919 C   0  0  0  0  0  0  0  0  0  0  0  0
  -24.4286    1.5359   26.6124 C   0  0  0  0  0  0  0  0  0  0  0  0
  -23.2124    1.2215   27.1541 C   0  0  0  0  0  0  0  0  0  0  0  0
  -22.3207    2.3353   27.3199 C   0  0  0  0  0  0  0  0  0  0  0  0
  -24.7725    2.8480   26.2550 C   0  0  0  0  0  0  0  0  0  0  0  0
  -23.8734    3.9074   26.4664 C   0  0  0  0  0  0  0  0  0  0  0  0
  -22.6457    3.5989   27.0394 C   0  0  0  0  0  0  0  0  0  0  0  0
  -26.8804    2.6354   26.2580 C   0  0  0  0  0  0  0  0  0  0  0  0
  -26.0799    3.2177   26.1063 N   0  0  0  0  0  0  0  0  0  0  0  0
  -31.6155    0.0389   25.8493 C   0  0  0  0  0  0  0  0  0  0  0  0
  -32.1503    0.5723   26.6341 O   0  0  0  0  0  0  0  0  0  0  0  0
  -32.0762   -1.1891   25.5268 O   0  0  0  0  0  0  0  0  0  0  0  0
  -24.2332   -1.9008   30.3976 C   0  0  0  0  0  0  0  0  0  0  0  0
  -23.7191   -1.1148   31.3340 N   0  0  0  0  0  0  0  0  0  0  0  0
  -24.2193   -0.7914   32.4411 C   0  0  0  0  0  0  0  0  0  0  0  0
  -22.9949    0.0122   30.6772 C   0  0  0  0  0  0  0  0  0  0  0  0
  -33.0622   -1.8125   26.2334 C   0  0  0  0  0  0  0  0  0  0  0  0
  -32.8327   -3.1957   26.2198 C   0  0  0  0  0  0  0  0  0  0  0  0
  2  7  1  0
  7  8  1  0
  6  9  1  0
  9 10  1  0
  9 11  2  0
  8 12  1  0
  8 18  1  0
 18 19  1  0
  8 25  1  0
 22 26  1  0
 25 26  1  0
 14 27  1  0
 27 28  2  0
 27 29  1  0
  4 30  1  0
 30 31  1  0
 31 32  1  0
 31 33  1  0
 29 34  1  0
 34 35  1  0
 12 13  2  0
 13 14  1  0
 14 15  2  0
 15 16  1  0
 16 17  2  0
 17 12  1  0
  1  2  2  0
  2  3  1  0
  3  4  2  0
  4  5  1  0
  5  6  2  0
  6  1  1  0
 19 20  2  0
 20 21  1  0
 21 24  2  0
 24 23  1  0
 23 22  2  0
 22 19  1  0
M  END

$$$$
