No_4231-gen_results/8p0m/2024-11-26-14-13-15/
     RDKit          3D

  5  4  0  0  0  0  0  0  0  0999 V2000
  -28.0727   -1.2542   28.5316 F   0  0  0  0  0  0  0  0  0  0  0  0
  -27.0607   -0.6291   28.8721 C   0  0  0  0  0  0  0  0  0  0  0  0
  -27.1422    0.5775   29.5805 Cl  0  0  0  0  0  0  0  0  0  0  0  0
  -26.2506   -1.5798   29.6529 F   0  0  0  0  0  0  0  0  0  0  0  0
  -26.2828   -0.4972   27.7325 F   0  0  0  0  0  0  0  0  0  0  0  0
  1  2  1  0
  2  3  1  0
  2  4  1  0
  2  5  1  0
M  END

$$$$
