No_461-gen_results/8p0m/2024-11-26-14-13-15/
     RDKit          3D

 12 12  0  0  0  0  0  0  0  0999 V2000
  -28.0162   -0.8135   28.8779 C   0  0  0  0  0  0  0  0  0  0  0  0
  -27.0636   -0.1190   28.6079 C   0  0  0  0  0  0  0  0  0  0  0  0
  -26.9716    0.7139   27.5060 C   0  0  0  0  0  0  0  0  0  0  0  0
  -28.1053    0.7744   26.6421 C   0  0  0  0  0  0  0  0  0  0  0  0
  -29.2008    0.1044   27.0527 C   0  0  0  0  0  0  0  0  0  0  0  0
  -29.2096   -0.6029   28.1853 C   0  0  0  0  0  0  0  0  0  0  0  0
  -30.4845    0.1494   26.3508 C   0  0  0  0  0  0  0  0  0  0  0  0
  -31.1692    1.1888   26.4439 O   0  0  0  0  0  0  0  0  0  0  0  0
  -30.9190   -0.9326   25.8166 O   0  0  0  0  0  0  0  0  0  0  0  0
  -25.4897   -0.2361   29.5345 Cl  0  0  0  0  0  0  0  0  0  0  0  0
  -25.6394    1.3948   27.1133 C   0  0  0  0  0  0  0  0  0  0  0  0
  -24.7992    1.7859   28.1221 C   0  0  0  0  0  0  0  0  0  0  0  0
  5  7  1  0
  7  8  2  0
  7  9  1  0
  2 10  1  0
  3 11  1  0
 11 12  1  0
  1  2  2  0
  2  3  1  0
  3  4  2  0
  4  5  1  0
  5  6  2  0
  6  1  1  0
M  END

$$$$
