No_401-gen_results/8p0m/2024-11-26-14-13-15/
     RDKit          3D

 35 38  0  0  0  0  0  0  0  0999 V2000
  -28.0162   -0.8135   28.8779 C   0  0  0  0  0  0  0  0  0  0  0  0
  -27.0636   -0.1189   28.6079 C   0  0  0  0  0  0  0  0  0  0  0  0
  -25.7647   -0.3897   29.0360 C   0  0  0  0  0  0  0  0  0  0  0  0
  -24.5516    0.4058   28.7646 C   0  0  0  0  0  0  0  0  0  0  0  0
  -24.6957    1.4480   27.7988 C   0  0  0  0  0  0  0  0  0  0  0  0
  -25.9755    1.7250   27.3077 C   0  0  0  0  0  0  0  0  0  0  0  0
  -27.0718    1.0134   27.6535 C   0  0  0  0  0  0  0  0  0  0  0  0
  -28.6077   -0.5909   30.1098 N   0  0  0  0  0  0  0  0  0  0  0  0
  -23.4939    2.1690   27.4794 C   0  0  0  0  0  0  0  0  0  0  0  0
  -23.5512    3.1512   26.7577 O   0  0  0  0  0  0  0  0  0  0  0  0
  -22.3282    1.9213   28.0713 O   0  0  0  0  0  0  0  0  0  0  0  0
  -28.1434    0.1813   30.9047 C   0  0  0  0  0  0  0  0  0  0  0  0
  -27.4282    1.0658   30.8222 C   0  0  0  0  0  0  0  0  0  0  0  0
  -27.0838    1.9876   31.5697 C   0  0  0  0  0  0  0  0  0  0  0  0
  -26.3106    3.2029   31.2514 C   0  0  0  0  0  0  0  0  0  0  0  0
  -25.8367    3.1714   29.9128 C   0  0  0  0  0  0  0  0  0  0  0  0
  -25.1907    4.3373   29.6066 N   0  0  0  0  0  0  0  0  0  0  0  0
  -28.3641    1.3965   27.0455 C   0  0  0  0  0  0  0  0  0  0  0  0
  -28.4800    2.4264   26.3411 C   0  0  0  0  0  0  0  0  0  0  0  0
  -29.7262    2.8037   25.8075 C   0  0  0  0  0  0  0  0  0  0  0  0
  -30.7901    2.0120   25.8377 C   0  0  0  0  0  0  0  0  0  0  0  0
  -30.6479    0.7936   26.5320 C   0  0  0  0  0  0  0  0  0  0  0  0
  -29.4796    0.5032   27.1359 C   0  0  0  0  0  0  0  0  0  0  0  0
  -31.9132    0.1341   26.7039 C   0  0  0  0  0  0  0  0  0  0  0  0
  -32.4098   -0.5271   25.9182 N   0  0  0  0  0  0  0  0  0  0  0  0
  -29.8095   -1.5876   30.3892 C   0  0  0  0  0  0  0  0  0  0  0  0
  -33.3058   -1.4092   25.9734 C   0  0  0  0  0  0  0  0  0  0  0  0
  -32.0572   -0.2488   28.0179 O   0  0  0  0  0  0  0  0  0  0  0  0
  -30.6940   -1.0957   31.3380 C   0  0  0  0  0  0  0  0  0  0  0  0
  -30.1487   -0.4165   32.4197 C   0  0  0  0  0  0  0  0  0  0  0  0
  -29.1170    0.3478   32.2364 C   0  0  0  0  0  0  0  0  0  0  0  0
  -25.8757    5.5834   29.4336 C   0  0  0  0  0  0  0  0  0  0  0  0
  -26.1125    6.0879   30.7563 C   0  0  0  0  0  0  0  0  0  0  0  0
  -26.9437    5.4398   31.7308 C   0  0  0  0  0  0  0  0  0  0  0  0
  -26.4811    4.2196   32.1401 C   0  0  0  0  0  0  0  0  0  0  0  0
  1  2  2  3
  2  3  1  0
  3  4  1  0
  4  5  1  0
  5  6  1  0
  2  7  1  0
  6  7  1  0
  1  8  1  0
  5  9  1  0
  9 10  2  0
  9 11  1  0
  8 12  1  0
 13 14  1  0
 14 15  2  3
 15 16  1  0
 16 17  1  0
  7 18  1  0
 22 24  1  0
 24 25  1  0
  8 26  1  0
 25 27  1  0
 24 28  2  0
 29 30  1  0
 12 31  1  0
 17 32  1  0
 32 33  1  0
 33 34  1  0
 15 35  1  0
 34 35  1  0
 13 12  1  0
 31 30  1  0
 29 26  1  0
 18 19  2  0
 19 20  1  0
 20 21  2  0
 21 22  1  0
 22 23  2  0
 23 18  1  0
M  END

$$$$
