No_4719-gen_results/8p0m/2024-11-26-14-13-15/
     RDKit          3D

 20 21  0  0  0  0  0  0  0  0999 V2000
  -28.0162   -0.8135   28.8779 C   0  0  0  0  0  0  0  0  0  0  0  0
  -28.4690   -0.7850   29.8287 C   0  0  0  0  0  0  0  0  0  0  0  0
  -26.5042   -0.7777   28.8766 C   0  0  0  0  0  0  0  0  0  0  0  0
  -25.8103   -0.8531   30.1028 C   0  0  0  0  0  0  0  0  0  0  0  0
  -27.9906   -0.8916   31.2257 C   0  0  0  0  0  0  0  0  0  0  0  0
  -26.6042   -0.8676   31.2652 C   0  0  0  0  0  0  0  0  0  0  0  0
  -30.0739   -0.8360   29.8615 C   0  0  0  0  0  0  0  0  0  0  0  0
  -30.5608   -0.4418   28.9417 O   0  0  0  0  0  0  0  0  0  0  0  0
  -30.7486   -1.4028   30.9474 N   0  0  0  0  0  0  0  0  0  0  0  0
  -32.1749   -1.4682   30.8889 C   0  0  0  0  0  0  0  0  0  0  0  0
  -32.9239   -0.7817   30.4955 C   0  0  0  0  0  0  0  0  0  0  0  0
  -32.5011    0.5710   30.0947 C   0  0  0  0  0  0  0  0  0  0  0  0
  -33.4017    1.6795   29.9954 C   0  0  0  0  0  0  0  0  0  0  0  0
  -32.9222    2.9410   29.5595 C   0  0  0  0  0  0  0  0  0  0  0  0
  -31.5524    3.0542   29.1787 C   0  0  0  0  0  0  0  0  0  0  0  0
  -30.7243    1.9712   29.2754 C   0  0  0  0  0  0  0  0  0  0  0  0
  -31.1932    0.8141   29.7428 C   0  0  0  0  0  0  0  0  0  0  0  0
  -30.5440    1.1173   31.2282 C   0  0  0  0  0  0  0  0  0  0  0  0
  -30.8532    1.6400   28.9615 Br  0  0  0  0  0  0  0  0  0  0  0  0
  -30.6684    0.1574   31.1615 O   0  0  0  0  0  0  0  0  0  0  0  0
  2  7  1  0
  7  8  2  0
  7  9  1  0
  9 10  1  0
 10 11  2  3
 11 12  1  0
 17 18  1  0
 16 19  1  0
 18 20  2  0
 12 13  2  0
 13 14  1  0
 14 15  2  0
 15 16  1  0
 16 17  2  0
 17 12  1  0
  1  2  2  0
  2  5  1  0
  5  6  2  0
  6  4  1  0
  4  3  2  0
  3  1  1  0
M  END

$$$$
