No_4237-gen_results/8p0m/2024-11-26-14-13-15/
     RDKit          3D

 22 23  0  0  0  0  0  0  0  0999 V2000
  -28.0162   -0.8135   28.8779 C   0  0  0  0  0  0  0  0  0  0  0  0
  -28.4690   -0.7850   29.8287 C   0  0  0  0  0  0  0  0  0  0  0  0
  -28.1816    0.4277   28.1134 C   0  0  0  0  0  0  0  0  0  0  0  0
  -27.4498    0.6435   26.8500 C   0  0  0  0  0  0  0  0  0  0  0  0
  -26.4529    0.9939   26.6681 C   0  0  0  0  0  0  0  0  0  0  0  0
  -25.5831    0.4816   25.6005 C   0  0  0  0  0  0  0  0  0  0  0  0
  -29.4401    0.0830   30.4451 C   0  0  0  0  0  0  0  0  0  0  0  0
  -29.6515    1.2097   29.7516 C   0  0  0  0  0  0  0  0  0  0  0  0
  -29.0257    1.4242   28.5721 C   0  0  0  0  0  0  0  0  0  0  0  0
  -26.2346   -0.2065   24.5732 C   0  0  0  0  0  0  0  0  0  0  0  0
  -28.0155   -0.1032   25.6676 C   0  0  0  0  0  0  0  0  0  0  0  0
  -27.4065   -0.4485   24.6409 C   0  0  0  0  0  0  0  0  0  0  0  0
  -23.9262    0.9703   25.5042 Cl  0  0  0  0  0  0  0  0  0  0  0  0
  -29.4037   -0.4653   25.8354 F   0  0  0  0  0  0  0  0  0  0  0  0
  -29.2161    2.4574   27.8606 F   0  0  0  0  0  0  0  0  0  0  0  0
  -30.4718    2.1612   30.1867 F   0  0  0  0  0  0  0  0  0  0  0  0
  -28.2986   -2.0182   30.6727 O   0  0  0  0  0  0  0  0  0  0  0  0
  -27.5869   -3.0023   30.1597 C   0  0  0  0  0  0  0  0  0  0  0  0
  -26.2708   -2.7983   29.8337 C   0  0  0  0  0  0  0  0  0  0  0  0
  -25.5677   -1.5856   29.8937 C   0  0  0  0  0  0  0  0  0  0  0  0
  -24.2290   -1.5091   29.4707 C   0  0  0  0  0  0  0  0  0  0  0  0
  -23.6673   -2.6978   28.9381 C   0  0  0  0  0  0  0  0  0  0  0  0
  3  4  1  0
  6 13  1  0
 11 14  1  0
  9 15  1  0
  8 16  1  0
  2 17  1  0
 17 18  1  0
 18 19  2  3
 19 20  1  0
 20 21  2  3
 21 22  1  0
  4  5  2  0
  5  6  1  0
  6 10  2  0
 10 12  1  0
 12 11  2  0
 11  4  1  0
  1  2  2  0
  2  7  1  0
  7  8  2  0
  8  9  1  0
  9  3  2  0
  3  1  1  0
M  END

$$$$
