No_4914-gen_results/8p0m/2024-11-26-14-13-15/
     RDKit          3D

 21 22  0  0  0  0  0  0  0  0999 V2000
  -28.0162   -0.8135   28.8779 C   0  0  0  0  0  0  0  0  0  0  0  0
  -27.0636   -0.1190   28.6079 C   0  0  0  0  0  0  0  0  0  0  0  0
  -25.7647   -0.3897   29.0360 C   0  0  0  0  0  0  0  0  0  0  0  0
  -24.5516    0.4058   28.7646 C   0  0  0  0  0  0  0  0  0  0  0  0
  -24.6957    1.4480   27.7988 C   0  0  0  0  0  0  0  0  0  0  0  0
  -26.0010    1.6784   27.2965 C   0  0  0  0  0  0  0  0  0  0  0  0
  -27.0736    0.9682   27.6500 C   0  0  0  0  0  0  0  0  0  0  0  0
  -29.0230   -0.5743   28.2323 F   0  0  0  0  0  0  0  0  0  0  0  0
  -28.3341   -0.6627   30.2717 F   0  0  0  0  0  0  0  0  0  0  0  0
  -23.5057    2.2007   27.4762 C   0  0  0  0  0  0  0  0  0  0  0  0
  -22.1659    1.2212   26.6625 Br  0  0  0  0  0  0  0  0  0  0  0  0
  -23.5007    3.4482   27.4717 O   0  0  0  0  0  0  0  0  0  0  0  0
  -25.4823   -1.3457   29.9128 F   0  0  0  0  0  0  0  0  0  0  0  0
  -26.1388    3.1021   26.0347 Br  0  0  0  0  0  0  0  0  0  0  0  0
  -23.2698    0.0469   29.3338 C   0  0  0  0  0  0  0  0  0  0  0  0
  -22.5914   -1.0587   28.9124 C   0  0  0  0  0  0  0  0  0  0  0  0
  -22.8621    0.8212   30.4183 C   0  0  0  0  0  0  0  0  0  0  0  0
  -21.3446   -1.2325   29.4750 N   0  0  0  0  0  0  0  0  0  0  0  0
  -23.5933    1.8769   30.7669 F   0  0  0  0  0  0  0  0  0  0  0  0
  -22.3020    0.0634   31.2682 C   0  0  0  0  0  0  0  0  0  0  0  0
  -21.3917   -0.9037   30.7666 N   0  0  0  0  0  0  0  0  0  0  0  0
  1  8  1  0
  1  9  1  0
  5 10  1  0
 10 11  1  0
 10 12  2  0
  3 13  1  0
  6 14  1  0
  4 15  1  0
 17 19  1  0
  1  2  1  0
 15 16  2  0
 16 18  1  0
 18 21  2  0
 21 20  1  0
 20 17  2  0
 17 15  1  0
  2  3  2  0
  3  4  1  0
  4  5  2  0
  5  6  1  0
  6  7  2  0
  7  2  1  0
M  END

$$$$
