No_4545-gen_results/8p0m/2024-11-26-14-13-15/
     RDKit          3D

 35 38  0  0  0  0  0  0  0  0999 V2000
  -28.0162   -0.8135   28.8779 C   0  0  0  0  0  0  0  0  0  0  0  0
  -27.0636   -0.1189   28.6079 C   0  0  0  0  0  0  0  0  0  0  0  0
  -27.0010    0.6913   27.4910 C   0  0  0  0  0  0  0  0  0  0  0  0
  -28.1373    0.7363   26.6350 C   0  0  0  0  0  0  0  0  0  0  0  0
  -29.2360    0.0765   27.0690 C   0  0  0  0  0  0  0  0  0  0  0  0
  -29.2177   -0.6429   28.1747 C   0  0  0  0  0  0  0  0  0  0  0  0
  -28.0030   -1.6604   30.1266 C   0  0  0  0  0  0  0  0  0  0  0  0
  -27.0435   -2.4948   30.2692 N   0  0  0  0  0  0  0  0  0  0  0  0
  -27.2614   -3.8473   29.9657 C   0  0  0  0  0  0  0  0  0  0  0  0
  -26.1010   -4.5577   29.7951 N   0  0  0  0  0  0  0  0  0  0  0  0
  -28.3097   -4.3885   30.1480 O   0  0  0  0  0  0  0  0  0  0  0  0
  -28.0787    1.6082   25.4445 C   0  0  0  0  0  0  0  0  0  0  0  0
  -27.0067    1.7065   24.7836 C   0  0  0  0  0  0  0  0  0  0  0  0
  -29.3055    2.2318   25.0170 C   0  0  0  0  0  0  0  0  0  0  0  0
  -29.7128    2.3601   23.8024 C   0  0  0  0  0  0  0  0  0  0  0  0
  -25.8202    1.0979   25.0798 C   0  0  0  0  0  0  0  0  0  0  0  0
  -25.7531    0.6466   26.5949 C   0  0  0  0  0  0  0  0  0  0  0  0
  -30.9022    3.0295   23.3891 C   0  0  0  0  0  0  0  0  0  0  0  0
  -31.7514    3.5582   24.3907 C   0  0  0  0  0  0  0  0  0  0  0  0
  -31.3611    3.4684   25.7211 C   0  0  0  0  0  0  0  0  0  0  0  0
  -30.2050    2.8549   26.1044 C   0  0  0  0  0  0  0  0  0  0  0  0
  -24.4290    0.2739   27.1464 C   0  0  0  0  0  0  0  0  0  0  0  0
  -23.5557    1.3173   27.5395 C   0  0  0  0  0  0  0  0  0  0  0  0
  -23.6730    2.6369   27.2380 C   0  0  0  0  0  0  0  0  0  0  0  0
  -22.3883    0.7724   28.2775 C   0  0  0  0  0  0  0  0  0  0  0  0
  -21.2400    1.0993   27.8376 N   0  0  0  0  0  0  0  0  0  0  0  0
  -22.5271   -0.1091   29.2540 N   0  0  0  0  0  0  0  0  0  0  0  0
  -23.6325   -0.4649   29.9513 C   0  0  0  0  0  0  0  0  0  0  0  0
  -23.3105   -0.4919   31.5199 C   0  0  0  0  0  0  0  0  0  0  0  0
  -24.2447    0.1592   32.3619 C   0  0  0  0  0  0  0  0  0  0  0  0
  -24.9353   -0.6723   33.3106 C   0  0  0  0  0  0  0  0  0  0  0  0
  -25.9239   -0.0666   34.1093 C   0  0  0  0  0  0  0  0  0  0  0  0
  -26.4221    1.2120   33.8450 C   0  0  0  0  0  0  0  0  0  0  0  0
  -25.8162    1.9846   32.8048 C   0  0  0  0  0  0  0  0  0  0  0  0
  -24.7791    1.4422   32.0553 C   0  0  0  0  0  0  0  0  0  0  0  0
  1  7  1  0
  7  8  1  0
  8  9  1  0
  9 10  1  0
  9 11  2  0
 12 14  1  0
 17 22  1  0
 22 23  2  3
 23 24  1  0
 23 25  1  0
 25 26  2  0
 25 27  1  0
 27 28  1  0
 28 29  1  0
 29 30  1  0
  1  2  2  0
  2  3  1  0
  4  5  1  0
  5  6  2  0
  6  1  1  0
 14 15  2  0
 15 18  1  0
 18 19  2  0
 19 20  1  0
 20 21  2  0
 21 14  1  0
 30 31  2  0
 31 32  1  0
 32 33  2  0
 33 34  1  0
 34 35  2  0
 35 30  1  0
  3  4  2  0
  4 12  1  0
 12 13  2  0
 13 16  1  0
 16 17  2  0
 17  3  1  0
M  END

$$$$
