No_4383-gen_results/8p0m/2024-11-26-14-13-15/
     RDKit          3D

 28 32  0  0  0  0  0  0  0  0999 V2000
  -28.0162   -0.8135   28.8779 C   0  0  0  0  0  0  0  0  0  0  0  0
  -27.0636   -0.1189   28.6079 C   0  0  0  0  0  0  0  0  0  0  0  0
  -25.7923   -0.4302   29.0761 C   0  0  0  0  0  0  0  0  0  0  0  0
  -24.5456    0.3494   28.8225 C   0  0  0  0  0  0  0  0  0  0  0  0
  -24.6586    1.4196   27.8878 C   0  0  0  0  0  0  0  0  0  0  0  0
  -23.5403    2.1791   27.5500 C   0  0  0  0  0  0  0  0  0  0  0  0
  -22.2925    1.7429   28.0473 C   0  0  0  0  0  0  0  0  0  0  0  0
  -22.1712    0.7080   28.9284 C   0  0  0  0  0  0  0  0  0  0  0  0
  -23.3345   -0.0624   29.3081 C   0  0  0  0  0  0  0  0  0  0  0  0
  -28.2429   -1.2271   30.0750 C   0  0  0  0  0  0  0  0  0  0  0  0
  -27.0415   -1.6858   30.8121 C   0  0  0  0  0  0  0  0  0  0  0  0
  -25.7870   -1.2054   30.3618 C   0  0  0  0  0  0  0  0  0  0  0  0
  -29.4808   -1.9335   30.5416 C   0  0  0  0  0  0  0  0  0  0  0  0
  -29.9112   -1.5622   31.7150 O   0  0  0  0  0  0  0  0  0  0  0  0
  -29.9153   -2.9226   30.0218 O   0  0  0  0  0  0  0  0  0  0  0  0
  -23.6439    3.1724   26.6936 O   0  0  0  0  0  0  0  0  0  0  0  0
  -24.4048    3.8869   26.3815 C   0  0  0  0  0  0  0  0  0  0  0  0
  -25.3771    4.3189   27.3996 C   0  0  0  0  0  0  0  0  0  0  0  0
  -26.0387    5.4713   27.2896 C   0  0  0  0  0  0  0  0  0  0  0  0
  -27.0977    5.7861   28.0805 C   0  0  0  0  0  0  0  0  0  0  0  0
  -27.4787    4.9169   29.1083 C   0  0  0  0  0  0  0  0  0  0  0  0
  -26.8230    3.7088   29.2628 C   0  0  0  0  0  0  0  0  0  0  0  0
  -25.7747    3.3921   28.3929 C   0  0  0  0  0  0  0  0  0  0  0  0
  -25.2669    2.1724   28.4964 N   0  0  0  0  0  0  0  0  0  0  0  0
  -27.2254    2.7927   30.3300 C   0  0  0  0  0  0  0  0  0  0  0  0
  -28.6165    2.7058   30.7164 C   0  0  0  0  0  0  0  0  0  0  0  0
  -29.5736    3.4588   30.1744 C   0  0  0  0  0  0  0  0  0  0  0  0
  -29.0588    4.7268   29.4705 C   0  0  0  0  0  0  0  0  0  0  0  0
  3  4  1  0
 10 13  1  0
 13 14  1  0
 13 15  2  0
  6 16  1  0
 16 17  1  0
 17 18  1  0
  5 24  1  0
 24 23  1  0
 18 19  2  0
 19 20  1  0
 20 21  2  0
 22 23  2  0
 23 18  1  0
 21 22  1  0
 22 25  1  0
 25 26  2  0
 26 27  1  0
 27 28  2  0
 28 21  1  0
  1  2  2  0
  2  3  1  0
  3 12  2  0
 12 11  1  0
 11 10  2  0
 10  1  1  0
  4  5  2  0
  5  6  1  0
  6  7  2  0
  7  8  1  0
  8  9  2  0
  9  4  1  0
M  END

$$$$
