No_4532-gen_results/8p0m/2024-11-26-14-13-15/
     RDKit          3D

 13 14  0  0  0  0  0  0  0  0999 V2000
  -28.0162   -0.8135   28.8779 C   0  0  0  0  0  0  0  0  0  0  0  0
  -27.0636   -0.1189   28.6079 C   0  0  0  0  0  0  0  0  0  0  0  0
  -27.0010    0.6913   27.4910 C   0  0  0  0  0  0  0  0  0  0  0  0
  -25.8548    1.4825   27.0830 C   0  0  0  0  0  0  0  0  0  0  0  0
  -24.6901    1.4526   27.8807 C   0  0  0  0  0  0  0  0  0  0  0  0
  -24.7379    0.6010   29.0416 C   0  0  0  0  0  0  0  0  0  0  0  0
  -25.8234   -0.1688   29.3887 C   0  0  0  0  0  0  0  0  0  0  0  0
  -27.9613   -1.6072   30.0877 N   0  0  0  0  0  0  0  0  0  0  0  0
  -23.5206    2.2106   27.5733 C   0  0  0  0  0  0  0  0  0  0  0  0
  -22.7113    2.4004   28.4702 O   0  0  0  0  0  0  0  0  0  0  0  0
  -23.4526    2.7917   26.4467 O   0  0  0  0  0  0  0  0  0  0  0  0
  -26.7841   -1.9302   30.6831 C   0  0  0  0  0  0  0  0  0  0  0  0
  -25.7616   -1.1064   30.4518 C   0  0  0  0  0  0  0  0  0  0  0  0
  5  9  1  0
  9 10  1  0
  9 11  2  0
  2  3  1  0
  3  4  2  0
  4  5  1  0
  5  6  2  0
  6  7  1  0
  1  2  2  0
  2  7  1  0
  7 13  2  0
 13 12  1  0
 12  8  2  0
  8  1  1  0
M  END

$$$$
