No_4016-gen_results/8p0m/2024-11-26-14-13-15/
     RDKit          3D

 15 15  0  0  0  0  0  0  0  0999 V2000
  -28.0162   -0.8135   28.8779 C   0  0  0  0  0  0  0  0  0  0  0  0
  -28.4690   -0.7850   29.8287 C   0  0  0  0  0  0  0  0  0  0  0  0
  -26.5455   -0.8762   28.8500 C   0  0  0  0  0  0  0  0  0  0  0  0
  -25.8041   -1.0324   30.0571 C   0  0  0  0  0  0  0  0  0  0  0  0
  -26.5373   -1.0386   31.2171 C   0  0  0  0  0  0  0  0  0  0  0  0
  -27.8929   -0.9601   31.1743 C   0  0  0  0  0  0  0  0  0  0  0  0
  -25.6130   -0.8033   27.4237 Cl  0  0  0  0  0  0  0  0  0  0  0  0
  -28.6208   -0.9542   32.3498 O   0  0  0  0  0  0  0  0  0  0  0  0
  -29.2959   -1.9844   32.7046 C   0  0  0  0  0  0  0  0  0  0  0  0
  -29.6328   -2.0568   34.0887 C   0  0  0  0  0  0  0  0  0  0  0  0
  -30.5744   -1.8436   34.5030 C   0  0  0  0  0  0  0  0  0  0  0  0
  -31.4937   -0.9691   33.9374 C   0  0  0  0  0  0  0  0  0  0  0  0
  -31.1991    0.1652   33.5129 C   0  0  0  0  0  0  0  0  0  0  0  0
  -32.1298    1.0897   32.8159 C   0  0  0  0  0  0  0  0  0  0  0  0
  -33.4168    0.5505   32.6846 C   0  0  0  0  0  0  0  0  0  0  0  0
  3  7  1  0
  6  8  1  0
  8  9  1  0
  9 10  2  3
 10 11  1  0
 11 12  2  3
 12 13  1  0
 13 14  2  3
 14 15  1  0
  1  2  2  0
  2  6  1  0
  6  5  2  0
  5  4  1  0
  4  3  2  0
  3  1  1  0
M  END

$$$$
