No_4358-gen_results/8p0m/2024-11-26-14-13-15/
     RDKit          3D

 25 27  0  0  0  0  0  0  0  0999 V2000
  -28.0162   -0.8135   28.8779 C   0  0  0  0  0  0  0  0  0  0  0  0
  -28.4690   -0.7850   29.8287 C   0  0  0  0  0  0  0  0  0  0  0  0
  -28.1960    0.3478   28.0550 C   0  0  0  0  0  0  0  0  0  0  0  0
  -29.0191    1.3501   28.3782 C   0  0  0  0  0  0  0  0  0  0  0  0
  -29.6249    1.2683   29.6012 C   0  0  0  0  0  0  0  0  0  0  0  0
  -29.3791    0.1469   30.3923 C   0  0  0  0  0  0  0  0  0  0  0  0
  -27.3781    0.2552   26.9166 O   0  0  0  0  0  0  0  0  0  0  0  0
  -26.0149    0.3582   26.9877 C   0  0  0  0  0  0  0  0  0  0  0  0
  -25.4231    1.5239   27.4465 C   0  0  0  0  0  0  0  0  0  0  0  0
  -24.0466    1.5566   27.6588 C   0  0  0  0  0  0  0  0  0  0  0  0
  -23.3304    0.4366   28.0782 C   0  0  0  0  0  0  0  0  0  0  0  0
  -23.9826   -0.8014   27.9732 C   0  0  0  0  0  0  0  0  0  0  0  0
  -25.1346   -0.6527   26.5387 C   0  0  0  0  0  0  0  0  0  0  0  0
  -22.0178    0.4181   28.6332 C   0  0  0  0  0  0  0  0  0  0  0  0
  -21.6698   -0.3664   29.6144 N   0  0  0  0  0  0  0  0  0  0  0  0
  -21.1276    1.1646   28.0588 O   0  0  0  0  0  0  0  0  0  0  0  0
  -29.1996    2.4520   27.4774 C   0  0  0  0  0  0  0  0  0  0  0  0
  -28.2889    3.1733   27.0738 C   0  0  0  0  0  0  0  0  0  0  0  0
  -28.5376    4.2723   26.1056 C   0  0  0  0  0  0  0  0  0  0  0  0
  -29.8327    4.4173   25.5579 C   0  0  0  0  0  0  0  0  0  0  0  0
  -30.7742    3.5248   25.9680 C   0  0  0  0  0  0  0  0  0  0  0  0
  -30.5299    2.5380   26.9380 C   0  0  0  0  0  0  0  0  0  0  0  0
  -30.5821    2.3221   30.0449 C   0  0  0  0  0  0  0  0  0  0  0  0
  -31.7577    2.3528   29.7771 O   0  0  0  0  0  0  0  0  0  0  0  0
  -29.9915    3.3267   30.7096 O   0  0  0  0  0  0  0  0  0  0  0  0
  3  7  1  0
  7  8  1  0
 11 14  1  0
 14 15  1  0
 14 16  2  0
  4 17  1  0
  5 23  1  0
 23 24  2  0
 23 25  1  0
 17 18  2  0
 18 19  1  0
 19 20  2  0
 20 21  1  0
 21 22  2  0
 22 17  1  0
  1  2  2  0
  2  6  1  0
  6  5  2  0
  5  4  1  0
  4  3  2  0
  3  1  1  0
  8  9  2  0
  9 10  1  0
 10 11  2  0
 11 12  1  0
 12 13  2  0
 13  8  1  0
M  END

$$$$
