No_4908-gen_results/8p0m/2024-11-26-14-13-15/
     RDKit          3D

 27 28  0  0  0  0  0  0  0  0999 V2000
  -28.0162   -0.8135   28.8779 C   0  0  0  0  0  0  0  0  0  0  0  0
  -28.4690   -0.7850   29.8287 C   0  0  0  0  0  0  0  0  0  0  0  0
  -26.5042   -0.7777   28.8766 C   0  0  0  0  0  0  0  0  0  0  0  0
  -25.8103   -0.8531   30.1028 C   0  0  0  0  0  0  0  0  0  0  0  0
  -27.9906   -0.8916   31.2257 C   0  0  0  0  0  0  0  0  0  0  0  0
  -24.3976   -0.8364   30.1775 C   0  0  0  0  0  0  0  0  0  0  0  0
  -26.5754   -0.8899   31.2661 C   0  0  0  0  0  0  0  0  0  0  0  0
  -23.7964    0.4357   29.9090 C   0  0  0  0  0  0  0  0  0  0  0  0
  -22.4944    0.4757   29.3632 C   0  0  0  0  0  0  0  0  0  0  0  0
  -21.7757   -0.7201   29.1864 C   0  0  0  0  0  0  0  0  0  0  0  0
  -23.6121   -2.0037   29.9274 C   0  0  0  0  0  0  0  0  0  0  0  0
  -22.3403   -1.9014   29.3467 C   0  0  0  0  0  0  0  0  0  0  0  0
  -25.6966   -0.7190   27.6424 C   0  0  0  0  0  0  0  0  0  0  0  0
  -24.5350    1.6674   30.1906 C   0  0  0  0  0  0  0  0  0  0  0  0
  -24.6319    2.1242   31.3255 O   0  0  0  0  0  0  0  0  0  0  0  0
  -25.2256    2.1998   29.2297 O   0  0  0  0  0  0  0  0  0  0  0  0
  -30.0617   -0.8900   30.0122 C   0  0  0  0  0  0  0  0  0  0  0  0
  -30.6222   -0.3539   30.7918 O   0  0  0  0  0  0  0  0  0  0  0  0
  -30.5950   -1.5230   29.0216 O   0  0  0  0  0  0  0  0  0  0  0  0
  -26.0126    3.3012   29.4608 C   0  0  0  0  0  0  0  0  0  0  0  0
  -26.0014    4.1337   28.3653 C   0  0  0  0  0  0  0  0  0  0  0  0
  -25.5750    3.7329   27.3534 O   0  0  0  0  0  0  0  0  0  0  0  0
  -27.1503    3.2185   30.3218 C   0  0  0  0  0  0  0  0  0  0  0  0
  -28.3297    3.1885   29.8047 N   0  0  0  0  0  0  0  0  0  0  0  0
  -29.4235    2.9579   30.5537 C   0  0  0  0  0  0  0  0  0  0  0  0
  -30.6738    2.9655   29.8502 C   0  0  0  0  0  0  0  0  0  0  0  0
  -31.7765    3.1677   30.3844 C   0  0  0  0  0  0  0  0  0  0  0  0
  4  6  1  0
  3 13  1  0
  8 14  1  0
 14 15  2  0
 14 16  1  0
  2 17  1  0
 17 18  2  0
 17 19  1  0
 16 20  1  0
 20 21  1  0
 21 22  1  0
 20 23  1  0
 23 24  1  0
 24 25  1  0
 25 26  2  3
 26 27  1  0
  6  8  2  0
  8  9  1  0
  9 10  2  0
 10 12  1  0
 12 11  2  0
 11  6  1  0
  1  2  2  0
  2  5  1  0
  5  7  2  0
  7  4  1  0
  4  3  2  0
  3  1  1  0
M  END

$$$$
