No_4022-gen_results/8p0m/2024-11-26-14-13-15/
     RDKit          3D

 25 27  0  0  0  0  0  0  0  0999 V2000
  -28.1229   -1.3353   28.4874 O   0  0  0  0  0  0  0  0  0  0  0  0
  -27.4806   -0.4044   28.7094 C   0  0  0  0  0  0  0  0  0  0  0  0
  -26.3804   -0.0867   27.9394 C   0  0  0  0  0  0  0  0  0  0  0  0
  -27.6664    0.4468   29.8988 N   0  0  0  0  0  0  0  0  0  0  0  0
  -25.1773   -0.4388   28.3946 C   0  0  0  0  0  0  0  0  0  0  0  0
  -26.5259    0.6036   26.6867 C   0  0  0  0  0  0  0  0  0  0  0  0
  -24.1813    0.0892   28.4567 C   0  0  0  0  0  0  0  0  0  0  0  0
  -22.8540   -0.2470   29.0824 C   0  0  0  0  0  0  0  0  0  0  0  0
  -22.9560   -1.5911   29.5447 C   0  0  0  0  0  0  0  0  0  0  0  0
  -25.1882   -1.8012   29.1119 C   0  0  0  0  0  0  0  0  0  0  0  0
  -24.0397   -2.3382   29.5658 C   0  0  0  0  0  0  0  0  0  0  0  0
  -28.7682    0.1596   30.7905 C   0  0  0  0  0  0  0  0  0  0  0  0
  -28.5766    0.5081   31.8854 C   0  0  0  0  0  0  0  0  0  0  0  0
  -27.5694    1.4831   32.3352 C   0  0  0  0  0  0  0  0  0  0  0  0
  -26.5243    1.7164   31.3698 C   0  0  0  0  0  0  0  0  0  0  0  0
  -26.5790    1.1296   30.1805 C   0  0  0  0  0  0  0  0  0  0  0  0
  -26.2048    0.0569   25.5644 C   0  0  0  0  0  0  0  0  0  0  0  0
  -27.0904    1.9089   26.6878 C   0  0  0  0  0  0  0  0  0  0  0  0
  -27.3010    2.5640   25.4890 C   0  0  0  0  0  0  0  0  0  0  0  0
  -26.4575    0.6112   24.3009 C   0  0  0  0  0  0  0  0  0  0  0  0
  -26.9795    1.9109   24.2867 C   0  0  0  0  0  0  0  0  0  0  0  0
  -25.4204    2.6019   31.8335 C   0  0  0  0  0  0  0  0  0  0  0  0
  -25.3403    3.6193   31.3066 F   0  0  0  0  0  0  0  0  0  0  0  0
  -24.2161    1.8729   31.6242 F   0  0  0  0  0  0  0  0  0  0  0  0
  -25.4435    2.7619   33.2079 F   0  0  0  0  0  0  0  0  0  0  0  0
  1  2  2  0
  2  3  1  0
  2  4  1  0
  3  5  1  0
  3  6  1  0
  4 12  1  0
 13 14  1  0
  4 16  1  0
 15 16  1  0
 15 22  1  0
 22 23  1  0
 22 24  1  0
 22 25  1  0
 12 13  1  0
 14 15  1  0
  5  7  2  0
  7  8  1  0
  8  9  2  0
  9 11  1  0
 11 10  2  0
 10  5  1  0
  6 17  2  0
 17 20  1  0
 20 21  2  0
 21 19  1  0
 19 18  2  0
 18  6  1  0
M  END

$$$$
