No_4764-gen_results/8p0m/2024-11-26-14-13-15/
     RDKit          3D

 23 25  0  0  0  0  0  0  0  0999 V2000
  -28.1229   -1.3353   28.4874 O   0  0  0  0  0  0  0  0  0  0  0  0
  -27.0637   -0.8242   28.8687 C   0  0  0  0  0  0  0  0  0  0  0  0
  -26.4017   -0.0623   28.6224 C   0  0  0  0  0  0  0  0  0  0  0  0
  -26.3805   -1.7991   29.9619 N   0  0  0  0  0  0  0  0  0  0  0  0
  -25.0334    0.3743   29.0484 C   0  0  0  0  0  0  0  0  0  0  0  0
  -24.5519   -0.5089   30.0932 C   0  0  0  0  0  0  0  0  0  0  0  0
  -25.2414   -1.5775   30.4661 C   0  0  0  0  0  0  0  0  0  0  0  0
  -26.8308    0.9883   27.5233 C   0  0  0  0  0  0  0  0  0  0  0  0
  -26.0090    1.5182   26.6704 C   0  0  0  0  0  0  0  0  0  0  0  0
  -24.6526    1.9099   27.1968 C   0  0  0  0  0  0  0  0  0  0  0  0
  -24.1184    1.1548   28.2655 C   0  0  0  0  0  0  0  0  0  0  0  0
  -22.7491    1.4226   28.6667 C   0  0  0  0  0  0  0  0  0  0  0  0
  -21.9113    1.9048   27.7649 O   0  0  0  0  0  0  0  0  0  0  0  0
  -22.2620    0.9776   29.8218 O   0  0  0  0  0  0  0  0  0  0  0  0
  -27.4065   -2.7532   30.3596 C   0  0  0  0  0  0  0  0  0  0  0  0
  -28.5196   -2.8339   30.6621 C   0  0  0  0  0  0  0  0  0  0  0  0
  -29.0240   -1.6476   31.3080 C   0  0  0  0  0  0  0  0  0  0  0  0
  -29.9068   -1.4004   31.7614 C   0  0  0  0  0  0  0  0  0  0  0  0
  -30.3383   -0.0947   32.4009 C   0  0  0  0  0  0  0  0  0  0  0  0
  -29.4813    0.9827   32.2502 C   0  0  0  0  0  0  0  0  0  0  0  0
  -28.2637    0.7526   31.5983 C   0  0  0  0  0  0  0  0  0  0  0  0
  -27.9679   -0.5269   31.1817 C   0  0  0  0  0  0  0  0  0  0  0  0
  -27.3157   -0.5995   32.6702 C   0  0  0  0  0  0  0  0  0  0  0  0
  1  2  2  0
  2  3  1  0
  2  4  1  0
  5  6  1  0
  4  7  1  0
 11 12  1  0
 12 13  2  0
 12 14  1  0
  4 15  1  0
 15 16  1  0
 16 17  1  0
 22 23  1  0
  6  7  1  0
 17 18  2  0
 18 19  1  0
 19 20  2  0
 20 21  1  0
 21 22  2  0
 22 17  1  0
  3  8  2  0
  8  9  1  0
  9 10  2  0
 10 11  1  0
 11  5  2  0
  5  3  1  0
M  END

$$$$
