No_404-gen_results/8p0m/2024-11-26-14-13-15/
     RDKit          3D

 35 38  0  0  0  0  0  0  0  0999 V2000
  -28.1229   -1.3353   28.4874 O   0  0  0  0  0  0  0  0  0  0  0  0
  -27.4806   -0.4044   28.7094 C   0  0  0  0  0  0  0  0  0  0  0  0
  -26.3804   -0.0867   27.9394 C   0  0  0  0  0  0  0  0  0  0  0  0
  -27.6664    0.4468   29.8988 N   0  0  0  0  0  0  0  0  0  0  0  0
  -25.1773   -0.4388   28.3946 C   0  0  0  0  0  0  0  0  0  0  0  0
  -23.9281   -0.2469   27.6677 C   0  0  0  0  0  0  0  0  0  0  0  0
  -24.0115    0.7683   26.6848 C   0  0  0  0  0  0  0  0  0  0  0  0
  -25.2436    1.2341   26.2435 C   0  0  0  0  0  0  0  0  0  0  0  0
  -26.3955    0.8712   26.8685 C   0  0  0  0  0  0  0  0  0  0  0  0
  -28.7606    0.1154   30.7715 C   0  0  0  0  0  0  0  0  0  0  0  0
  -26.8564    1.5271   30.2014 C   0  0  0  0  0  0  0  0  0  0  0  0
  -26.3607    1.6712   31.1605 C   0  0  0  0  0  0  0  0  0  0  0  0
  -25.4189    2.8248   31.4036 C   0  0  0  0  0  0  0  0  0  0  0  0
  -25.1253    3.6354   30.3047 C   0  0  0  0  0  0  0  0  0  0  0  0
  -25.7254    3.3604   29.0813 C   0  0  0  0  0  0  0  0  0  0  0  0
  -26.5942    2.3240   29.0053 C   0  0  0  0  0  0  0  0  0  0  0  0
  -25.3765    4.3439   28.0226 C   0  0  0  0  0  0  0  0  0  0  0  0
  -26.2152    4.7704   27.3942 O   0  0  0  0  0  0  0  0  0  0  0  0
  -24.1400    4.8046   27.9611 O   0  0  0  0  0  0  0  0  0  0  0  0
  -28.5621   -1.0265   31.4305 C   0  0  0  0  0  0  0  0  0  0  0  0
  -29.5399   -1.8497   31.6751 C   0  0  0  0  0  0  0  0  0  0  0  0
  -30.8230   -1.3340   31.4999 C   0  0  0  0  0  0  0  0  0  0  0  0
  -31.9282   -2.1243   31.7163 C   0  0  0  0  0  0  0  0  0  0  0  0
  -31.7445   -3.4296   32.0111 C   0  0  0  0  0  0  0  0  0  0  0  0
  -30.5004   -4.0591   32.1808 C   0  0  0  0  0  0  0  0  0  0  0  0
  -29.3748   -3.2587   32.0216 C   0  0  0  0  0  0  0  0  0  0  0  0
  -30.0515    0.3313   30.1022 C   0  0  0  0  0  0  0  0  0  0  0  0
  -30.8787   -0.1618   30.5608 C   0  0  0  0  0  0  0  0  0  0  0  0
  -24.9510   -1.4640   29.4978 C   0  0  0  0  0  0  0  0  0  0  0  0
  -24.9637   -2.5457   29.4114 C   0  0  0  0  0  0  0  0  0  0  0  0
  -25.4558   -3.7538   29.2426 C   0  0  0  0  0  0  0  0  0  0  0  0
  -26.8608   -3.9053   29.5634 C   0  0  0  0  0  0  0  0  0  0  0  0
  -27.4652   -4.8980   30.1430 N   0  0  0  0  0  0  0  0  0  0  0  0
  -24.9164   -4.9615   28.7637 C   0  0  0  0  0  0  0  0  0  0  0  0
  -23.4818   -2.9228   28.9419 N   0  0  0  0  0  0  0  0  0  0  0  0
  1  2  2  0
  2  3  1  0
  2  4  1  0
  4 10  1  0
  4 11  1  0
 15 17  1  0
 17 18  2  0
 17 19  1  0
  5 29  1  0
 29 30  2  3
 30 31  1  0
 31 32  1  0
 32 33  2  0
 31 34  1  0
 30 35  1  0
 11 12  2  0
 12 13  1  0
 13 14  2  0
 14 15  1  0
 15 16  2  0
 16 11  1  0
  3  5  2  0
  5  6  1  0
  6  7  2  0
  7  8  1  0
  8  9  2  0
  9  3  1  0
 10 20  2  0
 20 21  1  0
 22 28  1  0
 28 27  2  0
 27 10  1  0
 21 22  2  0
 22 23  1  0
 23 24  2  0
 24 25  1  0
 25 26  2  0
 26 21  1  0
M  END

$$$$
