No_4316-gen_results/8p0m/2024-11-26-14-13-15/
     RDKit          3D

 14 15  0  0  0  0  0  0  0  0999 V2000
  -28.0162   -0.8135   28.8779 C   0  0  0  0  0  0  0  0  0  0  0  0
  -28.4690   -0.7850   29.8287 C   0  0  0  0  0  0  0  0  0  0  0  0
  -28.1816    0.4277   28.1134 C   0  0  0  0  0  0  0  0  0  0  0  0
  -27.0280    0.9338   27.5279 C   0  0  0  0  0  0  0  0  0  0  0  0
  -29.8654   -0.6573   30.0468 C   0  0  0  0  0  0  0  0  0  0  0  0
  -30.4269    0.4084   29.2782 C   0  0  0  0  0  0  0  0  0  0  0  0
  -29.4631    1.0173   28.1730 C   0  0  0  0  0  0  0  0  0  0  0  0
  -26.9095    1.6810   26.7996 C   0  0  0  0  0  0  0  0  0  0  0  0
  -25.9216    2.1651   26.1752 C   0  0  0  0  0  0  0  0  0  0  0  0
  -24.5709    1.6395   26.4462 C   0  0  0  0  0  0  0  0  0  0  0  0
  -24.5585    0.6523   27.3768 C   0  0  0  0  0  0  0  0  0  0  0  0
  -25.7417    0.2374   27.9804 C   0  0  0  0  0  0  0  0  0  0  0  0
  -31.5844    0.9495   29.4176 O   0  0  0  0  0  0  0  0  0  0  0  0
  -23.3378    2.2125   25.9103 C   0  0  0  0  0  0  0  0  0  0  0  0
  1  2  1  0
  1  3  1  0
  3  4  1  0
  2  5  1  0
  5  6  1  0
  3  7  1  0
  6  7  1  0
  6 13  2  0
 10 14  1  0
  4  8  2  0
  8  9  1  0
  9 10  2  0
 10 11  1  0
 11 12  2  0
 12  4  1  0
M  END

$$$$
