No_4754-gen_results/8p0m/2024-11-26-14-13-15/
     RDKit          3D

 21 23  0  0  0  0  0  0  0  0999 V2000
  -28.0162   -0.8135   28.8779 C   0  0  0  0  0  0  0  0  0  0  0  0
  -28.4690   -0.7850   29.8287 C   0  0  0  0  0  0  0  0  0  0  0  0
  -27.1356    0.2359   28.5352 C   0  0  0  0  0  0  0  0  0  0  0  0
  -26.8745    1.2825   29.3982 C   0  0  0  0  0  0  0  0  0  0  0  0
  -27.5070    1.2380   30.6295 C   0  0  0  0  0  0  0  0  0  0  0  0
  -28.3293    0.1745   30.9350 C   0  0  0  0  0  0  0  0  0  0  0  0
  -26.4077    0.3070   27.2259 C   0  0  0  0  0  0  0  0  0  0  0  0
  -25.0105    0.3902   27.3228 C   0  0  0  0  0  0  0  0  0  0  0  0
  -27.0459    0.3288   26.0049 C   0  0  0  0  0  0  0  0  0  0  0  0
  -28.4008    0.3616   25.8738 C   0  0  0  0  0  0  0  0  0  0  0  0
  -28.9079    0.2793   24.5565 C   0  0  0  0  0  0  0  0  0  0  0  0
  -30.3027    0.2446   24.3867 C   0  0  0  0  0  0  0  0  0  0  0  0
  -31.1239    0.1924   25.4683 C   0  0  0  0  0  0  0  0  0  0  0  0
  -30.5961    0.2576   26.7584 C   0  0  0  0  0  0  0  0  0  0  0  0
  -29.2960    0.3481   26.9673 C   0  0  0  0  0  0  0  0  0  0  0  0
  -26.1959    0.2557   24.8627 C   0  0  0  0  0  0  0  0  0  0  0  0
  -24.3348   -0.2018   28.4099 C   0  0  0  0  0  0  0  0  0  0  0  0
  -23.0702    0.1179   28.7420 C   0  0  0  0  0  0  0  0  0  0  0  0
  -22.2824    0.9801   27.9137 C   0  0  0  0  0  0  0  0  0  0  0  0
  -22.9654    1.6816   26.8720 C   0  0  0  0  0  0  0  0  0  0  0  0
  -24.3230    1.4530   26.6656 C   0  0  0  0  0  0  0  0  0  0  0  0
  3  7  1  0
  7  8  1  0
  7  9  1  0
  9 10  1  0
  9 16  1  0
  1  2  2  0
  2  6  1  0
  6  5  2  0
  5  4  1  0
  4  3  2  0
  3  1  1  0
 10 11  2  0
 11 12  1  0
 12 13  2  0
 13 14  1  0
 14 15  2  0
 15 10  1  0
  8 17  2  0
 17 18  1  0
 18 19  2  0
 19 20  1  0
 20 21  2  0
 21  8  1  0
M  END

$$$$
