No_4169-gen_results/8p0m/2024-11-26-14-13-15/
     RDKit          3D

 31 33  0  0  0  0  0  0  0  0999 V2000
  -28.0162   -0.8135   28.8779 C   0  0  0  0  0  0  0  0  0  0  0  0
  -27.0636   -0.1189   28.6079 C   0  0  0  0  0  0  0  0  0  0  0  0
  -26.8756    1.1325   28.9134 C   0  0  0  0  0  0  0  0  0  0  0  0
  -25.6883    1.9515   28.5672 C   0  0  0  0  0  0  0  0  0  0  0  0
  -24.6394    1.2834   27.8753 C   0  0  0  0  0  0  0  0  0  0  0  0
  -24.8068   -0.0513   27.6040 C   0  0  0  0  0  0  0  0  0  0  0  0
  -25.9019   -0.7670   27.9511 C   0  0  0  0  0  0  0  0  0  0  0  0
  -28.6455   -0.5282   30.2428 C   0  0  0  0  0  0  0  0  0  0  0  0
  -28.9122    0.7961   30.4353 C   0  0  0  0  0  0  0  0  0  0  0  0
  -29.7108    1.2648   31.4859 C   0  0  0  0  0  0  0  0  0  0  0  0
  -27.8834    1.6692   29.8269 C   0  0  0  0  0  0  0  0  0  0  0  0
  -23.4539    1.9780   27.4266 C   0  0  0  0  0  0  0  0  0  0  0  0
  -23.1813    2.7515   26.5991 N   0  0  0  0  0  0  0  0  0  0  0  0
  -22.3072    1.7232   28.2416 O   0  0  0  0  0  0  0  0  0  0  0  0
  -30.6773    0.9703   31.7567 O   0  0  0  0  0  0  0  0  0  0  0  0
  -29.1202    2.3128   32.1651 O   0  0  0  0  0  0  0  0  0  0  0  0
  -25.5527    3.3704   28.9429 C   0  0  0  0  0  0  0  0  0  0  0  0
  -25.2972    3.7774   30.0654 O   0  0  0  0  0  0  0  0  0  0  0  0
  -26.1672    4.2278   28.1352 O   0  0  0  0  0  0  0  0  0  0  0  0
  -29.6690    3.0080   33.0383 C   0  0  0  0  0  0  0  0  0  0  0  0
  -30.2766    4.0834   32.6654 C   0  0  0  0  0  0  0  0  0  0  0  0
  -29.9492    4.9048   31.7741 C   0  0  0  0  0  0  0  0  0  0  0  0
  -28.5669    5.0983   31.4450 C   0  0  0  0  0  0  0  0  0  0  0  0
  -28.0826    6.4658   31.3900 C   0  0  0  0  0  0  0  0  0  0  0  0
  -27.9204    6.9571   30.0609 C   0  0  0  0  0  0  0  0  0  0  0  0
  -26.6247    7.3081   29.7341 C   0  0  0  0  0  0  0  0  0  0  0  0
  -25.6595    7.6528   30.7378 C   0  0  0  0  0  0  0  0  0  0  0  0
  -24.3869    8.1217   30.3985 C   0  0  0  0  0  0  0  0  0  0  0  0
  -25.7491    7.1757   32.0996 C   0  0  0  0  0  0  0  0  0  0  0  0
  -27.0259    6.4519   32.3492 C   0  0  0  0  0  0  0  0  0  0  0  0
  -24.1706    8.4955   29.0861 N   0  0  0  0  0  0  0  0  0  0  0  0
  3  4  1  0
  4  5  1  0
  5  6  1  0
  2  7  1  0
  6  7  1  0
  9 10  1  0
  5 12  1  0
 12 13  1  0
 12 14  2  0
 10 15  2  0
 10 16  1  0
  4 17  1  0
 17 18  2  0
 17 19  1  0
 16 20  1  0
 20 21  2  3
 21 22  1  0
 22 23  1  0
 23 24  1  0
 28 31  2  0
 28 27  1  0
 24 25  2  0
 25 26  1  0
 26 27  2  0
 27 29  1  0
 29 30  2  0
 30 24  1  0
  1  2  2  0
  2  3  1  0
  3 11  2  0
 11  9  1  0
  9  8  2  0
  8  1  1  0
M  END

$$$$
