No_4251-gen_results/8p0m/2024-11-26-14-13-15/
     RDKit          3D

 15 16  0  0  0  0  0  0  0  0999 V2000
  -28.0162   -0.8135   28.8779 C   0  0  0  0  0  0  0  0  0  0  0  0
  -28.4690   -0.7850   29.8287 C   0  0  0  0  0  0  0  0  0  0  0  0
  -27.0871    0.2903   28.6377 C   0  0  0  0  0  0  0  0  0  0  0  0
  -26.7676    1.0274   29.4716 C   0  0  0  0  0  0  0  0  0  0  0  0
  -28.2764    0.0268   31.0145 C   0  0  0  0  0  0  0  0  0  0  0  0
  -27.3287    1.0538   30.7535 C   0  0  0  0  0  0  0  0  0  0  0  0
  -25.7516    2.1742   29.2500 C   0  0  0  0  0  0  0  0  0  0  0  0
  -25.3424    2.8864   29.9134 C   0  0  0  0  0  0  0  0  0  0  0  0
  -25.3889    2.3820   27.7623 C   0  0  0  0  0  0  0  0  0  0  0  0
  -24.4000    3.3398   27.4412 C   0  0  0  0  0  0  0  0  0  0  0  0
  -24.3773    4.0581   29.7262 C   0  0  0  0  0  0  0  0  0  0  0  0
  -23.9797    4.2176   28.4308 C   0  0  0  0  0  0  0  0  0  0  0  0
  -29.4327   -1.9126   30.2012 N   0  0  0  0  0  0  0  0  0  0  0  0
  -30.4860   -1.8457   30.5480 C   0  0  0  0  0  0  0  0  0  0  0  0
  -31.2658   -3.1037   30.8131 C   0  0  0  0  0  0  0  0  0  0  0  0
  4  7  1  0
  2 13  1  0
 13 14  2  3
 14 15  1  0
  7  8  2  0
  8 11  1  0
 11 12  2  0
 12 10  1  0
 10  9  2  0
  9  7  1  0
  1  2  2  0
  2  5  1  0
  5  6  2  0
  6  4  1  0
  4  3  2  0
  3  1  1  0
M  END

$$$$
