No_4748-gen_results/8p0m/2024-11-26-14-13-15/
     RDKit          3D

 14 15  0  0  0  0  0  0  0  0999 V2000
  -28.0162   -0.8135   28.8779 C   0  0  0  0  0  0  0  0  0  0  0  0
  -28.4690   -0.7850   29.8287 C   0  0  0  0  0  0  0  0  0  0  0  0
  -26.5042   -0.7777   28.8766 C   0  0  0  0  0  0  0  0  0  0  0  0
  -25.8103   -0.8531   30.1028 C   0  0  0  0  0  0  0  0  0  0  0  0
  -27.9906   -0.8916   31.2257 C   0  0  0  0  0  0  0  0  0  0  0  0
  -26.6042   -0.8676   31.2652 C   0  0  0  0  0  0  0  0  0  0  0  0
  -29.9385   -0.8194   29.8358 O   0  0  0  0  0  0  0  0  0  0  0  0
  -30.5356   -0.1119   28.9448 C   0  0  0  0  0  0  0  0  0  0  0  0
  -31.4501   -0.5433   28.1111 C   0  0  0  0  0  0  0  0  0  0  0  0
  -31.8722   -1.9167   28.3390 C   0  0  0  0  0  0  0  0  0  0  0  0
  -32.7506   -2.5838   27.3852 C   0  0  0  0  0  0  0  0  0  0  0  0
  -33.1181   -1.8430   26.2089 C   0  0  0  0  0  0  0  0  0  0  0  0
  -32.6730   -0.5572   25.9871 C   0  0  0  0  0  0  0  0  0  0  0  0
  -31.7864    0.0770   26.9108 C   0  0  0  0  0  0  0  0  0  0  0  0
  2  7  1  0
  7  8  1  0
  8  9  1  0
  9 10  2  0
 10 11  1  0
 11 12  2  0
 12 13  1  0
 13 14  2  0
 14  9  1  0
  1  2  2  0
  2  5  1  0
  5  6  2  0
  6  4  1  0
  4  3  2  0
  3  1  1  0
M  END

$$$$
