No_4442-gen_results/8p0m/2024-11-26-14-13-15/
     RDKit          3D

 29 32  0  0  0  0  0  0  0  0999 V2000
  -28.1229   -1.3353   28.4874 O   0  0  0  0  0  0  0  0  0  0  0  0
  -27.4806   -0.4044   28.7094 C   0  0  0  0  0  0  0  0  0  0  0  0
  -27.1904    0.2460   29.5268 C   0  0  0  0  0  0  0  0  0  0  0  0
  -26.6871   -0.0001   27.4423 N   0  0  0  0  0  0  0  0  0  0  0  0
  -26.3501    1.4331   29.7418 C   0  0  0  0  0  0  0  0  0  0  0  0
  -25.8445    1.0999   27.3990 C   0  0  0  0  0  0  0  0  0  0  0  0
  -25.6695    1.8265   28.6078 C   0  0  0  0  0  0  0  0  0  0  0  0
  -27.8616   -0.0980   30.9546 C   0  0  0  0  0  0  0  0  0  0  0  0
  -29.0777    0.7053   31.1694 C   0  0  0  0  0  0  0  0  0  0  0  0
  -29.7865    0.3024   32.1263 C   0  0  0  0  0  0  0  0  0  0  0  0
  -29.4274   -0.8028   33.0351 C   0  0  0  0  0  0  0  0  0  0  0  0
  -28.2944   -1.4998   32.7556 C   0  0  0  0  0  0  0  0  0  0  0  0
  -27.4938   -1.1803   31.6667 C   0  0  0  0  0  0  0  0  0  0  0  0
  -25.1643    1.2494   26.3175 N   0  0  0  0  0  0  0  0  0  0  0  0
  -24.8779    0.5269   25.4204 C   0  0  0  0  0  0  0  0  0  0  0  0
  -24.4244    2.5423   26.1781 C   0  0  0  0  0  0  0  0  0  0  0  0
  -23.0534    2.5327   25.8845 C   0  0  0  0  0  0  0  0  0  0  0  0
  -25.1722    3.6661   25.5523 C   0  0  0  0  0  0  0  0  0  0  0  0
  -26.4139   -1.8536   31.3040 O   0  0  0  0  0  0  0  0  0  0  0  0
  -31.0124    1.1210   32.5505 C   0  0  0  0  0  0  0  0  0  0  0  0
  -32.0586    0.8793   32.1240 C   0  0  0  0  0  0  0  0  0  0  0  0
  -33.2552    1.7156   32.4064 C   0  0  0  0  0  0  0  0  0  0  0  0
  -33.0684    2.7694   33.3119 C   0  0  0  0  0  0  0  0  0  0  0  0
  -31.8540    3.0237   33.8295 C   0  0  0  0  0  0  0  0  0  0  0  0
  -30.7613    2.2388   33.4681 C   0  0  0  0  0  0  0  0  0  0  0  0
  -34.2727    3.5911   33.6614 C   0  0  0  0  0  0  0  0  0  0  0  0
  -34.0886    4.5286   34.5583 C   0  0  0  0  0  0  0  0  0  0  0  0
  -32.7458    4.7780   35.0887 C   0  0  0  0  0  0  0  0  0  0  0  0
  -31.6644    4.0856   34.7726 C   0  0  0  0  0  0  0  0  0  0  0  0
  1  2  2  0
  2  3  1  0
  2  4  1  0
  3  5  1  0
  6  7  1  0
  3  8  1  0
  6 14  1  0
 14 15  1  0
 14 16  1  0
 16 17  1  0
 16 18  1  0
 13 19  1  0
 10 20  1  0
  5  7  1  0
  6  4  1  0
 24 29  1  0
 29 28  2  0
 28 27  1  0
 27 26  2  0
 26 23  1  0
  8  9  2  0
  9 10  1  0
 10 11  2  0
 11 12  1  0
 12 13  2  0
 13  8  1  0
 20 21  2  0
 21 22  1  0
 22 23  2  0
 23 24  1  0
 24 25  2  0
 25 20  1  0
M  END

$$$$
