No_4773-gen_results/8p0m/2024-11-26-14-13-15/
     RDKit          3D

 18 20  0  0  0  0  0  0  0  0999 V2000
  -28.0162   -0.8135   28.8779 C   0  0  0  0  0  0  0  0  0  0  0  0
  -27.0636   -0.1190   28.6079 C   0  0  0  0  0  0  0  0  0  0  0  0
  -27.0010    0.6913   27.4910 C   0  0  0  0  0  0  0  0  0  0  0  0
  -28.1373    0.7363   26.6350 C   0  0  0  0  0  0  0  0  0  0  0  0
  -29.2360    0.0765   27.0690 C   0  0  0  0  0  0  0  0  0  0  0  0
  -29.2177   -0.6429   28.1747 C   0  0  0  0  0  0  0  0  0  0  0  0
  -30.3423    0.1617   26.2790 O   0  0  0  0  0  0  0  0  0  0  0  0
  -25.7291   -0.2039   29.3995 C   0  0  0  0  0  0  0  0  0  0  0  0
  -25.3146    0.8996   30.0369 N   0  0  0  0  0  0  0  0  0  0  0  0
  -24.3041    1.6669   29.7728 C   0  0  0  0  0  0  0  0  0  0  0  0
  -24.1949    2.8897   30.4505 C   0  0  0  0  0  0  0  0  0  0  0  0
  -23.3206    1.3420   28.7732 C   0  0  0  0  0  0  0  0  0  0  0  0
  -22.6307    0.2189   28.8613 C   0  0  0  0  0  0  0  0  0  0  0  0
  -24.6162   -0.7466   28.6382 C   0  0  0  0  0  0  0  0  0  0  0  0
  -23.3251   -0.7596   28.4826 C   0  0  0  0  0  0  0  0  0  0  0  0
  -26.1632    1.1816   31.1872 C   0  0  0  0  0  0  0  0  0  0  0  0
  -26.1758    2.4973   31.7184 C   0  0  0  0  0  0  0  0  0  0  0  0
  -24.9870    3.2532   31.5466 C   0  0  0  0  0  0  0  0  0  0  0  0
  5  7  1  0
  2  8  1  0
  8  9  1  0
  9 10  1  0
 10 12  1  0
 12 13  2  0
  8 14  1  0
 13 15  1  0
 14 15  2  0
  9 16  1  0
 11 18  1  0
 17 18  1  0
 10 11  1  0
 17 16  1  0
  1  2  2  0
  2  3  1  0
  3  4  2  0
  4  5  1  0
  5  6  2  0
  6  1  1  0
M  END

$$$$
