No_4180-gen_results/8p0m/2024-11-26-14-13-15/
     RDKit          3D

 14 15  0  0  0  0  0  0  0  0999 V2000
  -28.0162   -0.8135   28.8779 C   0  0  0  0  0  0  0  0  0  0  0  0
  -27.0636   -0.1189   28.6079 C   0  0  0  0  0  0  0  0  0  0  0  0
  -26.9716    0.7139   27.5060 C   0  0  0  0  0  0  0  0  0  0  0  0
  -28.1053    0.7744   26.6421 C   0  0  0  0  0  0  0  0  0  0  0  0
  -29.2041    0.1179   27.0477 C   0  0  0  0  0  0  0  0  0  0  0  0
  -29.2127   -0.6088   28.1281 C   0  0  0  0  0  0  0  0  0  0  0  0
  -30.4805    0.1928   26.3238 C   0  0  0  0  0  0  0  0  0  0  0  0
  -30.5368    0.1362   25.1332 N   0  0  0  0  0  0  0  0  0  0  0  0
  -31.5884    0.2297   26.9352 O   0  0  0  0  0  0  0  0  0  0  0  0
  -25.6847    1.4038   27.0911 C   0  0  0  0  0  0  0  0  0  0  0  0
  -24.5441    1.0653   27.7328 C   0  0  0  0  0  0  0  0  0  0  0  0
  -23.3252    1.8183   27.3671 C   0  0  0  0  0  0  0  0  0  0  0  0
  -23.4869    2.5787   26.2537 N   0  0  0  0  0  0  0  0  0  0  0  0
  -25.3775    2.3338   26.0500 C   0  0  0  0  0  0  0  0  0  0  0  0
  5  7  1  0
  7  8  1  0
  7  9  2  0
  3 10  1  0
 10 11  2  0
 11 12  1  0
 12 13  2  0
 10 14  1  0
 13 14  1  0
  1  2  2  0
  2  3  1  0
  3  4  2  0
  4  5  1  0
  5  6  2  0
  6  1  1  0
M  END

$$$$
