No_4800-gen_results/8p0m/2024-11-26-14-13-15/
     RDKit          3D

 25 27  0  0  0  0  0  0  0  0999 V2000
  -28.0162   -0.8135   28.8779 C   0  0  0  0  0  0  0  0  0  0  0  0
  -27.0636   -0.1190   28.6079 C   0  0  0  0  0  0  0  0  0  0  0  0
  -26.9287    1.1713   29.0083 C   0  0  0  0  0  0  0  0  0  0  0  0
  -27.9560    1.7411   29.7840 C   0  0  0  0  0  0  0  0  0  0  0  0
  -29.0569   -0.3271   29.7466 C   0  0  0  0  0  0  0  0  0  0  0  0
  -28.9828    0.9722   30.1516 C   0  0  0  0  0  0  0  0  0  0  0  0
  -25.9739   -0.5937   27.8380 N   0  0  0  0  0  0  0  0  0  0  0  0
  -24.6428   -0.1049   28.0009 C   0  0  0  0  0  0  0  0  0  0  0  0
  -24.5090    1.2057   27.9289 C   0  0  0  0  0  0  0  0  0  0  0  0
  -23.2331    1.8652   27.8841 C   0  0  0  0  0  0  0  0  0  0  0  0
  -25.6767    2.0335   28.5637 C   0  0  0  0  0  0  0  0  0  0  0  0
  -23.0066    2.8080   27.1682 O   0  0  0  0  0  0  0  0  0  0  0  0
  -22.1852    1.3415   28.5617 O   0  0  0  0  0  0  0  0  0  0  0  0
  -30.0687   -1.1688   30.0804 O   0  0  0  0  0  0  0  0  0  0  0  0
  -29.8732   -2.3105   30.7503 C   0  0  0  0  0  0  0  0  0  0  0  0
  -25.4898    3.3648   28.9691 C   0  0  0  0  0  0  0  0  0  0  0  0
  -26.1732    4.3185   28.2218 C   0  0  0  0  0  0  0  0  0  0  0  0
  -27.1860    4.6280   28.5348 O   0  0  0  0  0  0  0  0  0  0  0  0
  -25.4689    4.8792   27.2338 O   0  0  0  0  0  0  0  0  0  0  0  0
  -28.8213   -2.5722   31.3569 C   0  0  0  0  0  0  0  0  0  0  0  0
  -30.9701   -3.3015   30.6093 C   0  0  0  0  0  0  0  0  0  0  0  0
  -28.6760   -3.9250   31.8489 N   0  0  0  0  0  0  0  0  0  0  0  0
  -30.7817   -4.5839   31.1287 C   0  0  0  0  0  0  0  0  0  0  0  0
  -29.5676   -4.8548   31.8099 C   0  0  0  0  0  0  0  0  0  0  0  0
  -31.9961   -5.7613   31.0223 Cl  0  0  0  0  0  0  0  0  0  0  0  0
  9 10  1  0
 10 12  2  0
 10 13  1  0
  5 14  1  0
 14 15  1  0
 11 16  1  0
 16 17  1  0
 17 18  2  0
 17 19  1  0
 23 25  1  0
  3 11  1  0
 11  9  2  0
  9  8  1  0
  8  7  2  0
  7  2  1  0
 15 20  2  0
 20 22  1  0
 22 24  2  0
 24 23  1  0
 23 21  2  0
 21 15  1  0
  1  2  2  0
  2  3  1  0
  3  4  2  0
  4  6  1  0
  6  5  2  0
  5  1  1  0
M  END

$$$$
