No_4858-gen_results/8p0m/2024-11-26-14-13-15/
     RDKit          3D

 20 21  0  0  0  0  0  0  0  0999 V2000
  -28.0162   -0.8135   28.8779 C   0  0  0  0  0  0  0  0  0  0  0  0
  -28.4690   -0.7850   29.8287 C   0  0  0  0  0  0  0  0  0  0  0  0
  -28.1960    0.3478   28.0550 C   0  0  0  0  0  0  0  0  0  0  0  0
  -29.0191    1.3501   28.3782 C   0  0  0  0  0  0  0  0  0  0  0  0
  -29.6249    1.2683   29.6012 C   0  0  0  0  0  0  0  0  0  0  0  0
  -29.3821    0.1816   30.4004 C   0  0  0  0  0  0  0  0  0  0  0  0
  -27.4591    0.3787   26.7048 C   0  0  0  0  0  0  0  0  0  0  0  0
  -26.1348    0.3565   26.8183 C   0  0  0  0  0  0  0  0  0  0  0  0
  -25.3221    1.3161   27.3784 C   0  0  0  0  0  0  0  0  0  0  0  0
  -23.9245    1.1588   27.5553 C   0  0  0  0  0  0  0  0  0  0  0  0
  -23.4260    0.1199   28.3252 C   0  0  0  0  0  0  0  0  0  0  0  0
  -22.0599    0.0058   28.6147 C   0  0  0  0  0  0  0  0  0  0  0  0
  -21.1727    0.9308   28.0439 C   0  0  0  0  0  0  0  0  0  0  0  0
  -21.6671    2.0452   27.3294 C   0  0  0  0  0  0  0  0  0  0  0  0
  -23.0448    2.1471   27.1457 C   0  0  0  0  0  0  0  0  0  0  0  0
  -25.9164    2.6071   27.7959 C   0  0  0  0  0  0  0  0  0  0  0  0
  -25.8543    3.0033   29.0650 C   0  0  0  0  0  0  0  0  0  0  0  0
  -26.4503    4.2171   29.5001 C   0  0  0  0  0  0  0  0  0  0  0  0
  -25.9066    3.6484   26.8423 C   0  0  0  0  0  0  0  0  0  0  0  0
  -26.6636    4.5502   30.8571 C   0  0  0  0  0  0  0  0  0  0  0  0
  3  7  1  0
  7  8  1  0
  8  9  2  3
  9 10  1  0
  9 16  1  0
 16 17  1  0
 17 18  2  3
 16 19  1  0
 18 20  1  0
  1  2  2  0
  2  6  1  0
  6  5  2  0
  5  4  1  0
  4  3  2  0
  3  1  1  0
 10 11  2  0
 11 12  1  0
 12 13  2  0
 13 14  1  0
 14 15  2  0
 15 10  1  0
M  END

$$$$
