No_457-gen_results/8p0m/2024-11-26-14-13-15/
     RDKit          3D

 34 36  0  0  0  0  0  0  0  0999 V2000
  -28.0162   -0.8135   28.8779 C   0  0  0  0  0  0  0  0  0  0  0  0
  -27.0636   -0.1189   28.6079 C   0  0  0  0  0  0  0  0  0  0  0  0
  -26.8756    1.1325   28.9134 C   0  0  0  0  0  0  0  0  0  0  0  0
  -27.9014    1.8066   29.6436 C   0  0  0  0  0  0  0  0  0  0  0  0
  -29.0458   -0.2316   29.7181 C   0  0  0  0  0  0  0  0  0  0  0  0
  -28.9402    1.0517   30.0597 C   0  0  0  0  0  0  0  0  0  0  0  0
  -26.0385   -0.8477   27.9602 O   0  0  0  0  0  0  0  0  0  0  0  0
  -25.0055   -1.4082   28.7375 C   0  0  0  0  0  0  0  0  0  0  0  0
  -23.8323   -0.6857   28.9329 C   0  0  0  0  0  0  0  0  0  0  0  0
  -23.4261   -0.0737   29.7889 C   0  0  0  0  0  0  0  0  0  0  0  0
  -22.0660    0.4223   29.8885 C   0  0  0  0  0  0  0  0  0  0  0  0
  -21.1388    0.1041   28.8819 C   0  0  0  0  0  0  0  0  0  0  0  0
  -21.5679   -0.7255   27.8711 C   0  0  0  0  0  0  0  0  0  0  0  0
  -22.8097   -1.1053   27.9143 C   0  0  0  0  0  0  0  0  0  0  0  0
  -25.1699   -2.6778   29.0157 O   0  0  0  0  0  0  0  0  0  0  0  0
  -30.2075   -1.0906   30.1640 C   0  0  0  0  0  0  0  0  0  0  0  0
  -30.2273   -1.8764   30.9869 O   0  0  0  0  0  0  0  0  0  0  0  0
  -31.3391   -0.6398   29.6418 O   0  0  0  0  0  0  0  0  0  0  0  0
  -24.3005    0.3966   30.9803 C   0  0  0  0  0  0  0  0  0  0  0  0
  -24.3491   -0.2101   31.9610 O   0  0  0  0  0  0  0  0  0  0  0  0
  -24.5618    1.7098   31.0724 O   0  0  0  0  0  0  0  0  0  0  0  0
  -25.2791    2.2115   32.0803 C   0  0  0  0  0  0  0  0  0  0  0  0
  -25.2341    3.6661   32.2221 C   0  0  0  0  0  0  0  0  0  0  0  0
  -25.8535    4.3033   33.2965 C   0  0  0  0  0  0  0  0  0  0  0  0
  -26.7029    3.5002   34.1142 C   0  0  0  0  0  0  0  0  0  0  0  0
  -26.7671    2.1419   33.9373 C   0  0  0  0  0  0  0  0  0  0  0  0
  -26.0669    1.5198   32.9509 C   0  0  0  0  0  0  0  0  0  0  0  0
  -27.7989    3.2605   30.0239 C   0  0  0  0  0  0  0  0  0  0  0  0
  -28.4966    4.1335   29.1585 C   0  0  0  0  0  0  0  0  0  0  0  0
  -28.4910    5.4588   29.5049 C   0  0  0  0  0  0  0  0  0  0  0  0
  -27.6669    5.9653   30.5311 C   0  0  0  0  0  0  0  0  0  0  0  0
  -27.6852    7.3506   30.8554 C   0  0  0  0  0  0  0  0  0  0  0  0
  -28.5437    8.1343   30.1467 C   0  0  0  0  0  0  0  0  0  0  0  0
  -29.3366    7.7356   29.1566 C   0  0  0  0  0  0  0  0  0  0  0  0
  2  7  1  0
  7  8  1  0
  8  9  1  0
  8 15  2  0
  5 16  1  0
 16 17  2  0
 16 18  1  0
 10 19  1  0
 19 20  2  0
 19 21  1  0
 21 22  1  0
  4 28  1  0
 28 29  1  0
 29 30  2  3
 30 31  1  0
 31 32  2  3
 32 33  1  0
 33 34  2  0
 22 23  2  0
 23 24  1  0
 24 25  2  0
 25 26  1  0
 26 27  2  0
 27 22  1  0
  1  2  2  0
  2  3  1  0
  3  4  2  0
  4  6  1  0
  6  5  2  0
  5  1  1  0
  9 10  1  0
 10 11  2  0
 11 12  1  0
 12 13  2  0
 13 14  1  0
 14  9  2  0
M  END

$$$$
