No_4149-gen_results/8p0m/2024-11-26-14-13-15/
     RDKit          3D

 21 22  0  0  0  0  0  0  0  0999 V2000
  -28.0162   -0.8135   28.8779 C   0  0  0  0  0  0  0  0  0  0  0  0
  -28.4690   -0.7850   29.8287 C   0  0  0  0  0  0  0  0  0  0  0  0
  -28.1816    0.4277   28.1134 C   0  0  0  0  0  0  0  0  0  0  0  0
  -27.4498    0.6435   26.8500 C   0  0  0  0  0  0  0  0  0  0  0  0
  -26.1815    0.0357   26.7145 C   0  0  0  0  0  0  0  0  0  0  0  0
  -25.7800   -0.9326   27.6938 C   0  0  0  0  0  0  0  0  0  0  0  0
  -26.5568   -1.2134   28.7413 C   0  0  0  0  0  0  0  0  0  0  0  0
  -29.6101   -0.2783   30.1938 N   0  0  0  0  0  0  0  0  0  0  0  0
  -28.0389   -1.6599   30.8482 O   0  0  0  0  0  0  0  0  0  0  0  0
  -30.4672   -0.5472   31.3820 C   0  0  0  0  0  0  0  0  0  0  0  0
  -25.2000    0.5634   25.4270 Cl  0  0  0  0  0  0  0  0  0  0  0  0
  -30.1652   -0.6488   32.4744 C   0  0  0  0  0  0  0  0  0  0  0  0
  -31.8550   -0.7633   30.8845 C   0  0  0  0  0  0  0  0  0  0  0  0
  -28.9966   -0.0959   33.0276 N   0  0  0  0  0  0  0  0  0  0  0  0
  -28.6157    1.1152   32.7226 C   0  0  0  0  0  0  0  0  0  0  0  0
  -27.2321    1.4548   32.9453 C   0  0  0  0  0  0  0  0  0  0  0  0
  -26.4244    0.4980   33.1942 C   0  0  0  0  0  0  0  0  0  0  0  0
  -24.9791    0.7649   33.1648 C   0  0  0  0  0  0  0  0  0  0  0  0
  -24.5360    1.9518   32.5938 C   0  0  0  0  0  0  0  0  0  0  0  0
  -25.3822    2.9878   32.2180 C   0  0  0  0  0  0  0  0  0  0  0  0
  -26.7516    2.7048   32.3180 C   0  0  0  0  0  0  0  0  0  0  0  0
  1  2  1  0
  2  8  1  0
  2  9  2  0
  8 10  1  0
  5 11  1  0
 10 12  1  0
 10 13  1  0
 12 14  1  0
 14 15  1  0
 15 16  1  0
 16 17  2  0
 17 18  1  0
 18 19  2  0
 19 20  1  0
 20 21  2  0
 21 16  1  0
  1  3  2  0
  3  4  1  0
  4  5  2  0
  5  6  1  0
  6  7  2  0
  7  1  1  0
M  END

$$$$
