No_4813-gen_results/8p0m/2024-11-26-14-13-15/
     RDKit          3D

 35 38  0  0  0  0  0  0  0  0999 V2000
  -28.0162   -0.8135   28.8779 C   0  0  0  0  0  0  0  0  0  0  0  0
  -27.0636   -0.1190   28.6079 C   0  0  0  0  0  0  0  0  0  0  0  0
  -26.9287    1.1713   29.0083 C   0  0  0  0  0  0  0  0  0  0  0  0
  -25.7702    2.0341   28.6884 C   0  0  0  0  0  0  0  0  0  0  0  0
  -24.7141    1.4431   27.9188 C   0  0  0  0  0  0  0  0  0  0  0  0
  -24.8590    0.0783   27.5836 C   0  0  0  0  0  0  0  0  0  0  0  0
  -25.9647   -0.6606   27.9164 C   0  0  0  0  0  0  0  0  0  0  0  0
  -27.9820   -1.6112   30.1028 N   0  0  0  0  0  0  0  0  0  0  0  0
  -23.5351    2.1704   27.5550 C   0  0  0  0  0  0  0  0  0  0  0  0
  -22.3779    2.1928   27.8323 N   0  0  0  0  0  0  0  0  0  0  0  0
  -23.8224    2.9736   26.4404 O   0  0  0  0  0  0  0  0  0  0  0  0
  -29.2085   -0.6065   28.4878 O   0  0  0  0  0  0  0  0  0  0  0  0
  -29.0541   -2.4968   30.5743 C   0  0  0  0  0  0  0  0  0  0  0  0
  -26.6958   -1.8760   30.7901 C   0  0  0  0  0  0  0  0  0  0  0  0
  -29.4121   -2.1686   31.8796 C   0  0  0  0  0  0  0  0  0  0  0  0
  -30.2422   -3.0820   32.4711 C   0  0  0  0  0  0  0  0  0  0  0  0
  -30.9121   -3.0425   33.5269 C   0  0  0  0  0  0  0  0  0  0  0  0
  -31.7755   -4.0390   33.9949 C   0  0  0  0  0  0  0  0  0  0  0  0
  -31.8890   -5.2039   33.2227 C   0  0  0  0  0  0  0  0  0  0  0  0
  -31.1859   -5.3442   32.0609 C   0  0  0  0  0  0  0  0  0  0  0  0
  -30.3756   -4.3550   31.6814 C   0  0  0  0  0  0  0  0  0  0  0  0
  -29.6591   -4.4789   30.4243 C   0  0  0  0  0  0  0  0  0  0  0  0
  -29.3141   -3.3660   29.7916 O   0  0  0  0  0  0  0  0  0  0  0  0
  -22.0090    1.3392   28.8440 N   0  0  0  0  0  0  0  0  0  0  0  0
  -31.2934   -6.4999   31.4302 O   0  0  0  0  0  0  0  0  0  0  0  0
  -31.7608   -6.6186   30.2551 C   0  0  0  0  0  0  0  0  0  0  0  0
  -32.9626   -7.2721   30.1803 C   0  0  0  0  0  0  0  0  0  0  0  0
  -33.6089   -7.2297   29.1533 O   0  0  0  0  0  0  0  0  0  0  0  0
  -33.1796   -8.3432   30.9514 O   0  0  0  0  0  0  0  0  0  0  0  0
  -29.1794   -0.8774   32.5436 C   0  0  0  0  0  0  0  0  0  0  0  0
  -30.1328    0.1164   32.3751 C   0  0  0  0  0  0  0  0  0  0  0  0
  -29.8941    1.3546   32.9150 C   0  0  0  0  0  0  0  0  0  0  0  0
  -28.7406    1.6005   33.6659 C   0  0  0  0  0  0  0  0  0  0  0  0
  -27.8026    0.5530   33.8640 C   0  0  0  0  0  0  0  0  0  0  0  0
  -28.0534   -0.6738   33.2608 C   0  0  0  0  0  0  0  0  0  0  0  0
  1  2  1  0
  1  8  1  0
  5  9  1  0
  9 10  1  0
  9 11  2  0
  1 12  2  0
  8 13  1  0
  8 14  1  0
 13 15  1  0
 15 16  1  0
 21 22  1  0
 13 23  1  0
 22 23  1  0
 10 24  1  0
 20 25  1  0
 25 26  1  0
 26 27  1  0
 27 28  2  0
 27 29  1  0
 15 30  1  0
  2  3  2  0
  3  4  1  0
  4  5  2  0
  5  6  1  0
  6  7  2  0
  7  2  1  0
 30 31  2  0
 31 32  1  0
 32 33  2  0
 33 34  1  0
 34 35  2  0
 35 30  1  0
 16 17  2  0
 17 18  1  0
 18 19  2  0
 19 20  1  0
 20 21  2  0
 21 16  1  0
M  END

$$$$
