No_4158-gen_results/8p0m/2024-11-26-14-13-15/
     RDKit          3D

 10 10  0  0  0  0  0  0  0  0999 V2000
  -28.1229   -1.3353   28.4874 O   0  0  0  0  0  0  0  0  0  0  0  0
  -27.4806   -0.4044   28.7094 C   0  0  0  0  0  0  0  0  0  0  0  0
  -27.1904    0.2460   29.5268 C   0  0  0  0  0  0  0  0  0  0  0  0
  -26.6871   -0.0001   27.4423 N   0  0  0  0  0  0  0  0  0  0  0  0
  -27.6511    0.1259   30.8798 C   0  0  0  0  0  0  0  0  0  0  0  0
  -25.8775    0.7523   27.3474 C   0  0  0  0  0  0  0  0  0  0  0  0
  -25.5246    1.5777   28.4620 C   0  0  0  0  0  0  0  0  0  0  0  0
  -26.1055    1.3312   29.6080 C   0  0  0  0  0  0  0  0  0  0  0  0
  -27.3046    0.3934   31.8860 C   0  0  0  0  0  0  0  0  0  0  0  0
  -26.2833    1.5676   31.9133 C   0  0  0  0  0  0  0  0  0  0  0  0
  1  2  2  0
  2  3  1  0
  2  4  1  0
  3  5  1  0
  6  7  1  0
  3  8  1  0
  5  9  2  3
  9 10  1  0
  8  7  1  0
  6  4  1  0
M  END

$$$$
