No_4673-gen_results/8p0m/2024-11-26-14-13-15/
     RDKit          3D

 27 30  0  0  0  0  0  0  0  0999 V2000
  -28.0162   -0.8135   28.8779 C   0  0  0  0  0  0  0  0  0  0  0  0
  -27.0636   -0.1189   28.6079 C   0  0  0  0  0  0  0  0  0  0  0  0
  -26.9716    0.7139   27.5060 C   0  0  0  0  0  0  0  0  0  0  0  0
  -28.1053    0.7744   26.6421 C   0  0  0  0  0  0  0  0  0  0  0  0
  -29.2041    0.1179   27.0477 C   0  0  0  0  0  0  0  0  0  0  0  0
  -29.2127   -0.6088   28.1281 C   0  0  0  0  0  0  0  0  0  0  0  0
  -25.7106    1.4519   27.1380 C   0  0  0  0  0  0  0  0  0  0  0  0
  -24.6052    0.9253   27.6902 C   0  0  0  0  0  0  0  0  0  0  0  0
  -23.3376    1.6509   27.5494 C   0  0  0  0  0  0  0  0  0  0  0  0
  -22.1760    1.2278   28.2868 C   0  0  0  0  0  0  0  0  0  0  0  0
  -22.1814    0.0854   29.0261 C   0  0  0  0  0  0  0  0  0  0  0  0
  -23.3607   -0.6934   29.1008 C   0  0  0  0  0  0  0  0  0  0  0  0
  -24.5306   -0.2411   28.4874 C   0  0  0  0  0  0  0  0  0  0  0  0
  -25.7679   -0.5942   29.1071 N   0  0  0  0  0  0  0  0  0  0  0  0
  -25.7420   -1.5598   30.1612 C   0  0  0  0  0  0  0  0  0  0  0  0
  -25.7469    2.3613   26.2873 O   0  0  0  0  0  0  0  0  0  0  0  0
  -30.4298    0.3201   26.2592 C   0  0  0  0  0  0  0  0  0  0  0  0
  -31.1359   -0.6216   25.9627 O   0  0  0  0  0  0  0  0  0  0  0  0
  -30.9362    1.5055   26.0986 O   0  0  0  0  0  0  0  0  0  0  0  0
  -25.2350   -2.7438   29.7500 C   0  0  0  0  0  0  0  0  0  0  0  0
  -25.8481   -3.5209   28.7292 C   0  0  0  0  0  0  0  0  0  0  0  0
  -25.2064   -4.8057   28.6536 C   0  0  0  0  0  0  0  0  0  0  0  0
  -25.7428   -5.6599   29.0188 C   0  0  0  0  0  0  0  0  0  0  0  0
  -26.9470   -5.3659   29.7726 C   0  0  0  0  0  0  0  0  0  0  0  0
  -27.0439   -3.7127   29.0414 N   0  0  0  0  0  0  0  0  0  0  0  0
  -23.6980   -4.7228   28.3208 C   0  0  0  0  0  0  0  0  0  0  0  0
  -22.9999   -3.7240   28.7237 O   0  0  0  0  0  0  0  0  0  0  0  0
  3  7  1  0
  7  8  1  0
  2 14  1  0
 13 14  1  0
 14 15  1  0
  7 16  2  0
  5 17  1  0
 17 18  2  0
 17 19  1  0
 15 20  1  0
 20 21  1  0
 21 22  2  0
 22 23  1  0
 23 24  1  0
 21 25  1  0
 24 25  1  0
 22 26  1  0
 26 27  2  0
  1  2  2  0
  2  3  1  0
  3  4  2  0
  4  5  1  0
  5  6  2  0
  6  1  1  0
  8  9  2  0
  9 10  1  0
 10 11  2  0
 11 12  1  0
 12 13  2  0
 13  8  1  0
M  END

$$$$
