No_4781-gen_results/8p0m/2024-11-26-14-13-15/
     RDKit          3D

 17 19  0  0  0  0  0  0  0  0999 V2000
  -28.0162   -0.8135   28.8779 C   0  0  0  0  0  0  0  0  0  0  0  0
  -27.0636   -0.1189   28.6079 C   0  0  0  0  0  0  0  0  0  0  0  0
  -25.7923   -0.4302   29.0761 C   0  0  0  0  0  0  0  0  0  0  0  0
  -25.5756   -1.5654   29.9363 C   0  0  0  0  0  0  0  0  0  0  0  0
  -26.7354   -2.3004   30.2173 C   0  0  0  0  0  0  0  0  0  0  0  0
  -27.9184   -1.9537   29.7629 C   0  0  0  0  0  0  0  0  0  0  0  0
  -28.9649   -2.6957   30.0722 F   0  0  0  0  0  0  0  0  0  0  0  0
  -24.6808    0.5315   28.7646 C   0  0  0  0  0  0  0  0  0  0  0  0
  -24.6691    1.7998   29.3181 C   0  0  0  0  0  0  0  0  0  0  0  0
  -25.1496    2.0384   30.4117 C   0  0  0  0  0  0  0  0  0  0  0  0
  -25.2218    3.4285   30.9586 C   0  0  0  0  0  0  0  0  0  0  0  0
  -25.6339    4.4386   30.0966 C   0  0  0  0  0  0  0  0  0  0  0  0
  -25.2363    4.1952   28.7510 C   0  0  0  0  0  0  0  0  0  0  0  0
  -25.2291    2.8343   28.2529 C   0  0  0  0  0  0  0  0  0  0  0  0
  -23.3080   -0.1021   29.3580 C   0  0  0  0  0  0  0  0  0  0  0  0
  -24.5314    0.5815   27.2581 C   0  0  0  0  0  0  0  0  0  0  0  0
  -24.7602    2.4502   26.9761 C   0  0  0  0  0  0  0  0  0  0  0  0
  6  7  1  0
  3  8  1  0
  8  9  1  0
  8 15  1  0
  8 16  1  0
 14 17  1  0
 16 17  1  0
  1  2  2  0
  2  3  1  0
  3  4  2  0
  4  5  1  0
  5  6  2  0
  6  1  1  0
  9 10  2  0
 10 11  1  0
 11 12  2  0
 12 13  1  0
 13 14  2  0
 14  9  1  0
M  END

$$$$
