No_4168-gen_results/8p0m/2024-11-26-14-13-15/
     RDKit          3D

 13 14  0  0  0  0  0  0  0  0999 V2000
  -28.0162   -0.8135   28.8779 C   0  0  0  0  0  0  0  0  0  0  0  0
  -27.0636   -0.1189   28.6079 C   0  0  0  0  0  0  0  0  0  0  0  0
  -26.8756    1.1325   28.9134 C   0  0  0  0  0  0  0  0  0  0  0  0
  -27.9014    1.8066   29.6436 C   0  0  0  0  0  0  0  0  0  0  0  0
  -29.0458   -0.2316   29.7181 C   0  0  0  0  0  0  0  0  0  0  0  0
  -28.9402    1.0517   30.0597 C   0  0  0  0  0  0  0  0  0  0  0  0
  -25.9795   -0.6907   27.8753 O   0  0  0  0  0  0  0  0  0  0  0  0
  -24.9446    0.0551   27.3507 C   0  0  0  0  0  0  0  0  0  0  0  0
  -25.7322    1.9094   28.4194 C   0  0  0  0  0  0  0  0  0  0  0  0
  -24.7023    1.2863   27.7371 C   0  0  0  0  0  0  0  0  0  0  0  0
  -23.5251    1.9329   27.2187 C   0  0  0  0  0  0  0  0  0  0  0  0
  -22.3646    2.2812   27.2296 N   0  0  0  0  0  0  0  0  0  0  0  0
  -25.5913    3.3381   28.2492 C   0  0  0  0  0  0  0  0  0  0  0  0
  2  7  1  0
  7  8  1  0
  3  9  1  0
  8 10  2  0
  9 10  1  0
 10 11  1  0
 11 12  3  0
  9 13  1  0
  1  2  2  0
  2  3  1  0
  3  4  2  0
  4  6  1  0
  6  5  2  0
  5  1  1  0
M  END

$$$$
