No_4952-gen_results/8p0m/2024-11-26-14-13-15/
     RDKit          3D

 21 23  0  0  0  0  0  0  0  0999 V2000
  -28.0162   -0.8135   28.8779 C   0  0  0  0  0  0  0  0  0  0  0  0
  -28.4690   -0.7850   29.8287 C   0  0  0  0  0  0  0  0  0  0  0  0
  -27.1356    0.2359   28.5352 C   0  0  0  0  0  0  0  0  0  0  0  0
  -26.8745    1.2825   29.3982 C   0  0  0  0  0  0  0  0  0  0  0  0
  -27.5070    1.2380   30.6295 C   0  0  0  0  0  0  0  0  0  0  0  0
  -28.3293    0.1745   30.9350 C   0  0  0  0  0  0  0  0  0  0  0  0
  -26.4077    0.3070   27.2259 C   0  0  0  0  0  0  0  0  0  0  0  0
  -25.7128    1.4905   26.9213 C   0  0  0  0  0  0  0  0  0  0  0  0
  -25.4301    2.4538   27.8655 C   0  0  0  0  0  0  0  0  0  0  0  0
  -26.0916    2.4163   29.0923 C   0  0  0  0  0  0  0  0  0  0  0  0
  -25.8331    3.5594   30.0163 C   0  0  0  0  0  0  0  0  0  0  0  0
  -25.9556    4.7662   29.5597 O   0  0  0  0  0  0  0  0  0  0  0  0
  -25.3309    3.3318   31.2445 N   0  0  0  0  0  0  0  0  0  0  0  0
  -25.0421    4.4453   32.1968 C   0  0  0  0  0  0  0  0  0  0  0  0
  -24.9183    2.0272   31.7831 C   0  0  0  0  0  0  0  0  0  0  0  0
  -25.9361    4.5561   33.3202 C   0  0  0  0  0  0  0  0  0  0  0  0
  -25.7471    5.6106   34.0624 C   0  0  0  0  0  0  0  0  0  0  0  0
  -24.7294    6.5800   33.8335 C   0  0  0  0  0  0  0  0  0  0  0  0
  -23.8802    6.4139   32.7035 C   0  0  0  0  0  0  0  0  0  0  0  0
  -24.0636    5.3041   31.9294 C   0  0  0  0  0  0  0  0  0  0  0  0
  -22.8861    7.2167   32.5759 F   0  0  0  0  0  0  0  0  0  0  0  0
 10 11  1  0
 11 12  2  0
 11 13  1  0
 13 14  1  0
 13 15  1  0
 19 21  1  0
  4 10  2  0
 10  9  1  0
  9  8  2  0
  8  7  1  0
  7  3  2  0
  1  2  2  0
  2  6  1  0
  6  5  2  0
  5  4  1  0
  4  3  1  0
  3  1  1  0
 14 16  2  0
 16 17  1  0
 17 18  2  0
 18 19  1  0
 19 20  2  0
 20 14  1  0
M  END

$$$$
