No_458-gen_results/8p0m/2024-11-26-14-13-15/
     RDKit          3D

 12 12  0  0  0  0  0  0  0  0999 V2000
  -28.0162   -0.8135   28.8779 C   0  0  0  0  0  0  0  0  0  0  0  0
  -27.0636   -0.1190   28.6079 C   0  0  0  0  0  0  0  0  0  0  0  0
  -26.9716    0.7139   27.5060 C   0  0  0  0  0  0  0  0  0  0  0  0
  -28.1053    0.7744   26.6421 C   0  0  0  0  0  0  0  0  0  0  0  0
  -29.2008    0.1044   27.0527 C   0  0  0  0  0  0  0  0  0  0  0  0
  -29.2096   -0.6029   28.1853 C   0  0  0  0  0  0  0  0  0  0  0  0
  -30.2807    0.2156   26.2913 F   0  0  0  0  0  0  0  0  0  0  0  0
  -25.7162   -0.2143   29.4079 C   0  0  0  0  0  0  0  0  0  0  0  0
  -24.6830   -0.1796   28.8801 O   0  0  0  0  0  0  0  0  0  0  0  0
  -25.7687   -0.0037   30.7628 N   0  0  0  0  0  0  0  0  0  0  0  0
  -24.6087   -0.0550   31.5484 C   0  0  0  0  0  0  0  0  0  0  0  0
  -23.5790   -0.1266   30.9543 C   0  0  0  0  0  0  0  0  0  0  0  0
  5  7  1  0
  2  8  1  0
  8  9  2  0
  8 10  1  0
 10 11  1  0
 11 12  1  0
  1  2  2  0
  2  3  1  0
  3  4  2  0
  4  5  1  0
  5  6  2  0
  6  1  1  0
M  END

$$$$
