No_46-gen_results/8p0m/2024-11-26-14-13-15/
     RDKit          3D

 19 20  0  0  0  0  0  0  0  0999 V2000
  -28.0162   -0.8135   28.8779 C   0  0  0  0  0  0  0  0  0  0  0  0
  -26.9857   -0.3274   28.4842 Cl  0  0  0  0  0  0  0  0  0  0  0  0
  -29.2685    0.0525   28.7317 C   0  0  0  0  0  0  0  0  0  0  0  0
  -30.4028   -0.3544   29.3643 C   0  0  0  0  0  0  0  0  0  0  0  0
  -30.4561   -1.5809   30.1089 C   0  0  0  0  0  0  0  0  0  0  0  0
  -29.3204   -2.3417   30.3186 C   0  0  0  0  0  0  0  0  0  0  0  0
  -28.1306   -1.9251   29.7665 C   0  0  0  0  0  0  0  0  0  0  0  0
  -27.0159   -2.6580   29.9756 O   0  0  0  0  0  0  0  0  0  0  0  0
  -29.3806   -3.4824   31.0829 O   0  0  0  0  0  0  0  0  0  0  0  0
  -31.6530    0.4020   29.1467 C   0  0  0  0  0  0  0  0  0  0  0  0
  -32.3007    0.4210   28.2790 O   0  0  0  0  0  0  0  0  0  0  0  0
  -31.9602    1.1251   30.2763 O   0  0  0  0  0  0  0  0  0  0  0  0
  -29.3162   -4.6548   30.4312 C   0  0  0  0  0  0  0  0  0  0  0  0
  -30.4930   -5.4869   30.6703 C   0  0  0  0  0  0  0  0  0  0  0  0
  -30.6262   -6.0220   31.8710 C   0  0  0  0  0  0  0  0  0  0  0  0
  -31.6583   -6.9498   32.0990 C   0  0  0  0  0  0  0  0  0  0  0  0
  -32.4590   -7.3078   31.0052 C   0  0  0  0  0  0  0  0  0  0  0  0
  -32.2292   -6.8380   29.7469 C   0  0  0  0  0  0  0  0  0  0  0  0
  -31.1564   -5.9427   29.5660 C   0  0  0  0  0  0  0  0  0  0  0  0
  1  2  1  0
  7  8  1  0
  6  9  1  0
  4 10  1  0
 10 11  2  0
 10 12  1  0
  9 13  1  0
 13 14  1  0
 14 15  2  0
 15 16  1  0
 16 17  2  0
 17 18  1  0
 18 19  2  0
 19 14  1  0
  1  3  2  0
  3  4  1  0
  4  5  2  0
  5  6  1  0
  6  7  2  0
  7  1  1  0
M  END

$$$$
