No_4527-gen_results/8p0m/2024-11-26-14-13-15/
     RDKit          3D

 17 19  0  0  0  0  0  0  0  0999 V2000
  -28.0544   -1.0498   28.7246 N   0  0  0  0  0  0  0  0  0  0  0  0
  -27.7460   -0.0733   29.0098 C   0  0  0  0  0  0  0  0  0  0  0  0
  -27.1737    0.7565   28.1070 C   0  0  0  0  0  0  0  0  0  0  0  0
  -25.8200    1.2606   28.2149 C   0  0  0  0  0  0  0  0  0  0  0  0
  -25.3544    1.5792   29.1553 C   0  0  0  0  0  0  0  0  0  0  0  0
  -26.0062    1.0642   30.4405 C   0  0  0  0  0  0  0  0  0  0  0  0
  -27.0427    0.1771   30.2859 C   0  0  0  0  0  0  0  0  0  0  0  0
  -27.8055    0.7363   26.7151 C   0  0  0  0  0  0  0  0  0  0  0  0
  -29.1583    0.8333   26.6963 C   0  0  0  0  0  0  0  0  0  0  0  0
  -27.0387    0.6125   25.5258 C   0  0  0  0  0  0  0  0  0  0  0  0
  -29.7994    0.7699   25.4298 C   0  0  0  0  0  0  0  0  0  0  0  0
  -27.6450    0.5547   24.3050 C   0  0  0  0  0  0  0  0  0  0  0  0
  -29.0089    0.6536   24.2144 C   0  0  0  0  0  0  0  0  0  0  0  0
  -23.8400    1.5327   29.4268 C   0  0  0  0  0  0  0  0  0  0  0  0
  -23.0348    1.6911   28.1853 C   0  0  0  0  0  0  0  0  0  0  0  0
  -23.7162    1.6615   26.9357 C   0  0  0  0  0  0  0  0  0  0  0  0
  -25.0027    1.3674   26.9179 C   0  0  0  0  0  0  0  0  0  0  0  0
  1  2  1  0
  3  8  1  0
  8  9  2  0
  9 11  1  0
 11 13  2  0
 13 12  1  0
 12 10  2  0
 10  8  1  0
  2  3  2  0
  3  4  1  0
  5  6  1  0
  6  7  2  0
  7  2  1  0
  4  5  2  0
  5 14  1  0
 14 15  2  0
 15 16  1  0
 16 17  2  0
 17  4  1  0
M  END

$$$$
