No_4820-gen_results/8p0m/2024-11-26-14-13-15/
     RDKit          3D

 11 11  0  0  0  0  0  0  0  0999 V2000
  -28.0162   -0.8135   28.8779 C   0  0  0  0  0  0  0  0  0  0  0  0
  -27.0636   -0.1189   28.6079 C   0  0  0  0  0  0  0  0  0  0  0  0
  -26.8756    1.1325   28.9134 C   0  0  0  0  0  0  0  0  0  0  0  0
  -27.9014    1.8066   29.6436 C   0  0  0  0  0  0  0  0  0  0  0  0
  -28.9449    1.0388   30.0360 C   0  0  0  0  0  0  0  0  0  0  0  0
  -29.0273   -0.2890   29.7051 C   0  0  0  0  0  0  0  0  0  0  0  0
  -25.4194    1.8534   28.4752 Cl  0  0  0  0  0  0  0  0  0  0  0  0
  -30.1715   -1.1765   30.0876 C   0  0  0  0  0  0  0  0  0  0  0  0
  -30.6972   -0.7479   31.2020 F   0  0  0  0  0  0  0  0  0  0  0  0
  -31.1089   -1.1530   29.1916 F   0  0  0  0  0  0  0  0  0  0  0  0
  -29.7671   -2.4400   30.2803 F   0  0  0  0  0  0  0  0  0  0  0  0
  3  7  1  0
  6  8  1  0
  8  9  1  0
  8 10  1  0
  8 11  1  0
  1  2  2  0
  2  3  1  0
  3  4  2  0
  4  5  1  0
  5  6  2  0
  6  1  1  0
M  END

$$$$
