No_4098-gen_results/8p0m/2024-11-26-14-13-15/
     RDKit          3D

 16 17  0  0  0  0  0  0  0  0999 V2000
  -28.0162   -0.8135   28.8779 C   0  0  0  0  0  0  0  0  0  0  0  0
  -27.0636   -0.1190   28.6079 C   0  0  0  0  0  0  0  0  0  0  0  0
  -27.0010    0.6913   27.4910 C   0  0  0  0  0  0  0  0  0  0  0  0
  -25.8548    1.4825   27.0830 C   0  0  0  0  0  0  0  0  0  0  0  0
  -24.6901    1.4526   27.8807 C   0  0  0  0  0  0  0  0  0  0  0  0
  -23.4878    2.1451   27.6011 C   0  0  0  0  0  0  0  0  0  0  0  0
  -25.8122   -0.1656   29.4299 C   0  0  0  0  0  0  0  0  0  0  0  0
  -24.6457    0.5887   29.0806 C   0  0  0  0  0  0  0  0  0  0  0  0
  -29.2382   -0.1000   29.3740 C   0  0  0  0  0  0  0  0  0  0  0  0
  -30.3892   -0.8509   29.7934 C   0  0  0  0  0  0  0  0  0  0  0  0
  -23.6483    3.2627   27.0766 F   0  0  0  0  0  0  0  0  0  0  0  0
  -22.6425    1.4287   26.7456 F   0  0  0  0  0  0  0  0  0  0  0  0
  -22.7399    2.4140   28.7084 F   0  0  0  0  0  0  0  0  0  0  0  0
  -30.1543   -2.1382   30.2131 C   0  0  0  0  0  0  0  0  0  0  0  0
  -28.8958   -2.7628   30.1277 C   0  0  0  0  0  0  0  0  0  0  0  0
  -27.8176   -2.0580   29.6193 C   0  0  0  0  0  0  0  0  0  0  0  0
  1  2  1  0
  5  6  1  0
  6 11  1  0
  6 12  1  0
  6 13  1  0
  2  3  2  0
  3  4  1  0
  4  5  2  0
  5  8  1  0
  8  7  2  0
  7  2  1  0
  1  9  2  0
  9 10  1  0
 10 14  2  0
 14 15  1  0
 15 16  2  0
 16  1  1  0
M  END

$$$$
