No_4941-gen_results/8p0m/2024-11-26-14-13-15/
     RDKit          3D

 29 31  0  0  0  0  0  0  0  0999 V2000
  -28.0162   -0.8135   28.8779 C   0  0  0  0  0  0  0  0  0  0  0  0
  -28.4690   -0.7850   29.8287 C   0  0  0  0  0  0  0  0  0  0  0  0
  -28.1960    0.3478   28.0550 C   0  0  0  0  0  0  0  0  0  0  0  0
  -27.4421    0.5100   26.7946 C   0  0  0  0  0  0  0  0  0  0  0  0
  -26.1689   -0.0794   26.6787 C   0  0  0  0  0  0  0  0  0  0  0  0
  -25.7312   -0.9607   27.6875 C   0  0  0  0  0  0  0  0  0  0  0  0
  -26.5043   -1.2222   28.7582 C   0  0  0  0  0  0  0  0  0  0  0  0
  -28.3432   -2.0040   30.7789 C   0  0  0  0  0  0  0  0  0  0  0  0
  -27.1022   -2.6901   30.6797 C   0  0  0  0  0  0  0  0  0  0  0  0
  -26.1200   -2.3552   29.6514 C   0  0  0  0  0  0  0  0  0  0  0  0
  -24.9752   -3.1271   29.4458 C   0  0  0  0  0  0  0  0  0  0  0  0
  -23.8019   -2.6251   29.0905 C   0  0  0  0  0  0  0  0  0  0  0  0
  -25.2051   -4.5220   29.3429 C   0  0  0  0  0  0  0  0  0  0  0  0
  -26.3453   -5.1330   29.5238 N   0  0  0  0  0  0  0  0  0  0  0  0
  -24.1184   -5.4161   29.1194 C   0  0  0  0  0  0  0  0  0  0  0  0
  -27.8457    1.4574   25.7750 C   0  0  0  0  0  0  0  0  0  0  0  0
  -28.1813    0.9770   24.5354 C   0  0  0  0  0  0  0  0  0  0  0  0
  -27.9151    2.8667   26.0936 C   0  0  0  0  0  0  0  0  0  0  0  0
  -26.8431    3.5348   26.5715 C   0  0  0  0  0  0  0  0  0  0  0  0
  -25.5807    3.2830   26.3071 C   0  0  0  0  0  0  0  0  0  0  0  0
  -24.4730    3.9741   26.9614 C   0  0  0  0  0  0  0  0  0  0  0  0
  -24.7581    4.9820   27.8420 C   0  0  0  0  0  0  0  0  0  0  0  0
  -27.1650    4.6138   27.5749 C   0  0  0  0  0  0  0  0  0  0  0  0
  -26.0485    5.2596   28.1823 C   0  0  0  0  0  0  0  0  0  0  0  0
  -29.1593    3.4917   25.7858 C   0  0  0  0  0  0  0  0  0  0  0  0
  -26.2955    6.3308   29.2018 C   0  0  0  0  0  0  0  0  0  0  0  0
  -26.1954    6.2120   30.3067 O   0  0  0  0  0  0  0  0  0  0  0  0
  -26.6533    7.4825   28.5916 O   0  0  0  0  0  0  0  0  0  0  0  0
  -29.6293    3.3066   24.5803 O   0  0  0  0  0  0  0  0  0  0  0  0
 10 11  1  0
 11 12  2  0
 11 13  1  0
 13 14  1  0
 13 15  1  0
  4 16  1  0
 16 17  1  0
 16 18  1  0
 18 19  1  0
 18 25  1  0
 24 26  1  0
 26 27  2  0
 26 28  1  0
 25 29  2  0
 19 20  2  0
 20 21  1  0
 21 22  2  0
 22 24  1  0
 24 23  2  0
 23 19  1  0
  1  2  2  0
  2  8  1  0
  8  9  2  0
  9 10  1  0
 10  7  2  0
  1  3  1  0
  3  4  2  0
  4  5  1  0
  5  6  2  0
  6  7  1  0
  7  1  1  0
M  END

$$$$
