No_4148-gen_results/8p0m/2024-11-26-14-13-15/
     RDKit          3D

 20 21  0  0  0  0  0  0  0  0999 V2000
  -28.0162   -0.8135   28.8779 C   0  0  0  0  0  0  0  0  0  0  0  0
  -28.4690   -0.7850   29.8287 C   0  0  0  0  0  0  0  0  0  0  0  0
  -26.5042   -0.7777   28.8766 C   0  0  0  0  0  0  0  0  0  0  0  0
  -25.6540   -0.6597   27.7191 C   0  0  0  0  0  0  0  0  0  0  0  0
  -27.9180   -0.9374   31.1824 C   0  0  0  0  0  0  0  0  0  0  0  0
  -26.5423   -0.9399   31.2606 C   0  0  0  0  0  0  0  0  0  0  0  0
  -25.7832   -0.8935   30.1201 C   0  0  0  0  0  0  0  0  0  0  0  0
  -24.3096   -0.3015   27.8531 C   0  0  0  0  0  0  0  0  0  0  0  0
  -23.6669   -0.4595   29.0986 C   0  0  0  0  0  0  0  0  0  0  0  0
  -24.3700   -0.6645   30.2027 C   0  0  0  0  0  0  0  0  0  0  0  0
  -22.1946   -0.2290   29.1314 C   0  0  0  0  0  0  0  0  0  0  0  0
  -21.2882    0.5665   28.7715 N   0  0  0  0  0  0  0  0  0  0  0  0
  -21.6155   -1.3981   29.6842 O   0  0  0  0  0  0  0  0  0  0  0  0
  -29.9234   -0.8668   29.8619 O   0  0  0  0  0  0  0  0  0  0  0  0
  -30.6162    0.2453   30.2363 C   0  0  0  0  0  0  0  0  0  0  0  0
  -31.6009    0.4327   29.7412 C   0  0  0  0  0  0  0  0  0  0  0  0
  -32.2537    1.1719   29.5587 C   0  0  0  0  0  0  0  0  0  0  0  0
  -33.5426    1.3061   28.8027 C   0  0  0  0  0  0  0  0  0  0  0  0
  -33.9145    0.1084   28.2214 C   0  0  0  0  0  0  0  0  0  0  0  0
  -33.1729   -0.9914   28.2940 C   0  0  0  0  0  0  0  0  0  0  0  0
  9 11  1  0
 11 12  2  0
 11 13  1  0
  2 14  1  0
 14 15  1  0
 15 16  2  3
 16 17  1  0
 17 18  2  3
 18 19  1  0
 19 20  2  0
  1  2  2  0
  2  5  1  0
  5  6  2  0
  6  7  1  0
  3  1  1  0
  3  4  2  0
  4  8  1  0
  8  9  2  0
  9 10  1  0
 10  7  2  0
  7  3  1  0
M  END

$$$$
