No_4567-gen_results/8p0m/2024-11-26-14-13-15/
     RDKit          3D

 24 25  0  0  0  0  0  0  0  0999 V2000
  -28.0162   -0.8135   28.8779 C   0  0  0  0  0  0  0  0  0  0  0  0
  -28.4690   -0.7850   29.8287 C   0  0  0  0  0  0  0  0  0  0  0  0
  -27.1356    0.2359   28.5352 C   0  0  0  0  0  0  0  0  0  0  0  0
  -26.8745    1.2825   29.3982 C   0  0  0  0  0  0  0  0  0  0  0  0
  -27.5070    1.2380   30.6295 C   0  0  0  0  0  0  0  0  0  0  0  0
  -28.3293    0.1745   30.9350 C   0  0  0  0  0  0  0  0  0  0  0  0
  -26.3848    0.5209   27.2533 C   0  0  0  0  0  0  0  0  0  0  0  0
  -26.1694    1.4950   26.7677 C   0  0  0  0  0  0  0  0  0  0  0  0
  -25.8547    2.6655   27.6822 C   0  0  0  0  0  0  0  0  0  0  0  0
  -26.4041    2.5783   28.9775 C   0  0  0  0  0  0  0  0  0  0  0  0
  -25.2011    3.8959   27.1720 C   0  0  0  0  0  0  0  0  0  0  0  0
  -25.1635    4.9490   27.8801 N   0  0  0  0  0  0  0  0  0  0  0  0
  -24.2621    3.7515   26.2425 O   0  0  0  0  0  0  0  0  0  0  0  0
  -24.5884    6.2603   27.4065 C   0  0  0  0  0  0  0  0  0  0  0  0
  -25.5854    7.3922   27.5229 C   0  0  0  0  0  0  0  0  0  0  0  0
  -25.8356    7.7580   28.8525 C   0  0  0  0  0  0  0  0  0  0  0  0
  -24.6638    7.9769   29.9201 Br  0  0  0  0  0  0  0  0  0  0  0  0
  -27.2348    7.9027   29.1788 C   0  0  0  0  0  0  0  0  0  0  0  0
  -27.5478    7.8523   30.5136 C   0  0  0  0  0  0  0  0  0  0  0  0
  -26.8517    8.0631   31.3790 C   0  0  0  0  0  0  0  0  0  0  0  0
  -27.1861    7.9739   32.8470 C   0  0  0  0  0  0  0  0  0  0  0  0
  -26.2223    8.1999   33.8550 C   0  0  0  0  0  0  0  0  0  0  0  0
  -24.8722    8.3707   33.4745 C   0  0  0  0  0  0  0  0  0  0  0  0
  -24.5289    8.4083   32.2313 C   0  0  0  0  0  0  0  0  0  0  0  0
  9 11  1  0
 11 12  1  0
 11 13  2  0
 12 14  1  0
 14 15  1  0
 15 16  1  0
 16 17  1  0
 16 18  1  0
 18 19  1  0
 19 20  2  3
 20 21  1  0
 21 22  2  3
 22 23  1  0
 23 24  2  0
  4 10  2  0
 10  9  1  0
  9  8  2  0
  8  7  1  0
  7  3  2  0
  1  2  2  0
  2  6  1  0
  6  5  2  0
  5  4  1  0
  4  3  1  0
  3  1  1  0
M  END

$$$$
