No_4743-gen_results/8p0m/2024-11-26-14-13-15/
     RDKit          3D

 24 27  0  0  0  0  0  0  0  0999 V2000
  -28.0162   -0.8135   28.8779 C   0  0  0  0  0  0  0  0  0  0  0  0
  -28.4690   -0.7850   29.8287 C   0  0  0  0  0  0  0  0  0  0  0  0
  -28.1816    0.4277   28.1134 C   0  0  0  0  0  0  0  0  0  0  0  0
  -28.9841    1.4155   28.5154 C   0  0  0  0  0  0  0  0  0  0  0  0
  -28.3375   -2.0481   30.7873 C   0  0  0  0  0  0  0  0  0  0  0  0
  -29.5615    1.2930   29.7416 C   0  0  0  0  0  0  0  0  0  0  0  0
  -29.3196    0.1647   30.4451 C   0  0  0  0  0  0  0  0  0  0  0  0
  -28.9434   -3.0348   30.7310 O   0  0  0  0  0  0  0  0  0  0  0  0
  -27.2194   -2.0572   31.5945 O   0  0  0  0  0  0  0  0  0  0  0  0
  -27.4470    0.4995   26.7471 C   0  0  0  0  0  0  0  0  0  0  0  0
  -28.0095    0.8764   25.6263 C   0  0  0  0  0  0  0  0  0  0  0  0
  -29.3486    1.2279   25.6484 C   0  0  0  0  0  0  0  0  0  0  0  0
  -30.0937    1.3480   26.6141 C   0  0  0  0  0  0  0  0  0  0  0  0
  -29.8436    1.6209   27.8329 C   0  0  0  0  0  0  0  0  0  0  0  0
  -26.1844   -0.1109   26.7701 N   0  0  0  0  0  0  0  0  0  0  0  0
  -25.3253    0.3673   25.8715 C   0  0  0  0  0  0  0  0  0  0  0  0
  -23.9298    0.5613   26.3279 C   0  0  0  0  0  0  0  0  0  0  0  0
  -23.4297    1.9171   26.1596 C   0  0  0  0  0  0  0  0  0  0  0  0
  -22.1944    2.1934   26.7552 C   0  0  0  0  0  0  0  0  0  0  0  0
  -21.7112    1.3366   27.8443 C   0  0  0  0  0  0  0  0  0  0  0  0
  -22.4618    0.2047   28.1598 C   0  0  0  0  0  0  0  0  0  0  0  0
  -23.5762   -0.0757   27.5108 C   0  0  0  0  0  0  0  0  0  0  0  0
  -27.1989    1.0876   24.4747 C   0  0  0  0  0  0  0  0  0  0  0  0
  -25.8633    1.4064   24.9150 C   0  0  0  0  0  0  0  0  0  0  0  0
  2  5  1  0
  5  8  2  0
  5  9  1  0
  3 10  1  0
 11 12  1  0
 12 13  2  0
  4 14  1  0
 13 14  1  0
 16 17  1  0
 17 18  2  0
 18 19  1  0
 19 20  2  0
 20 21  1  0
 21 22  2  0
 22 17  1  0
 10 11  2  0
 11 23  1  0
 23 24  2  0
 24 16  1  0
 16 15  2  0
 15 10  1  0
  1  2  2  0
  2  7  1  0
  7  6  2  0
  6  4  1  0
  4  3  2  0
  3  1  1  0
M  END

$$$$
