No_4321-gen_results/8p0m/2024-11-26-14-13-15/
     RDKit          3D

 35 38  0  0  0  0  0  0  0  0999 V2000
  -28.0162   -0.8135   28.8779 C   0  0  0  0  0  0  0  0  0  0  0  0
  -28.4690   -0.7850   29.8287 C   0  0  0  0  0  0  0  0  0  0  0  0
  -26.5042   -0.7777   28.8766 C   0  0  0  0  0  0  0  0  0  0  0  0
  -25.8103   -0.8531   30.1028 C   0  0  0  0  0  0  0  0  0  0  0  0
  -27.9906   -0.8916   31.2257 C   0  0  0  0  0  0  0  0  0  0  0  0
  -24.3976   -0.8364   30.1775 C   0  0  0  0  0  0  0  0  0  0  0  0
  -26.5754   -0.8899   31.2661 C   0  0  0  0  0  0  0  0  0  0  0  0
  -23.7964    0.4357   29.9090 C   0  0  0  0  0  0  0  0  0  0  0  0
  -22.4944    0.4757   29.3632 C   0  0  0  0  0  0  0  0  0  0  0  0
  -21.7757   -0.7201   29.1864 C   0  0  0  0  0  0  0  0  0  0  0  0
  -23.6121   -2.0037   29.9274 C   0  0  0  0  0  0  0  0  0  0  0  0
  -22.3403   -1.9014   29.3467 C   0  0  0  0  0  0  0  0  0  0  0  0
  -25.6945   -0.7215   27.6424 C   0  0  0  0  0  0  0  0  0  0  0  0
  -24.5281    1.6709   30.1935 C   0  0  0  0  0  0  0  0  0  0  0  0
  -24.6128    2.1270   31.3255 O   0  0  0  0  0  0  0  0  0  0  0  0
  -25.4449    2.0860   29.2817 O   0  0  0  0  0  0  0  0  0  0  0  0
  -26.1294    3.2355   29.5557 C   0  0  0  0  0  0  0  0  0  0  0  0
  -26.7685    3.3039   30.5645 C   0  0  0  0  0  0  0  0  0  0  0  0
  -27.6452    4.5070   30.8433 C   0  0  0  0  0  0  0  0  0  0  0  0
  -27.8025    5.3870   29.7919 C   0  0  0  0  0  0  0  0  0  0  0  0
  -26.2602    4.1240   28.4202 C   0  0  0  0  0  0  0  0  0  0  0  0
  -27.0526    5.2464   28.6443 C   0  0  0  0  0  0  0  0  0  0  0  0
  -30.0809   -0.7560   29.8370 C   0  0  0  0  0  0  0  0  0  0  0  0
  -30.7808   -1.4711   30.3416 O   0  0  0  0  0  0  0  0  0  0  0  0
  -30.5742    0.2497   29.1186 O   0  0  0  0  0  0  0  0  0  0  0  0
  -28.4005    4.5932   32.1140 C   0  0  0  0  0  0  0  0  0  0  0  0
  -28.9771    3.6453   32.6098 C   0  0  0  0  0  0  0  0  0  0  0  0
  -29.1615    2.4634   32.1830 C   0  0  0  0  0  0  0  0  0  0  0  0
  -29.9205    1.4174   32.8755 C   0  0  0  0  0  0  0  0  0  0  0  0
  -30.3693    1.7304   34.1018 C   0  0  0  0  0  0  0  0  0  0  0  0
  -30.2215    2.9637   34.6648 C   0  0  0  0  0  0  0  0  0  0  0  0
  -29.5594    3.9605   34.0098 C   0  0  0  0  0  0  0  0  0  0  0  0
  -28.2698    5.9961   32.6972 C   0  0  0  0  0  0  0  0  0  0  0  0
  -27.7510    6.5067   33.9383 Cl  0  0  0  0  0  0  0  0  0  0  0  0
  -29.4097    6.8375   32.2794 C   0  0  0  0  0  0  0  0  0  0  0  0
  4  6  1  0
  3 13  1  0
  8 14  1  0
 14 15  2  0
 14 16  1  0
 16 17  1  0
  2 23  1  0
 23 24  2  0
 23 25  1  0
 19 26  1  0
 26 27  1  0
 26 33  1  0
 33 34  1  0
 33 35  1  0
 27 28  2  0
 28 29  1  0
 29 30  2  0
 30 31  1  0
 31 32  2  0
 32 27  1  0
 17 18  2  0
 18 19  1  0
 19 20  2  0
 20 22  1  0
 22 21  2  0
 21 17  1  0
  6  8  1  0
  8  9  2  0
  9 10  1  0
 10 12  2  0
 12 11  1  0
 11  6  2  0
  1  2  2  0
  2  5  1  0
  5  7  2  0
  7  4  1  0
  4  3  2  0
  3  1  1  0
M  END

$$$$
