No_4922-gen_results/8p0m/2024-11-26-14-13-15/
     RDKit          3D

  5  4  0  0  0  0  0  0  0  0999 V2000
  -28.0162   -0.8135   28.8779 C   0  0  0  0  0  0  0  0  0  0  0  0
  -27.0636   -0.1189   28.6079 C   0  0  0  0  0  0  0  0  0  0  0  0
  -26.9528    1.3495   28.8384 Cl  0  0  0  0  0  0  0  0  0  0  0  0
  -28.3373   -0.6768   30.3443 C   0  0  0  0  0  0  0  0  0  0  0  0
  -28.5503    0.6365   30.7411 C   0  0  0  0  0  0  0  0  0  0  0  0
  1  2  1  0
  2  3  1  0
  1  4  1  0
  4  5  1  0
M  END

$$$$
