No_4913-gen_results/8p0m/2024-11-26-14-13-15/
     RDKit          3D

 14 14  0  0  0  0  0  0  0  0999 V2000
  -28.0162   -0.8135   28.8779 C   0  0  0  0  0  0  0  0  0  0  0  0
  -27.0636   -0.1190   28.6079 C   0  0  0  0  0  0  0  0  0  0  0  0
  -25.7923   -0.4302   29.0761 C   0  0  0  0  0  0  0  0  0  0  0  0
  -25.2700   -0.0487   30.0123 C   0  0  0  0  0  0  0  0  0  0  0  0
  -28.5191   -0.6302   30.0918 C   0  0  0  0  0  0  0  0  0  0  0  0
  -27.9298   -0.1452   30.9924 C   0  0  0  0  0  0  0  0  0  0  0  0
  -26.4103   -0.0876   31.3883 C   0  0  0  0  0  0  0  0  0  0  0  0
  -26.9609    0.7261   27.3635 C   0  0  0  0  0  0  0  0  0  0  0  0
  -25.8949    0.8095   26.1622 Cl  0  0  0  0  0  0  0  0  0  0  0  0
  -28.0776    1.7116   27.1181 C   0  0  0  0  0  0  0  0  0  0  0  0
  -28.0408    2.7481   27.7868 C   0  0  0  0  0  0  0  0  0  0  0  0
  -28.4357    3.6863   27.9971 C   0  0  0  0  0  0  0  0  0  0  0  0
  -29.6500    4.2330   27.5354 C   0  0  0  0  0  0  0  0  0  0  0  0
  -30.0884    3.2313   26.4970 C   0  0  0  0  0  0  0  0  0  0  0  0
  1  2  1  0
  2  3  1  0
  3  4  2  0
  1  5  1  0
  5  6  1  0
  4  7  1  0
  6  7  2  0
  2  8  1  0
  8  9  1  0
  8 10  1  0
 10 11  2  3
 11 12  1  0
 12 13  2  3
 13 14  1  0
M  END

$$$$
