No_4906-gen_results/8p0m/2024-11-26-14-13-15/
     RDKit          3D

 23 23  0  0  0  0  0  0  0  0999 V2000
  -28.0162   -0.8135   28.8779 C   0  0  0  0  0  0  0  0  0  0  0  0
  -27.0636   -0.1189   28.6079 C   0  0  0  0  0  0  0  0  0  0  0  0
  -26.9716    0.7139   27.5060 C   0  0  0  0  0  0  0  0  0  0  0  0
  -28.1053    0.7744   26.6421 C   0  0  0  0  0  0  0  0  0  0  0  0
  -29.2008    0.1044   27.0527 C   0  0  0  0  0  0  0  0  0  0  0  0
  -28.0219   -1.5899   30.0879 C   0  0  0  0  0  0  0  0  0  0  0  0
  -29.1640   -0.6394   28.1484 C   0  0  0  0  0  0  0  0  0  0  0  0
  -27.4296   -1.9753   30.9385 Cl  0  0  0  0  0  0  0  0  0  0  0  0
  -30.3644    0.2058   26.1394 C   0  0  0  0  0  0  0  0  0  0  0  0
  -31.2476   -0.4214   26.2552 O   0  0  0  0  0  0  0  0  0  0  0  0
  -30.3552    1.0326   25.0839 O   0  0  0  0  0  0  0  0  0  0  0  0
  -29.4705   -2.1761   30.1570 O   0  0  0  0  0  0  0  0  0  0  0  0
  -29.5213   -3.4658   30.6257 C   0  0  0  0  0  0  0  0  0  0  0  0
  -30.6271   -4.1235   29.9474 C   0  0  0  0  0  0  0  0  0  0  0  0
  -31.0552   -3.8512   29.0257 O   0  0  0  0  0  0  0  0  0  0  0  0
  -31.0600   -5.2754   30.5214 O   0  0  0  0  0  0  0  0  0  0  0  0
  -25.6727    1.3580   27.1152 C   0  0  0  0  0  0  0  0  0  0  0  0
  -24.5304    0.7689   27.9054 Cl  0  0  0  0  0  0  0  0  0  0  0  0
  -25.5466    2.3218   26.1561 C   0  0  0  0  0  0  0  0  0  0  0  0
  -24.2869    2.6171   25.6848 C   0  0  0  0  0  0  0  0  0  0  0  0
  -26.6597    3.0315   25.6348 C   0  0  0  0  0  0  0  0  0  0  0  0
  -23.2428    2.7312   26.5358 C   0  0  0  0  0  0  0  0  0  0  0  0
  -22.6471    1.7824   27.3847 C   0  0  0  0  0  0  0  0  0  0  0  0
  1  6  1  0
  6  8  1  0
  5  9  1  0
  9 10  1  0
  9 11  2  0
  6 12  1  0
 12 13  1  0
 13 14  1  0
 14 15  1  0
 14 16  2  0
  3 17  1  0
 17 18  1  0
 17 19  1  0
 19 20  1  0
 19 21  1  0
 20 22  1  0
 22 23  1  0
  1  2  2  0
  2  3  1  0
  3  4  2  0
  4  5  1  0
  5  7  2  0
  7  1  1  0
M  END

$$$$
