No_4937-gen_results/8p0m/2024-11-26-14-13-15/
     RDKit          3D

 35 37  0  0  0  0  0  0  0  0999 V2000
  -28.0162   -0.8135   28.8779 C   0  0  0  0  0  0  0  0  0  0  0  0
  -28.4690   -0.7850   29.8287 C   0  0  0  0  0  0  0  0  0  0  0  0
  -26.5042   -0.7777   28.8766 C   0  0  0  0  0  0  0  0  0  0  0  0
  -25.8103   -0.8531   30.1028 C   0  0  0  0  0  0  0  0  0  0  0  0
  -27.9906   -0.8916   31.2257 C   0  0  0  0  0  0  0  0  0  0  0  0
  -26.6042   -0.8676   31.2652 C   0  0  0  0  0  0  0  0  0  0  0  0
  -30.0739   -0.8360   29.8615 C   0  0  0  0  0  0  0  0  0  0  0  0
  -30.6825   -0.0696   30.6918 O   0  0  0  0  0  0  0  0  0  0  0  0
  -30.6262   -1.5652   29.0172 O   0  0  0  0  0  0  0  0  0  0  0  0
  -25.7548   -0.7665   27.7968 F   0  0  0  0  0  0  0  0  0  0  0  0
  -24.4627   -0.7986   30.1795 N   0  0  0  0  0  0  0  0  0  0  0  0
  -23.5065   -0.3993   29.8603 C   0  0  0  0  0  0  0  0  0  0  0  0
  -23.0792    0.8459   30.4159 C   0  0  0  0  0  0  0  0  0  0  0  0
  -22.7548   -0.8667   28.6816 C   0  0  0  0  0  0  0  0  0  0  0  0
  -21.6297   -0.1149   28.3151 C   0  0  0  0  0  0  0  0  0  0  0  0
  -22.6022    1.6900   29.6926 N   0  0  0  0  0  0  0  0  0  0  0  0
  -21.6842    1.2213   28.6681 C   0  0  0  0  0  0  0  0  0  0  0  0
  -24.0565   -2.1746   31.0762 C   0  0  0  0  0  0  0  0  0  0  0  0
  -23.9933    1.3996   31.3504 N   0  0  0  0  0  0  0  0  0  0  0  0
  -24.8348    2.4961   31.4066 C   0  0  0  0  0  0  0  0  0  0  0  0
  -25.3884    2.8410   32.6457 C   0  0  0  0  0  0  0  0  0  0  0  0
  -25.1446    3.1483   30.2355 C   0  0  0  0  0  0  0  0  0  0  0  0
  -26.1135    4.1692   30.1905 C   0  0  0  0  0  0  0  0  0  0  0  0
  -26.3316    3.9307   32.6560 C   0  0  0  0  0  0  0  0  0  0  0  0
  -26.5470    4.8280   28.9946 C   0  0  0  0  0  0  0  0  0  0  0  0
  -26.6874    4.5408   31.4520 C   0  0  0  0  0  0  0  0  0  0  0  0
  -25.8651    5.0720   28.0532 N   0  0  0  0  0  0  0  0  0  0  0  0
  -25.0326    6.0230   28.1450 C   0  0  0  0  0  0  0  0  0  0  0  0
  -25.6613    4.1642   26.9947 C   0  0  0  0  0  0  0  0  0  0  0  0
  -25.0683    2.9233   27.0978 C   0  0  0  0  0  0  0  0  0  0  0  0
  -24.8649    2.0340   26.0402 C   0  0  0  0  0  0  0  0  0  0  0  0
  -25.0039    0.8701   25.9219 C   0  0  0  0  0  0  0  0  0  0  0  0
  -24.8025    0.1263   24.7338 C   0  0  0  0  0  0  0  0  0  0  0  0
  -27.2258    5.8608   29.3326 F   0  0  0  0  0  0  0  0  0  0  0  0
  -26.9261    4.3392   33.9542 C   0  0  0  0  0  0  0  0  0  0  0  0
  2  7  1  0
  7  8  2  0
  7  9  1  0
  3 10  1  0
  4 11  1  0
 11 12  1  0
 11 18  1  0
 13 19  1  0
 19 20  1  0
 23 25  1  0
 25 27  1  0
 27 28  1  0
 27 29  1  0
 29 30  1  0
 30 31  1  0
 31 32  1  0
 32 33  2  0
 25 34  1  0
 24 35  1  0
 20 21  2  0
 21 24  1  0
 24 26  2  0
 26 23  1  0
 23 22  2  0
 22 20  1  0
  1  2  2  0
  2  5  1  0
  5  6  2  0
  6  4  1  0
  4  3  2  0
  3  1  1  0
 12 13  2  0
 13 16  1  0
 16 17  2  0
 17 15  1  0
 15 14  2  0
 14 12  1  0
M  END

$$$$
