No_4481-gen_results/8p0m/2024-11-26-14-13-15/
     RDKit          3D

  7  6  0  0  0  0  0  0  0  0999 V2000
  -28.0162   -0.8135   28.8779 C   0  0  0  0  0  0  0  0  0  0  0  0
  -28.4690   -0.7850   29.8287 C   0  0  0  0  0  0  0  0  0  0  0  0
  -27.0871    0.2903   28.6377 C   0  0  0  0  0  0  0  0  0  0  0  0
  -26.2688    0.3977   27.4231 C   0  0  0  0  0  0  0  0  0  0  0  0
  -28.3707    0.0720   31.0217 C   0  0  0  0  0  0  0  0  0  0  0  0
  -27.4727    1.1392   30.8029 C   0  0  0  0  0  0  0  0  0  0  0  0
  -26.7836    1.2178   29.6346 C   0  0  0  0  0  0  0  0  0  0  0  0
  1  2  1  0
  1  3  3  0
  3  4  1  0
  2  5  2  3
  5  6  1  0
  6  7  1  0
M  END

$$$$
