No_4335-gen_results/8p0m/2024-11-26-14-13-15/
     RDKit          3D

 12 13  0  0  0  0  0  0  0  0999 V2000
  -28.0162   -0.8135   28.8779 C   0  0  0  0  0  0  0  0  0  0  0  0
  -27.0636   -0.1189   28.6079 C   0  0  0  0  0  0  0  0  0  0  0  0
  -25.7647   -0.3897   29.0360 C   0  0  0  0  0  0  0  0  0  0  0  0
  -24.5516    0.4058   28.7646 C   0  0  0  0  0  0  0  0  0  0  0  0
  -24.6957    1.4480   27.7988 C   0  0  0  0  0  0  0  0  0  0  0  0
  -26.0010    1.6784   27.2965 C   0  0  0  0  0  0  0  0  0  0  0  0
  -27.0736    0.9682   27.6500 C   0  0  0  0  0  0  0  0  0  0  0  0
  -29.2300   -0.0643   29.3001 C   0  0  0  0  0  0  0  0  0  0  0  0
  -29.8754    0.4865   28.2428 C   0  0  0  0  0  0  0  0  0  0  0  0
  -29.4141    1.5136   27.3661 C   0  0  0  0  0  0  0  0  0  0  0  0
  -28.2757    1.6873   27.1516 C   0  0  0  0  0  0  0  0  0  0  0  0
  -25.3734   -1.5892   29.8640 C   0  0  0  0  0  0  0  0  0  0  0  0
  1  8  1  0
  8  9  2  0
  9 10  1  0
  7 11  1  0
 10 11  1  0
  3 12  1  0
  1  2  1  0
  2  3  2  0
  3  4  1  0
  4  5  2  0
  5  6  1  0
  6  7  2  0
  7  2  1  0
M  END

$$$$
