No_4346-gen_results/8p0m/2024-11-26-14-13-15/
     RDKit          3D

 25 27  0  0  0  0  0  0  0  0999 V2000
  -28.0162   -0.8135   28.8779 C   0  0  0  0  0  0  0  0  0  0  0  0
  -27.0636   -0.1189   28.6079 C   0  0  0  0  0  0  0  0  0  0  0  0
  -25.7647   -0.3897   29.0360 C   0  0  0  0  0  0  0  0  0  0  0  0
  -25.5296   -1.5302   29.9014 C   0  0  0  0  0  0  0  0  0  0  0  0
  -26.6577   -2.2915   30.2035 C   0  0  0  0  0  0  0  0  0  0  0  0
  -27.8548   -1.9555   29.7630 C   0  0  0  0  0  0  0  0  0  0  0  0
  -24.5441    0.4126   28.7379 C   0  0  0  0  0  0  0  0  0  0  0  0
  -23.3231    0.0476   29.0499 C   0  0  0  0  0  0  0  0  0  0  0  0
  -23.2018   -1.2373   29.7566 C   0  0  0  0  0  0  0  0  0  0  0  0
  -24.2259   -1.9647   30.2122 C   0  0  0  0  0  0  0  0  0  0  0  0
  -22.1144    0.7738   28.7208 C   0  0  0  0  0  0  0  0  0  0  0  0
  -21.8390    1.7454   28.1989 N   0  0  0  0  0  0  0  0  0  0  0  0
  -20.8737   -0.0807   28.8582 N   0  0  0  0  0  0  0  0  0  0  0  0
  -29.2612   -2.8735   30.2535 Cl  0  0  0  0  0  0  0  0  0  0  0  0
  -27.1954    1.0706   27.6545 C   0  0  0  0  0  0  0  0  0  0  0  0
  -27.8105    0.8510   26.4899 C   0  0  0  0  0  0  0  0  0  0  0  0
  -28.5755   -0.0264   26.2167 C   0  0  0  0  0  0  0  0  0  0  0  0
  -29.3275   -0.1237   24.9344 C   0  0  0  0  0  0  0  0  0  0  0  0
  -30.2423   -1.1565   24.7106 C   0  0  0  0  0  0  0  0  0  0  0  0
  -27.5403    1.8978   25.4828 C   0  0  0  0  0  0  0  0  0  0  0  0
  -29.0354    0.8372   23.9593 C   0  0  0  0  0  0  0  0  0  0  0  0
  -28.1624    1.8652   24.2554 C   0  0  0  0  0  0  0  0  0  0  0  0
  -31.4279   -0.8612   25.1097 O   0  0  0  0  0  0  0  0  0  0  0  0
  -29.8394   -2.3457   24.4916 O   0  0  0  0  0  0  0  0  0  0  0  0
  -27.2738    2.2158   28.3399 O   0  0  0  0  0  0  0  0  0  0  0  0
  8 11  1  0
 11 12  2  0
 11 13  1  0
  6 14  1  0
  2 15  1  0
 15 16  1  0
 18 19  1  0
 19 23  2  0
 19 24  1  0
 15 25  2  0
  1  2  2  0
  2  3  1  0
  4  5  1  0
  5  6  2  0
  6  1  1  0
 16 17  2  0
 17 18  1  0
 18 21  2  0
 21 22  1  0
 22 20  2  0
 20 16  1  0
  3  4  2  0
  4 10  1  0
 10  9  2  0
  9  8  1  0
  8  7  2  0
  7  3  1  0
M  END

$$$$
