No_4639-gen_results/8p0m/2024-11-26-14-13-15/
     RDKit          3D

  8  7  0  0  0  0  0  0  0  0999 V2000
  -28.0727   -1.2542   28.5316 F   0  0  0  0  0  0  0  0  0  0  0  0
  -28.2662   -0.4214   29.1931 C   0  0  0  0  0  0  0  0  0  0  0  0
  -29.4445    0.0759   29.3394 C   0  0  0  0  0  0  0  0  0  0  0  0
  -30.4824   -0.5033   28.5961 C   0  0  0  0  0  0  0  0  0  0  0  0
  -31.4705    0.1795   28.1376 C   0  0  0  0  0  0  0  0  0  0  0  0
  -31.7886    1.4060   28.8380 C   0  0  0  0  0  0  0  0  0  0  0  0
  -30.9077    1.9587   29.7024 C   0  0  0  0  0  0  0  0  0  0  0  0
  -31.1458    3.1846   30.3585 C   0  0  0  0  0  0  0  0  0  0  0  0
  1  2  1  0
  2  3  2  3
  3  4  1  0
  4  5  2  3
  5  6  1  0
  6  7  2  3
  7  8  1  0
M  END

$$$$
