No_4473-gen_results/8p0m/2024-11-26-14-13-15/
     RDKit          3D

 35 35  0  0  0  0  0  0  0  0999 V2000
  -28.0727   -1.2542   28.5316 F   0  0  0  0  0  0  0  0  0  0  0  0
  -27.0607   -0.6291   28.8721 C   0  0  0  0  0  0  0  0  0  0  0  0
  -26.4722   -0.5474   28.0086 F   0  0  0  0  0  0  0  0  0  0  0  0
  -27.3730    0.6843   29.5311 C   0  0  0  0  0  0  0  0  0  0  0  0
  -26.6425    1.0972   30.0910 O   0  0  0  0  0  0  0  0  0  0  0  0
  -26.4687   -1.3771   29.8544 F   0  0  0  0  0  0  0  0  0  0  0  0
  -28.4802    0.4632   30.3622 F   0  0  0  0  0  0  0  0  0  0  0  0
  -26.1185    2.4369   29.8440 C   0  0  0  0  0  0  0  0  0  0  0  0
  -24.8251    2.4298   29.2429 C   0  0  0  0  0  0  0  0  0  0  0  0
  -24.6699    2.9462   28.0506 O   0  0  0  0  0  0  0  0  0  0  0  0
  -23.9446    2.2544   27.0319 C   0  0  0  0  0  0  0  0  0  0  0  0
  -26.0269    3.3346   31.1597 C   0  0  0  0  0  0  0  0  0  0  0  0
  -26.2334    4.4139   31.2649 O   0  0  0  0  0  0  0  0  0  0  0  0
  -26.1263    2.4991   32.3811 N   0  0  0  0  0  0  0  0  0  0  0  0
  -25.9853    1.1234   32.5574 C   0  0  0  0  0  0  0  0  0  0  0  0
  -26.9779    0.5581   33.5009 C   0  0  0  0  0  0  0  0  0  0  0  0
  -27.1400   -0.7842   33.3820 C   0  0  0  0  0  0  0  0  0  0  0  0
  -26.5467   -1.3734   32.4724 O   0  0  0  0  0  0  0  0  0  0  0  0
  -28.0454   -1.4584   33.9931 O   0  0  0  0  0  0  0  0  0  0  0  0
  -24.3649    1.0815   26.6692 C   0  0  0  0  0  0  0  0  0  0  0  0
  -23.9584    3.1777   25.8769 O   0  0  0  0  0  0  0  0  0  0  0  0
  -27.9070    1.4728   28.5538 F   0  0  0  0  0  0  0  0  0  0  0  0
  -26.2825    3.3921   33.5715 C   0  0  0  0  0  0  0  0  0  0  0  0
  -27.5199    4.1092   33.6224 C   0  0  0  0  0  0  0  0  0  0  0  0
  -27.5421    5.1713   33.9837 C   0  0  0  0  0  0  0  0  0  0  0  0
  -26.4881    5.7092   34.9891 C   0  0  0  0  0  0  0  0  0  0  0  0
  -25.2767    5.2121   34.7978 C   0  0  0  0  0  0  0  0  0  0  0  0
  -25.1849    3.9488   34.1193 C   0  0  0  0  0  0  0  0  0  0  0  0
  -23.6836    2.8404   30.0304 O   0  0  0  0  0  0  0  0  0  0  0  0
  -26.4761    7.2153   35.1083 N   0  0  0  0  0  0  0  0  0  0  0  0
  -26.3403    8.0330   34.1868 C   0  0  0  0  0  0  0  0  0  0  0  0
  -26.2726    7.7584   33.0046 C   0  0  0  0  0  0  0  0  0  0  0  0
  -25.9507    8.7532   31.9376 C   0  0  0  0  0  0  0  0  0  0  0  0
  -25.8597    8.3846   30.5673 C   0  0  0  0  0  0  0  0  0  0  0  0
  -26.0693    7.0231   30.2907 C   0  0  0  0  0  0  0  0  0  0  0  0
  1  2  1  0
  2  3  1  0
  2  4  1  0
  4  5  1  0
  2  6  1  0
  4  7  1  0
  5  8  1  0
  8  9  1  0
  9 10  1  0
 10 11  1  0
  8 12  1  0
 12 13  2  0
 12 14  1  0
 14 15  1  0
 15 16  1  0
 16 17  1  0
 17 18  2  0
 17 19  1  0
 11 20  1  0
 11 21  1  0
  4 22  1  0
 14 23  1  0
  9 29  1  0
 26 30  1  0
 30 31  1  0
 31 32  2  3
 32 33  1  0
 33 34  2  3
 34 35  1  0
 23 24  2  0
 24 25  1  0
 25 26  2  0
 26 27  1  0
 27 28  2  0
 28 23  1  0
M  END

$$$$
