No_4184-gen_results/8p0m/2024-11-26-14-13-15/
     RDKit          3D

 26 28  0  0  0  0  0  0  0  0999 V2000
  -28.0162   -0.8135   28.8779 C   0  0  0  0  0  0  0  0  0  0  0  0
  -28.4690   -0.7850   29.8287 C   0  0  0  0  0  0  0  0  0  0  0  0
  -26.5455   -0.8762   28.8500 C   0  0  0  0  0  0  0  0  0  0  0  0
  -25.8041   -1.0324   30.0571 C   0  0  0  0  0  0  0  0  0  0  0  0
  -27.9437   -0.9869   31.2075 C   0  0  0  0  0  0  0  0  0  0  0  0
  -26.5825   -1.0386   31.2231 C   0  0  0  0  0  0  0  0  0  0  0  0
  -30.0606   -0.7371   29.9024 C   0  0  0  0  0  0  0  0  0  0  0  0
  -30.7252   -1.5544   30.2697 O   0  0  0  0  0  0  0  0  0  0  0  0
  -30.5245    0.5663   29.6971 N   0  0  0  0  0  0  0  0  0  0  0  0
  -31.9302    0.7637   29.6237 C   0  0  0  0  0  0  0  0  0  0  0  0
  -29.6836    1.6912   29.3394 C   0  0  0  0  0  0  0  0  0  0  0  0
  -29.6388    2.6436   30.3983 C   0  0  0  0  0  0  0  0  0  0  0  0
  -29.3215    3.6648   30.3157 C   0  0  0  0  0  0  0  0  0  0  0  0
  -28.6617    4.1388   29.0076 C   0  0  0  0  0  0  0  0  0  0  0  0
  -29.2035    1.9814   28.1161 C   0  0  0  0  0  0  0  0  0  0  0  0
  -28.6266    3.2575   27.9527 C   0  0  0  0  0  0  0  0  0  0  0  0
  -25.7015   -0.8161   27.6081 C   0  0  0  0  0  0  0  0  0  0  0  0
  -25.2942    0.5528   27.2786 C   0  0  0  0  0  0  0  0  0  0  0  0
  -24.1590    1.0191   27.8646 C   0  0  0  0  0  0  0  0  0  0  0  0
  -23.6166    2.2791   27.4367 C   0  0  0  0  0  0  0  0  0  0  0  0
  -25.9662    1.3776   26.4146 C   0  0  0  0  0  0  0  0  0  0  0  0
  -25.4916    2.5771   25.9697 C   0  0  0  0  0  0  0  0  0  0  0  0
  -24.3002    3.0964   26.5563 C   0  0  0  0  0  0  0  0  0  0  0  0
  -28.0387    5.4984   28.8451 C   0  0  0  0  0  0  0  0  0  0  0  0
  -28.5987    6.5132   28.9659 C   0  0  0  0  0  0  0  0  0  0  0  0
  -27.9356    7.8399   28.8359 C   0  0  0  0  0  0  0  0  0  0  0  0
  2  7  1  0
  7  8  2  0
  7  9  1  0
  9 10  1  0
  9 11  1  0
  3 17  1  0
 17 18  1  0
 14 24  1  0
 24 25  2  3
 25 26  1  0
 11 12  2  0
 12 13  1  0
 13 14  2  0
 14 16  1  0
 16 15  2  0
 15 11  1  0
  1  2  2  0
  2  5  1  0
  5  6  2  0
  6  4  1  0
  4  3  2  0
  3  1  1  0
 18 19  2  0
 19 20  1  0
 20 23  2  0
 23 22  1  0
 22 21  2  0
 21 18  1  0
M  END

$$$$
