No_4313-gen_results/8p0m/2024-11-26-14-13-15/
     RDKit          3D

 16 17  0  0  0  0  0  0  0  0999 V2000
  -28.0162   -0.8135   28.8779 C   0  0  0  0  0  0  0  0  0  0  0  0
  -28.4690   -0.7850   29.8287 C   0  0  0  0  0  0  0  0  0  0  0  0
  -26.5455   -0.8762   28.8500 C   0  0  0  0  0  0  0  0  0  0  0  0
  -25.8041   -1.0324   30.0571 C   0  0  0  0  0  0  0  0  0  0  0  0
  -27.9437   -0.9869   31.2075 C   0  0  0  0  0  0  0  0  0  0  0  0
  -26.5825   -1.0386   31.2231 C   0  0  0  0  0  0  0  0  0  0  0  0
  -30.0606   -0.7371   29.9024 C   0  0  0  0  0  0  0  0  0  0  0  0
  -30.6057   -0.0348   29.0093 N   0  0  0  0  0  0  0  0  0  0  0  0
  -31.5026    0.4445   28.7787 C   0  0  0  0  0  0  0  0  0  0  0  0
  -31.8072    1.0692   27.5370 N   0  0  0  0  0  0  0  0  0  0  0  0
  -32.4617    0.7873   29.7286 N   0  0  0  0  0  0  0  0  0  0  0  0
  -33.6595    1.4647   29.5058 C   0  0  0  0  0  0  0  0  0  0  0  0
  -32.9890    1.7308   27.2934 C   0  0  0  0  0  0  0  0  0  0  0  0
  -33.8836    1.9516   28.3190 N   0  0  0  0  0  0  0  0  0  0  0  0
  -30.7398   -1.2889   30.7423 O   0  0  0  0  0  0  0  0  0  0  0  0
  -33.1840    2.2152   26.0645 N   0  0  0  0  0  0  0  0  0  0  0  0
  2  7  1  0
  7  8  1  0
  8  9  1  0
  7 15  2  0
 13 16  1  0
  9 10  2  0
 10 13  1  0
 13 14  2  0
 14 12  1  0
 12 11  2  0
 11  9  1  0
  1  2  2  0
  2  5  1  0
  5  6  2  0
  6  4  1  0
  4  3  2  0
  3  1  1  0
M  END

$$$$
