No_4094-gen_results/8p0m/2024-11-26-14-13-15/
     RDKit          3D

 18 20  0  0  0  0  0  0  0  0999 V2000
  -28.0162   -0.8135   28.8779 C   0  0  0  0  0  0  0  0  0  0  0  0
  -28.4690   -0.7850   29.8287 C   0  0  0  0  0  0  0  0  0  0  0  0
  -26.5042   -0.7777   28.8766 C   0  0  0  0  0  0  0  0  0  0  0  0
  -25.8103   -0.8531   30.1028 C   0  0  0  0  0  0  0  0  0  0  0  0
  -27.9906   -0.8916   31.2257 C   0  0  0  0  0  0  0  0  0  0  0  0
  -26.6042   -0.8676   31.2652 C   0  0  0  0  0  0  0  0  0  0  0  0
  -30.0739   -0.8360   29.8615 C   0  0  0  0  0  0  0  0  0  0  0  0
  -30.6529   -1.7943   30.2676 N   0  0  0  0  0  0  0  0  0  0  0  0
  -30.5939   -0.0710   28.9609 O   0  0  0  0  0  0  0  0  0  0  0  0
  -32.0653   -2.0340   30.0765 C   0  0  0  0  0  0  0  0  0  0  0  0
  -32.4105   -3.2543   29.9265 C   0  0  0  0  0  0  0  0  0  0  0  0
  -31.5549   -4.3534   30.3143 C   0  0  0  0  0  0  0  0  0  0  0  0
  -31.8980   -5.6797   30.1079 C   0  0  0  0  0  0  0  0  0  0  0  0
  -30.9570   -6.6692   30.3762 C   0  0  0  0  0  0  0  0  0  0  0  0
  -29.7004   -6.3120   30.9552 C   0  0  0  0  0  0  0  0  0  0  0  0
  -29.3752   -4.9780   31.1516 C   0  0  0  0  0  0  0  0  0  0  0  0
  -30.2435   -4.0453   30.8298 C   0  0  0  0  0  0  0  0  0  0  0  0
  -29.8939   -2.6804   30.8338 N   0  0  0  0  0  0  0  0  0  0  0  0
  2  7  1  0
  7  8  1  0
  7  9  2  0
  8 10  1  0
 11 12  1  0
  8 18  1  0
 10 11  1  0
 17 18  1  0
 12 13  2  0
 13 14  1  0
 14 15  2  0
 15 16  1  0
 16 17  2  0
 17 12  1  0
  1  2  2  0
  2  5  1  0
  5  6  2  0
  6  4  1  0
  4  3  2  0
  3  1  1  0
M  END

$$$$
