No_4564-gen_results/8p0m/2024-11-26-14-13-15/
     RDKit          3D

 30 31  0  0  0  0  0  0  0  0999 V2000
  -28.0162   -0.8135   28.8779 C   0  0  0  0  0  0  0  0  0  0  0  0
  -27.0636   -0.1190   28.6079 C   0  0  0  0  0  0  0  0  0  0  0  0
  -25.7647   -0.3897   29.0360 C   0  0  0  0  0  0  0  0  0  0  0  0
  -25.5296   -1.5302   29.9014 C   0  0  0  0  0  0  0  0  0  0  0  0
  -24.3236   -1.9076   30.4324 C   0  0  0  0  0  0  0  0  0  0  0  0
  -27.9274   -1.9227   29.7902 C   0  0  0  0  0  0  0  0  0  0  0  0
  -26.6914   -2.2806   30.2948 C   0  0  0  0  0  0  0  0  0  0  0  0
  -23.2806   -2.0391   29.4813 C   0  0  0  0  0  0  0  0  0  0  0  0
  -29.0049   -2.6569   30.1988 O   0  0  0  0  0  0  0  0  0  0  0  0
  -28.9072   -3.9392   30.6003 C   0  0  0  0  0  0  0  0  0  0  0  0
  -30.1999   -4.6648   30.2607 C   0  0  0  0  0  0  0  0  0  0  0  0
  -30.2643   -5.7088   30.9491 O   0  0  0  0  0  0  0  0  0  0  0  0
  -30.9317   -4.3718   29.3952 O   0  0  0  0  0  0  0  0  0  0  0  0
  -27.1342    1.0151   27.6191 C   0  0  0  0  0  0  0  0  0  0  0  0
  -26.3171    1.0802   26.8340 F   0  0  0  0  0  0  0  0  0  0  0  0
  -27.1337    2.1612   28.3461 F   0  0  0  0  0  0  0  0  0  0  0  0
  -28.3973    0.9810   27.0441 F   0  0  0  0  0  0  0  0  0  0  0  0
  -22.3830   -0.8555   29.2854 C   0  0  0  0  0  0  0  0  0  0  0  0
  -22.8381    0.2466   28.6897 C   0  0  0  0  0  0  0  0  0  0  0  0
  -22.0203    1.3772   28.2215 C   0  0  0  0  0  0  0  0  0  0  0  0
  -22.6213    2.4827   27.6998 N   0  0  0  0  0  0  0  0  0  0  0  0
  -20.8135    1.2521   28.1339 O   0  0  0  0  0  0  0  0  0  0  0  0
  -24.0850    2.6541   27.7319 C   0  0  0  0  0  0  0  0  0  0  0  0
  -24.4485    3.5075   28.7776 C   0  0  0  0  0  0  0  0  0  0  0  0
  -25.2110    4.6383   28.6054 C   0  0  0  0  0  0  0  0  0  0  0  0
  -25.7296    5.4658   29.6189 C   0  0  0  0  0  0  0  0  0  0  0  0
  -26.3072    6.6966   29.3032 C   0  0  0  0  0  0  0  0  0  0  0  0
  -25.7205    4.9798   27.2787 C   0  0  0  0  0  0  0  0  0  0  0  0
  -26.3650    6.1495   26.9901 C   0  0  0  0  0  0  0  0  0  0  0  0
  -26.7109    7.0026   28.0369 C   0  0  0  0  0  0  0  0  0  0  0  0
  4  5  1  0
  5  8  1  0
  6  9  1  0
  9 10  1  0
 10 11  1  0
 11 12  2  0
 11 13  1  0
  2 14  1  0
 14 15  1  0
 14 16  1  0
 14 17  1  0
  8 18  1  0
 18 19  2  3
 19 20  1  0
 20 21  1  0
 20 22  2  0
 21 23  1  0
 23 24  1  0
 24 25  1  0
 25 26  2  0
 26 27  1  0
 27 30  2  0
 30 29  1  0
 29 28  2  0
 28 25  1  0
  1  2  2  0
  2  3  1  0
  3  4  2  0
  4  7  1  0
  7  6  2  0
  6  1  1  0
M  END

$$$$
