No_4499-gen_results/8p0m/2024-11-26-14-13-15/
     RDKit          3D

  8  8  0  0  0  0  0  0  0  0999 V2000
  -28.0162   -0.8135   28.8779 C   0  0  0  0  0  0  0  0  0  0  0  0
  -27.0636   -0.1189   28.6079 C   0  0  0  0  0  0  0  0  0  0  0  0
  -26.4071    0.8834   28.2425 C   0  0  0  0  0  0  0  0  0  0  0  0
  -25.0852    1.1714   28.3388 C   0  0  0  0  0  0  0  0  0  0  0  0
  -24.3906    2.3127   27.7644 C   0  0  0  0  0  0  0  0  0  0  0  0
  -25.1824    3.1945   26.9902 C   0  0  0  0  0  0  0  0  0  0  0  0
  -26.5402    2.9492   26.8073 C   0  0  0  0  0  0  0  0  0  0  0  0
  -27.0767    1.8410   27.3663 C   0  0  0  0  0  0  0  0  0  0  0  0
  1  2  3  0
  2  3  1  0
  3  4  2  0
  4  5  1  0
  5  6  2  0
  6  7  1  0
  7  8  2  0
  8  3  1  0
M  END

$$$$
