No_4030-gen_results/8p0m/2024-11-26-14-13-15/
     RDKit          3D

 15 16  0  0  0  0  0  0  0  0999 V2000
  -28.0162   -0.8135   28.8779 C   0  0  0  0  0  0  0  0  0  0  0  0
  -28.4690   -0.7850   29.8287 C   0  0  0  0  0  0  0  0  0  0  0  0
  -26.5455   -0.8762   28.8500 C   0  0  0  0  0  0  0  0  0  0  0  0
  -25.8041   -1.0324   30.0571 C   0  0  0  0  0  0  0  0  0  0  0  0
  -27.9437   -0.9869   31.2075 C   0  0  0  0  0  0  0  0  0  0  0  0
  -26.5825   -1.0386   31.2231 C   0  0  0  0  0  0  0  0  0  0  0  0
  -29.9648   -0.7353   29.8902 N   0  0  0  0  0  0  0  0  0  0  0  0
  -30.5344   -0.0309   29.0060 C   0  0  0  0  0  0  0  0  0  0  0  0
  -31.8526   -0.4023   28.7250 C   0  0  0  0  0  0  0  0  0  0  0  0
  -30.7345   -1.5680   30.7138 C   0  0  0  0  0  0  0  0  0  0  0  0
  -32.0465   -1.8311   30.4793 C   0  0  0  0  0  0  0  0  0  0  0  0
  -32.4810    0.3764   27.6139 C   0  0  0  0  0  0  0  0  0  0  0  0
  -32.5781   -1.2303   29.4811 C   0  0  0  0  0  0  0  0  0  0  0  0
  -32.2370    0.1766   26.4640 O   0  0  0  0  0  0  0  0  0  0  0  0
  -33.3353    1.2882   27.9269 O   0  0  0  0  0  0  0  0  0  0  0  0
  2  7  1  0
  7  8  1  0
  7 10  1  0
  9 12  1  0
  9 13  1  0
 11 13  1  0
 12 14  2  0
 12 15  1  0
  8  9  1  0
 11 10  1  0
  1  2  2  0
  2  5  1  0
  5  6  2  0
  6  4  1  0
  4  3  2  0
  3  1  1  0
M  END

$$$$
