No_4765-gen_results/8p0m/2024-11-26-14-13-15/
     RDKit          3D

 24 25  0  0  0  0  0  0  0  0999 V2000
  -28.0162   -0.8135   28.8779 C   0  0  0  0  0  0  0  0  0  0  0  0
  -27.0636   -0.1189   28.6079 C   0  0  0  0  0  0  0  0  0  0  0  0
  -25.7923   -0.4302   29.0761 C   0  0  0  0  0  0  0  0  0  0  0  0
  -25.5756   -1.5654   29.9363 C   0  0  0  0  0  0  0  0  0  0  0  0
  -26.7354   -2.3004   30.2173 C   0  0  0  0  0  0  0  0  0  0  0  0
  -27.9184   -1.9537   29.7629 C   0  0  0  0  0  0  0  0  0  0  0  0
  -26.8968    1.1016   27.7052 C   0  0  0  0  0  0  0  0  0  0  0  0
  -26.7619    2.0888   27.9466 N   0  0  0  0  0  0  0  0  0  0  0  0
  -27.5333    0.8628   26.4719 O   0  0  0  0  0  0  0  0  0  0  0  0
  -26.3627    3.0827   27.5314 C   0  0  0  0  0  0  0  0  0  0  0  0
  -25.5360    3.1782   26.5840 C   0  0  0  0  0  0  0  0  0  0  0  0
  -24.0745    2.9611   26.7198 C   0  0  0  0  0  0  0  0  0  0  0  0
  -23.5662    2.7148   27.9508 C   0  0  0  0  0  0  0  0  0  0  0  0
  -22.2231    2.1671   28.0208 C   0  0  0  0  0  0  0  0  0  0  0  0
  -21.6887    1.7224   26.8164 C   0  0  0  0  0  0  0  0  0  0  0  0
  -23.2325    2.3248   25.7099 C   0  0  0  0  0  0  0  0  0  0  0  0
  -22.1544    1.8601   25.7374 C   0  0  0  0  0  0  0  0  0  0  0  0
  -29.2549   -2.9045   30.2179 Cl  0  0  0  0  0  0  0  0  0  0  0  0
  -26.9257    4.3953   28.0579 C   0  0  0  0  0  0  0  0  0  0  0  0
  -27.1860    4.5585   29.2813 N   0  0  0  0  0  0  0  0  0  0  0  0
  -27.5874    5.6517   29.8592 C   0  0  0  0  0  0  0  0  0  0  0  0
  -27.8012    5.7800   31.3114 C   0  0  0  0  0  0  0  0  0  0  0  0
  -27.6760    4.9801   32.0134 C   0  0  0  0  0  0  0  0  0  0  0  0
  -27.1972    3.6020   31.5603 C   0  0  0  0  0  0  0  0  0  0  0  0
  2  7  1  0
  7  8  1  0
  7  9  2  0
  8 10  1  0
 10 11  2  3
 11 12  1  0
  6 18  1  0
 10 19  1  0
 19 20  1  0
 20 21  2  3
 21 22  1  0
 22 23  2  3
 23 24  1  0
 12 13  2  0
 13 14  1  0
 14 15  2  0
 15 17  1  0
 17 16  2  0
 16 12  1  0
  1  2  2  0
  2  3  1  0
  3  4  2  0
  4  5  1  0
  5  6  2  0
  6  1  1  0
M  END

$$$$
