No_4496-gen_results/8p0m/2024-11-26-14-13-15/
     RDKit          3D

 20 21  0  0  0  0  0  0  0  0999 V2000
  -28.0544   -1.0498   28.7246 N   0  0  0  0  0  0  0  0  0  0  0  0
  -27.7460   -0.0733   29.0098 C   0  0  0  0  0  0  0  0  0  0  0  0
  -27.5667    0.3853   30.3401 C   0  0  0  0  0  0  0  0  0  0  0  0
  -27.0852    1.7230   30.7569 C   0  0  0  0  0  0  0  0  0  0  0  0
  -26.6466    2.5384   29.7034 C   0  0  0  0  0  0  0  0  0  0  0  0
  -26.7131    2.0674   28.3812 C   0  0  0  0  0  0  0  0  0  0  0  0
  -27.1449    0.8426   28.0347 C   0  0  0  0  0  0  0  0  0  0  0  0
  -27.1576    0.4607   26.6517 C   0  0  0  0  0  0  0  0  0  0  0  0
  -25.8930    0.1353   26.0796 C   0  0  0  0  0  0  0  0  0  0  0  0
  -28.2408    0.4883   25.8391 C   0  0  0  0  0  0  0  0  0  0  0  0
  -28.1602    0.1184   24.4632 C   0  0  0  0  0  0  0  0  0  0  0  0
  -25.7212   -0.1528   24.6905 C   0  0  0  0  0  0  0  0  0  0  0  0
  -26.8308   -0.1412   23.9366 C   0  0  0  0  0  0  0  0  0  0  0  0
  -26.0953    3.8649   29.9892 C   0  0  0  0  0  0  0  0  0  0  0  0
  -26.7670    4.7972   30.0640 O   0  0  0  0  0  0  0  0  0  0  0  0
  -24.7396    3.8427   30.0816 O   0  0  0  0  0  0  0  0  0  0  0  0
  -26.1877    3.0146   27.2868 C   0  0  0  0  0  0  0  0  0  0  0  0
  -26.7498    2.0567   27.2961 Cl  0  0  0  0  0  0  0  0  0  0  0  0
  -26.9125   -0.1929   28.5128 F   0  0  0  0  0  0  0  0  0  0  0  0
  -27.7923   -2.2073   29.4605 C   0  0  0  0  0  0  0  0  0  0  0  0
  1  2  2  3
  2  3  1  0
  3  4  1  0
  4  5  1  0
  5  6  1  0
  2  7  1  0
  6  7  1  0
  7  8  1  0
  5 14  1  0
 14 15  1  0
 14 16  2  0
  6 17  1  0
  6 18  1  0
  7 19  1  0
  1 20  1  0
  8  9  2  0
  9 12  1  0
 12 13  2  0
 13 11  1  0
 11 10  2  0
 10  8  1  0
M  END

$$$$
