No_4712-gen_results/8p0m/2024-11-26-14-13-15/
     RDKit          3D

 19 20  0  0  0  0  0  0  0  0999 V2000
  -28.0162   -0.8135   28.8779 C   0  0  0  0  0  0  0  0  0  0  0  0
  -27.0636   -0.1189   28.6079 C   0  0  0  0  0  0  0  0  0  0  0  0
  -25.7923   -0.4302   29.0761 C   0  0  0  0  0  0  0  0  0  0  0  0
  -24.5456    0.3494   28.8225 C   0  0  0  0  0  0  0  0  0  0  0  0
  -24.6586    1.4196   27.8878 C   0  0  0  0  0  0  0  0  0  0  0  0
  -25.9471    1.6811   27.3792 C   0  0  0  0  0  0  0  0  0  0  0  0
  -27.0439    0.9739   27.6871 C   0  0  0  0  0  0  0  0  0  0  0  0
  -29.1882   -0.1472   29.0918 N   0  0  0  0  0  0  0  0  0  0  0  0
  -30.2017   -0.7833   29.7303 C   0  0  0  0  0  0  0  0  0  0  0  0
  -23.4507    2.1524   27.6005 C   0  0  0  0  0  0  0  0  0  0  0  0
  -23.4836    3.1432   26.9049 O   0  0  0  0  0  0  0  0  0  0  0  0
  -22.2634    1.6804   27.9481 O   0  0  0  0  0  0  0  0  0  0  0  0
  -30.3207   -0.9004   30.9268 C   0  0  0  0  0  0  0  0  0  0  0  0
  -31.2463   -1.6566   31.6152 C   0  0  0  0  0  0  0  0  0  0  0  0
  -31.3075   -1.3153   28.9273 C   0  0  0  0  0  0  0  0  0  0  0  0
  -32.3058   -2.0533   29.4769 C   0  0  0  0  0  0  0  0  0  0  0  0
  -32.2973   -2.1776   30.8608 C   0  0  0  0  0  0  0  0  0  0  0  0
  -27.8624   -1.8258   29.6279 O   0  0  0  0  0  0  0  0  0  0  0  0
  -33.3215   -2.8409   31.4315 F   0  0  0  0  0  0  0  0  0  0  0  0
  1  2  1  0
  1  8  1  0
  8  9  1  0
  5 10  1  0
 10 11  2  0
 10 12  1  0
  1 18  2  0
 17 19  1  0
  2  3  2  0
  3  4  1  0
  4  5  2  0
  5  6  1  0
  6  7  2  0
  7  2  1  0
  9 13  2  0
 13 14  1  0
 14 17  2  0
 17 16  1  0
 16 15  2  0
 15  9  1  0
M  END

$$$$
