No_4235-gen_results/8p0m/2024-11-26-14-13-15/
     RDKit          3D

 14 14  0  0  0  0  0  0  0  0999 V2000
  -28.0162   -0.8135   28.8779 C   0  0  0  0  0  0  0  0  0  0  0  0
  -27.0636   -0.1189   28.6079 C   0  0  0  0  0  0  0  0  0  0  0  0
  -26.9716    0.7139   27.5060 C   0  0  0  0  0  0  0  0  0  0  0  0
  -25.8205    1.4909   27.1160 C   0  0  0  0  0  0  0  0  0  0  0  0
  -24.6562    1.4242   27.9180 C   0  0  0  0  0  0  0  0  0  0  0  0
  -24.6847    0.5901   29.0659 C   0  0  0  0  0  0  0  0  0  0  0  0
  -25.8099   -0.1265   29.3338 C   0  0  0  0  0  0  0  0  0  0  0  0
  -27.9662   -1.6794   30.0086 N   0  0  0  0  0  0  0  0  0  0  0  0
  -23.4718    2.1970   27.6168 C   0  0  0  0  0  0  0  0  0  0  0  0
  -22.6206    1.6964   27.1259 F   0  0  0  0  0  0  0  0  0  0  0  0
  -23.8553    3.3450   26.8896 F   0  0  0  0  0  0  0  0  0  0  0  0
  -23.0138    2.7943   28.7646 F   0  0  0  0  0  0  0  0  0  0  0  0
  -28.9948   -2.0584   30.7294 C   0  0  0  0  0  0  0  0  0  0  0  0
  -28.8865   -3.1880   31.6081 C   0  0  0  0  0  0  0  0  0  0  0  0
  1  2  2  3
  2  3  1  0
  3  4  1  0
  4  5  1  0
  5  6  1  0
  2  7  1  0
  6  7  1  0
  1  8  1  0
  5  9  1  0
  9 10  1  0
  9 11  1  0
  9 12  1  0
  8 13  1  0
 13 14  2  0
M  END

$$$$
