No_4039-gen_results/8p0m/2024-11-26-14-13-15/
     RDKit          3D

 24 26  0  0  0  0  0  0  0  0999 V2000
  -28.0162   -0.8135   28.8779 C   0  0  0  0  0  0  0  0  0  0  0  0
  -28.4690   -0.7850   29.8287 C   0  0  0  0  0  0  0  0  0  0  0  0
  -26.5455   -0.8762   28.8500 C   0  0  0  0  0  0  0  0  0  0  0  0
  -25.8041   -1.0324   30.0571 C   0  0  0  0  0  0  0  0  0  0  0  0
  -26.5373   -1.0386   31.2171 C   0  0  0  0  0  0  0  0  0  0  0  0
  -27.8843   -0.9532   31.1862 C   0  0  0  0  0  0  0  0  0  0  0  0
  -24.3655   -1.1134   30.0483 C   0  0  0  0  0  0  0  0  0  0  0  0
  -23.6925    0.1188   29.9185 C   0  0  0  0  0  0  0  0  0  0  0  0
  -22.3936    0.1820   29.3480 C   0  0  0  0  0  0  0  0  0  0  0  0
  -21.7683    1.3866   29.0594 C   0  0  0  0  0  0  0  0  0  0  0  0
  -24.2178    1.3685   30.4361 C   0  0  0  0  0  0  0  0  0  0  0  0
  -25.4658    1.3892   31.1183 C   0  0  0  0  0  0  0  0  0  0  0  0
  -20.7932    1.3042   28.0101 C   0  0  0  0  0  0  0  0  0  0  0  0
  -25.8230    2.8605   31.5161 C   0  0  0  0  0  0  0  0  0  0  0  0
  -26.6299    3.0217   32.5324 C   0  0  0  0  0  0  0  0  0  0  0  0
  -27.1733    1.9024   33.2255 C   0  0  0  0  0  0  0  0  0  0  0  0
  -26.5699    0.7232   33.1356 C   0  0  0  0  0  0  0  0  0  0  0  0
  -25.6701    0.5263   32.1606 C   0  0  0  0  0  0  0  0  0  0  0  0
  -26.0615   -1.8847   32.1662 O   0  0  0  0  0  0  0  0  0  0  0  0
  -24.3852    0.0482   32.6470 C   0  0  0  0  0  0  0  0  0  0  0  0
  -25.8343   -0.8449   27.6939 O   0  0  0  0  0  0  0  0  0  0  0  0
  -21.6610   -0.9678   29.0991 C   0  0  0  0  0  0  0  0  0  0  0  0
  -20.4817   -0.9515   28.4243 N   0  0  0  0  0  0  0  0  0  0  0  0
  -20.0613    0.2348   27.9392 C   0  0  0  0  0  0  0  0  0  0  0  0
  1  3  1  0
  3  4  1  0
  4  5  1  0
  2  6  1  0
  4  7  1  0
  7  8  1  0
  8 11  1  0
 11 12  1  0
  5 19  1  0
 18 20  1  0
  3 21  2  0
  8  9  1  0
  1  2  1  0
  6  5  1  0
  9 10  2  0
 10 13  1  0
 13 24  2  0
 24 23  1  0
 23 22  2  0
 22  9  1  0
 12 14  2  0
 14 15  1  0
 15 16  2  0
 16 17  1  0
 17 18  2  0
 18 12  1  0
M  END

$$$$
