No_4662-gen_results/8p0m/2024-11-26-14-13-15/
     RDKit          3D

 33 35  0  0  0  0  0  0  0  0999 V2000
  -28.0162   -0.8135   28.8779 C   0  0  0  0  0  0  0  0  0  0  0  0
  -28.4690   -0.7850   29.8287 C   0  0  0  0  0  0  0  0  0  0  0  0
  -27.0871    0.2903   28.6377 C   0  0  0  0  0  0  0  0  0  0  0  0
  -26.2516    0.4114   27.4223 C   0  0  0  0  0  0  0  0  0  0  0  0
  -28.3913    0.1041   30.9805 C   0  0  0  0  0  0  0  0  0  0  0  0
  -27.5332    1.1666   30.7866 C   0  0  0  0  0  0  0  0  0  0  0  0
  -26.8281    1.2557   29.6454 C   0  0  0  0  0  0  0  0  0  0  0  0
  -25.0638    0.2673   27.5264 N   0  0  0  0  0  0  0  0  0  0  0  0
  -24.3568   -0.5633   28.3016 C   0  0  0  0  0  0  0  0  0  0  0  0
  -24.7113   -1.6596   28.8790 C   0  0  0  0  0  0  0  0  0  0  0  0
  -23.9871   -2.5129   29.6697 C   0  0  0  0  0  0  0  0  0  0  0  0
  -22.7840   -1.9686   29.9281 N   0  0  0  0  0  0  0  0  0  0  0  0
  -22.9105   -0.3386   28.7008 C   0  0  0  0  0  0  0  0  0  0  0  0
  -22.2061   -0.9617   29.4403 C   0  0  0  0  0  0  0  0  0  0  0  0
  -24.2070    1.1362   26.5939 C   0  0  0  0  0  0  0  0  0  0  0  0
  -26.9190    0.2433   26.3637 O   0  0  0  0  0  0  0  0  0  0  0  0
  -25.9593    2.2169   29.4917 O   0  0  0  0  0  0  0  0  0  0  0  0
  -26.2839    3.4253   29.0039 C   0  0  0  0  0  0  0  0  0  0  0  0
  -25.3045    4.0872   28.2528 C   0  0  0  0  0  0  0  0  0  0  0  0
  -24.3960    3.4908   27.8096 O   0  0  0  0  0  0  0  0  0  0  0  0
  -25.5058    5.3617   27.9486 O   0  0  0  0  0  0  0  0  0  0  0  0
  -26.8333    4.1838   30.0127 O   0  0  0  0  0  0  0  0  0  0  0  0
  -29.5414   -1.9723   30.1921 C   0  0  0  0  0  0  0  0  0  0  0  0
  -29.1098   -2.9648   30.6006 O   0  0  0  0  0  0  0  0  0  0  0  0
  -30.7119   -1.7789   29.9577 O   0  0  0  0  0  0  0  0  0  0  0  0
  -29.6392   -4.2623   30.3820 C   0  0  0  0  0  0  0  0  0  0  0  0
  -29.9086   -4.7617   29.3521 C   0  0  0  0  0  0  0  0  0  0  0  0
  -30.6775   -5.9637   29.1655 C   0  0  0  0  0  0  0  0  0  0  0  0
  -31.1993   -6.3264   27.8863 C   0  0  0  0  0  0  0  0  0  0  0  0
  -31.9481   -7.4449   27.7364 C   0  0  0  0  0  0  0  0  0  0  0  0
  -32.1888   -8.2871   28.8078 C   0  0  0  0  0  0  0  0  0  0  0  0
  -31.0654   -6.9384   30.1528 C   0  0  0  0  0  0  0  0  0  0  0  0
  -31.7154   -8.0124   30.0297 C   0  0  0  0  0  0  0  0  0  0  0  0
  3  4  1  0
  4  8  1  0
  8  9  1  0
  8 15  1  0
  4 16  2  0
  7 17  1  0
 17 18  1  0
 18 19  1  0
 19 20  1  0
 19 21  2  0
 18 22  2  0
  2 23  1  0
 23 24  1  0
 23 25  2  0
 24 26  1  0
 26 27  2  3
 27 28  1  0
 28 29  2  0
 29 30  1  0
 30 31  2  0
 31 33  1  0
 33 32  2  0
 32 28  1  0
  1  2  2  0
  2  5  1  0
  5  6  2  0
  6  7  1  0
  7  3  2  0
  3  1  1  0
  9 10  2  0
 10 11  1  0
 11 12  2  0
 12 14  1  0
 14 13  2  0
 13  9  1  0
M  END

$$$$
