No_4688-gen_results/8p0m/2024-11-26-14-13-15/
     RDKit          3D

 15 15  0  0  0  0  0  0  0  0999 V2000
  -28.0162   -0.8135   28.8779 C   0  0  0  0  0  0  0  0  0  0  0  0
  -27.0636   -0.1189   28.6079 C   0  0  0  0  0  0  0  0  0  0  0  0
  -25.6156   -0.5162   28.8771 Cl  0  0  0  0  0  0  0  0  0  0  0  0
  -28.4667   -0.6427   30.1520 C   0  0  0  0  0  0  0  0  0  0  0  0
  -28.7384   -1.7415   30.9497 C   0  0  0  0  0  0  0  0  0  0  0  0
  -28.9906   -2.9865   30.2486 C   0  0  0  0  0  0  0  0  0  0  0  0
  -30.0790   -3.6720   30.5826 C   0  0  0  0  0  0  0  0  0  0  0  0
  -31.1841   -3.0702   30.5794 C   0  0  0  0  0  0  0  0  0  0  0  0
  -27.0717    0.3049   27.1520 F   0  0  0  0  0  0  0  0  0  0  0  0
  -32.3474   -3.7453   31.1424 C   0  0  0  0  0  0  0  0  0  0  0  0
  -32.2538   -5.1363   31.3221 C   0  0  0  0  0  0  0  0  0  0  0  0
  -31.0599   -5.8229   31.2159 C   0  0  0  0  0  0  0  0  0  0  0  0
  -29.9171   -5.0974   30.8872 C   0  0  0  0  0  0  0  0  0  0  0  0
  -27.7169   -3.7266   30.5492 O   0  0  0  0  0  0  0  0  0  0  0  0
  -27.1728    1.2659   29.0789 F   0  0  0  0  0  0  0  0  0  0  0  0
  1  2  1  0
  2  3  1  0
  1  4  1  0
  4  5  2  3
  5  6  1  0
  6  7  1  0
  2  9  1  0
  6 14  1  0
  2 15  1  0
  7  8  2  0
  8 10  1  0
 10 11  2  0
 11 12  1  0
 12 13  2  0
 13  7  1  0
M  END

$$$$
