No_4977-gen_results/8p0m/2024-11-26-14-13-15/
     RDKit          3D

 16 17  0  0  0  0  0  0  0  0999 V2000
  -28.0162   -0.8135   28.8779 C   0  0  0  0  0  0  0  0  0  0  0  0
  -27.0636   -0.1189   28.6079 C   0  0  0  0  0  0  0  0  0  0  0  0
  -26.9716    0.7139   27.5060 C   0  0  0  0  0  0  0  0  0  0  0  0
  -25.8205    1.4909   27.1160 C   0  0  0  0  0  0  0  0  0  0  0  0
  -24.6562    1.4242   27.9180 C   0  0  0  0  0  0  0  0  0  0  0  0
  -24.6847    0.5901   29.0659 C   0  0  0  0  0  0  0  0  0  0  0  0
  -25.8099   -0.1265   29.3338 C   0  0  0  0  0  0  0  0  0  0  0  0
  -29.1935   -0.1896   29.0164 N   0  0  0  0  0  0  0  0  0  0  0  0
  -23.4634    2.1759   27.6079 C   0  0  0  0  0  0  0  0  0  0  0  0
  -23.4401    3.0141   26.6984 C   0  0  0  0  0  0  0  0  0  0  0  0
  -24.6932    3.2435   25.8521 C   0  0  0  0  0  0  0  0  0  0  0  0
  -25.8279    2.4454   26.0812 C   0  0  0  0  0  0  0  0  0  0  0  0
  -30.2599   -0.6978   29.6482 C   0  0  0  0  0  0  0  0  0  0  0  0
  -31.5527   -0.4560   29.0930 C   0  0  0  0  0  0  0  0  0  0  0  0
  -31.5047    0.1986   27.9893 C   0  0  0  0  0  0  0  0  0  0  0  0
  -32.3469    0.5529   27.1882 C   0  0  0  0  0  0  0  0  0  0  0  0
  1  8  1  0
  8 13  1  0
 13 14  1  0
 14 15  2  3
 15 16  1  0
  1  2  1  0
  2  3  2  0
  3  4  1  0
  5  6  1  0
  6  7  2  0
  7  2  1  0
  4  5  2  0
  5  9  1  0
  9 10  2  0
 10 11  1  0
 11 12  2  0
 12  4  1  0
M  END

$$$$
