No_4332-gen_results/8p0m/2024-11-26-14-13-15/
     RDKit          3D

 20 22  0  0  0  0  0  0  0  0999 V2000
  -28.0162   -0.8135   28.8779 C   0  0  0  0  0  0  0  0  0  0  0  0
  -27.0636   -0.1189   28.6079 C   0  0  0  0  0  0  0  0  0  0  0  0
  -26.9716    0.7139   27.5060 C   0  0  0  0  0  0  0  0  0  0  0  0
  -28.1053    0.7744   26.6421 C   0  0  0  0  0  0  0  0  0  0  0  0
  -29.2041    0.1179   27.0477 C   0  0  0  0  0  0  0  0  0  0  0  0
  -29.2127   -0.6088   28.1281 C   0  0  0  0  0  0  0  0  0  0  0  0
  -25.7106    1.4519   27.1380 C   0  0  0  0  0  0  0  0  0  0  0  0
  -24.6052    0.9253   27.6902 C   0  0  0  0  0  0  0  0  0  0  0  0
  -23.3087    1.6018   27.4923 C   0  0  0  0  0  0  0  0  0  0  0  0
  -22.1769    1.1971   28.2745 C   0  0  0  0  0  0  0  0  0  0  0  0
  -22.2182    0.0930   29.0619 C   0  0  0  0  0  0  0  0  0  0  0  0
  -23.4005   -0.6727   29.1615 C   0  0  0  0  0  0  0  0  0  0  0  0
  -24.5560   -0.2221   28.5396 C   0  0  0  0  0  0  0  0  0  0  0  0
  -25.7306   -0.6018   29.1335 C   0  0  0  0  0  0  0  0  0  0  0  0
  -25.7855   -1.1808   30.2458 O   0  0  0  0  0  0  0  0  0  0  0  0
  -30.3682    0.4209   26.1175 C   0  0  0  0  0  0  0  0  0  0  0  0
  -31.3842    0.0230   26.3115 O   0  0  0  0  0  0  0  0  0  0  0  0
  -30.2093    1.1283   25.0489 O   0  0  0  0  0  0  0  0  0  0  0  0
  -25.7588    2.5141   26.1691 C   0  0  0  0  0  0  0  0  0  0  0  0
  -28.0481   -1.7098   29.8979 O   0  0  0  0  0  0  0  0  0  0  0  0
  3  7  1  0
  2 14  1  0
 13 14  1  0
 14 15  2  0
  5 16  1  0
 16 17  1  0
 16 18  2  0
  7 19  1  0
  1 20  1  0
  7  8  1  0
  1  2  2  0
  2  3  1  0
  3  4  2  0
  4  5  1  0
  5  6  2  0
  6  1  1  0
  8  9  2  0
  9 10  1  0
 10 11  2  0
 11 12  1  0
 12 13  2  0
 13  8  1  0
M  END

$$$$
