No_470-gen_results/8p0m/2024-11-26-14-13-15/
     RDKit          3D

 15 16  0  0  0  0  0  0  0  0999 V2000
  -28.0162   -0.8135   28.8779 C   0  0  0  0  0  0  0  0  0  0  0  0
  -28.4690   -0.7850   29.8287 C   0  0  0  0  0  0  0  0  0  0  0  0
  -26.9162   -1.5644   28.7368 F   0  0  0  0  0  0  0  0  0  0  0  0
  -28.1645    0.0261   27.7584 C   0  0  0  0  0  0  0  0  0  0  0  0
  -29.4034    0.7099   27.5940 C   0  0  0  0  0  0  0  0  0  0  0  0
  -28.2839   -1.5937   31.0176 C   0  0  0  0  0  0  0  0  0  0  0  0
  -30.1793    0.7103   28.7667 C   0  0  0  0  0  0  0  0  0  0  0  0
  -29.8604   -0.0378   29.8239 C   0  0  0  0  0  0  0  0  0  0  0  0
  -29.5811    1.5056   26.4173 C   0  0  0  0  0  0  0  0  0  0  0  0
  -30.1167    2.5185   26.4148 C   0  0  0  0  0  0  0  0  0  0  0  0
  -29.0676    0.9357   25.1630 C   0  0  0  0  0  0  0  0  0  0  0  0
  -30.6027    3.2045   27.6488 C   0  0  0  0  0  0  0  0  0  0  0  0
  -28.1600   -0.0901   25.1296 C   0  0  0  0  0  0  0  0  0  0  0  0
  -27.5700   -0.5720   26.4315 C   0  0  0  0  0  0  0  0  0  0  0  0
  -31.0571    4.4658   27.7732 C   0  0  0  0  0  0  0  0  0  0  0  0
  1  2  1  0
  1  3  1  0
  1  4  1  0
  2  6  2  0
  5  7  1  0
  2  8  1  0
  7  8  1  0
 10 12  1  0
 12 15  2  0
 10  9  1  0
  4  5  2  0
  5  9  1  0
  9 11  2  0
 11 13  1  0
 13 14  2  0
 14  4  1  0
M  END

$$$$
