No_415-gen_results/8p0m/2024-11-26-14-13-15/
     RDKit          3D

 28 30  0  0  0  0  0  0  0  0999 V2000
  -28.0162   -0.8135   28.8779 C   0  0  0  0  0  0  0  0  0  0  0  0
  -27.0636   -0.1189   28.6079 C   0  0  0  0  0  0  0  0  0  0  0  0
  -26.9716    0.7139   27.5060 C   0  0  0  0  0  0  0  0  0  0  0  0
  -28.1053    0.7744   26.6421 C   0  0  0  0  0  0  0  0  0  0  0  0
  -29.2008    0.1044   27.0527 C   0  0  0  0  0  0  0  0  0  0  0  0
  -28.0219   -1.5899   30.0879 C   0  0  0  0  0  0  0  0  0  0  0  0
  -29.1640   -0.6394   28.1484 C   0  0  0  0  0  0  0  0  0  0  0  0
  -28.8451   -1.9567   30.6618 O   0  0  0  0  0  0  0  0  0  0  0  0
  -26.7549   -2.1491   30.4130 O   0  0  0  0  0  0  0  0  0  0  0  0
  -30.3743    0.2087   26.1654 C   0  0  0  0  0  0  0  0  0  0  0  0
  -31.2722   -0.4160   26.3236 O   0  0  0  0  0  0  0  0  0  0  0  0
  -30.2041    0.7892   24.9467 O   0  0  0  0  0  0  0  0  0  0  0  0
  -25.7017    1.4465   27.1288 C   0  0  0  0  0  0  0  0  0  0  0  0
  -25.5174    2.3846   26.3516 C   0  0  0  0  0  0  0  0  0  0  0  0
  -24.3989    3.1263   26.2995 C   0  0  0  0  0  0  0  0  0  0  0  0
  -23.1900    2.6514   26.9039 C   0  0  0  0  0  0  0  0  0  0  0  0
  -23.3311    1.4635   27.6189 C   0  0  0  0  0  0  0  0  0  0  0  0
  -24.5432    0.8513   27.8393 C   0  0  0  0  0  0  0  0  0  0  0  0
  -22.0877    0.9537   28.2734 C   0  0  0  0  0  0  0  0  0  0  0  0
  -22.1553   -0.2399   28.9082 N   0  0  0  0  0  0  0  0  0  0  0  0
  -21.0109    1.5341   28.1654 O   0  0  0  0  0  0  0  0  0  0  0  0
  -20.9450   -0.7871   29.3836 N   0  0  0  0  0  0  0  0  0  0  0  0
  -23.2688   -1.0458   29.2018 C   0  0  0  0  0  0  0  0  0  0  0  0
  -23.3544   -0.9962   30.6937 C   0  0  0  0  0  0  0  0  0  0  0  0
  -24.4591   -1.8359   31.1911 C   0  0  0  0  0  0  0  0  0  0  0  0
  -25.7551   -1.9521   30.3635 C   0  0  0  0  0  0  0  0  0  0  0  0
  -25.1622   -1.8545   29.0145 O   0  0  0  0  0  0  0  0  0  0  0  0
  -24.0098   -1.4885   28.4827 O   0  0  0  0  0  0  0  0  0  0  0  0
  1  6  1  0
  6  8  2  0
  6  9  1  0
  5 10  1  0
 10 11  1  0
 10 12  2  0
  3 13  1  0
 17 19  1  0
 19 20  1  0
 19 21  2  0
 20 22  1  0
 20 23  1  0
 23 24  2  3
 24 25  1  0
  9 26  1  0
 25 26  1  0
 26 27  2  0
 23 28  1  0
 13 14  2  0
 14 15  1  0
 15 16  2  0
 16 17  1  0
 17 18  2  0
 18 13  1  0
  1  2  2  0
  2  3  1  0
  3  4  2  0
  4  5  1  0
  5  7  2  0
  7  1  1  0
M  END

$$$$
