No_4275-gen_results/8p0m/2024-11-26-14-13-15/
     RDKit          3D

 33 36  0  0  0  0  0  0  0  0999 V2000
  -28.0162   -0.8135   28.8779 C   0  0  0  0  0  0  0  0  0  0  0  0
  -27.0636   -0.1189   28.6079 C   0  0  0  0  0  0  0  0  0  0  0  0
  -25.7647   -0.3897   29.0360 C   0  0  0  0  0  0  0  0  0  0  0  0
  -25.5296   -1.5302   29.9014 C   0  0  0  0  0  0  0  0  0  0  0  0
  -26.6577   -2.2915   30.2035 C   0  0  0  0  0  0  0  0  0  0  0  0
  -27.8548   -1.9555   29.7630 C   0  0  0  0  0  0  0  0  0  0  0  0
  -24.4389    0.1803   28.7279 C   0  0  0  0  0  0  0  0  0  0  0  0
  -24.3450    1.1842   27.7676 C   0  0  0  0  0  0  0  0  0  0  0  0
  -23.1086    1.7615   27.4324 C   0  0  0  0  0  0  0  0  0  0  0  0
  -21.9081    1.3762   28.0655 C   0  0  0  0  0  0  0  0  0  0  0  0
  -23.1823   -0.2227   29.3143 C   0  0  0  0  0  0  0  0  0  0  0  0
  -21.9586    0.4023   28.9712 C   0  0  0  0  0  0  0  0  0  0  0  0
  -29.2168   -2.8933   30.2508 Cl  0  0  0  0  0  0  0  0  0  0  0  0
  -27.1496    0.9083   27.7088 O   0  0  0  0  0  0  0  0  0  0  0  0
  -28.3836    1.4029   27.3875 C   0  0  0  0  0  0  0  0  0  0  0  0
  -29.0094    2.1769   28.1886 C   0  0  0  0  0  0  0  0  0  0  0  0
  -28.3740    2.8258   29.0293 O   0  0  0  0  0  0  0  0  0  0  0  0
  -30.3464    2.1967   28.2584 N   0  0  0  0  0  0  0  0  0  0  0  0
  -31.1227    3.0503   29.2321 C   0  0  0  0  0  0  0  0  0  0  0  0
  -31.1851    1.4372   27.3805 C   0  0  0  0  0  0  0  0  0  0  0  0
  -28.2458    2.0616   25.9815 C   0  0  0  0  0  0  0  0  0  0  0  0
  -28.4128    1.5725   25.0829 C   0  0  0  0  0  0  0  0  0  0  0  0
  -28.3881    0.1666   24.8075 C   0  0  0  0  0  0  0  0  0  0  0  0
  -28.0939   -0.6518   25.7946 C   0  0  0  0  0  0  0  0  0  0  0  0
  -32.5154    1.3882   27.7460 C   0  0  0  0  0  0  0  0  0  0  0  0
  -33.0277    2.1613   28.5317 C   0  0  0  0  0  0  0  0  0  0  0  0
  -32.3888    2.9522   29.4107 C   0  0  0  0  0  0  0  0  0  0  0  0
  -28.6417   -0.1456   27.0974 C   0  0  0  0  0  0  0  0  0  0  0  0
  -29.7066   -0.5501   27.4945 O   0  0  0  0  0  0  0  0  0  0  0  0
  -29.1483   -0.4859   29.0071 O   0  0  0  0  0  0  0  0  0  0  0  0
  -30.7216   -1.1148   27.2861 C   0  0  0  0  0  0  0  0  0  0  0  0
  -30.1040   -0.0583   29.8969 C   0  0  0  0  0  0  0  0  0  0  0  0
  -28.7664   -1.1393   27.5892 Cl  0  0  0  0  0  0  0  0  0  0  0  0
  3  7  1  0
  6 13  1  0
  2 14  1  0
 14 15  1  0
 15 16  1  0
 16 17  2  0
 16 18  1  0
 18 19  1  0
 18 20  1  0
 15 21  1  0
 22 23  1  0
 23 24  1  0
 25 26  1  0
 15 28  1  0
 24 28  1  0
 28 29  1  0
  1 30  1  0
 29 31  1  0
 30 32  1  0
 28 33  1  0
 19 27  1  0
 27 26  1  0
 25 20  1  0
 21 22  1  0
  7  8  2  0
  8  9  1  0
  9 10  2  0
 10 12  1  0
 12 11  2  0
 11  7  1  0
  1  2  2  0
  2  3  1  0
  3  4  2  0
  4  5  1  0
  5  6  2  0
  6  1  1  0
M  END

$$$$
