No_4916-gen_results/8p0m/2024-11-26-14-13-15/
     RDKit          3D

 35 38  0  0  0  0  0  0  0  0999 V2000
  -28.0162   -0.8135   28.8779 C   0  0  0  0  0  0  0  0  0  0  0  0
  -27.0636   -0.1189   28.6079 C   0  0  0  0  0  0  0  0  0  0  0  0
  -25.7923   -0.4302   29.0761 C   0  0  0  0  0  0  0  0  0  0  0  0
  -24.5456    0.3494   28.8225 C   0  0  0  0  0  0  0  0  0  0  0  0
  -24.6586    1.4196   27.8878 C   0  0  0  0  0  0  0  0  0  0  0  0
  -25.9471    1.6811   27.3792 C   0  0  0  0  0  0  0  0  0  0  0  0
  -27.0439    0.9739   27.6871 C   0  0  0  0  0  0  0  0  0  0  0  0
  -27.9517   -1.7518   29.9375 N   0  0  0  0  0  0  0  0  0  0  0  0
  -29.1984   -0.5344   28.5255 O   0  0  0  0  0  0  0  0  0  0  0  0
  -29.0453   -2.5720   30.4456 C   0  0  0  0  0  0  0  0  0  0  0  0
  -23.4612    2.1665   27.5992 C   0  0  0  0  0  0  0  0  0  0  0  0
  -22.3513    1.4705   27.1575 C   0  0  0  0  0  0  0  0  0  0  0  0
  -23.1441    3.1394   28.5222 C   0  0  0  0  0  0  0  0  0  0  0  0
  -23.8926    3.1351   26.3399 C   0  0  0  0  0  0  0  0  0  0  0  0
  -28.7960   -3.9542   30.4040 C   0  0  0  0  0  0  0  0  0  0  0  0
  -29.9665   -4.7744   30.1258 C   0  0  0  0  0  0  0  0  0  0  0  0
  -31.1651   -4.1766   29.9797 C   0  0  0  0  0  0  0  0  0  0  0  0
  -31.3312   -2.8167   30.0150 C   0  0  0  0  0  0  0  0  0  0  0  0
  -30.1521   -1.9842   30.9061 C   0  0  0  0  0  0  0  0  0  0  0  0
  -32.2840   -5.0695   29.7698 C   0  0  0  0  0  0  0  0  0  0  0  0
  -32.3804   -6.1608   29.6219 O   0  0  0  0  0  0  0  0  0  0  0  0
  -33.5338   -4.4819   29.9465 O   0  0  0  0  0  0  0  0  0  0  0  0
  -23.2822   -0.0485   29.4122 C   0  0  0  0  0  0  0  0  0  0  0  0
  -23.2137    0.0521   30.7030 C   0  0  0  0  0  0  0  0  0  0  0  0
  -22.1782    0.5969   28.6984 C   0  0  0  0  0  0  0  0  0  0  0  0
  -23.0741   -1.5848   29.0345 C   0  0  0  0  0  0  0  0  0  0  0  0
  -20.8950    0.3077   28.9191 O   0  0  0  0  0  0  0  0  0  0  0  0
  -34.6618   -4.9566   29.5171 C   0  0  0  0  0  0  0  0  0  0  0  0
  -35.5820   -4.0500   28.8638 C   0  0  0  0  0  0  0  0  0  0  0  0
  -35.4236   -2.7480   29.1764 C   0  0  0  0  0  0  0  0  0  0  0  0
  -35.7431   -2.3435   30.3598 N   0  0  0  0  0  0  0  0  0  0  0  0
  -35.1986   -1.3773   30.9789 C   0  0  0  0  0  0  0  0  0  0  0  0
  -34.6020   -0.3223   30.1937 C   0  0  0  0  0  0  0  0  0  0  0  0
  -34.3995   -0.6207   28.8196 C   0  0  0  0  0  0  0  0  0  0  0  0
  -34.7473   -1.8840   28.3691 C   0  0  0  0  0  0  0  0  0  0  0  0
  1  2  1  0
  1  8  1  0
  1  9  2  0
  8 10  1  0
  5 11  1  0
 11 12  1  0
 11 13  1  0
 11 14  1  0
 17 20  1  0
 20 21  2  0
 20 22  1  0
  4 23  1  0
 23 24  1  0
 12 25  1  0
 23 25  1  0
 23 26  1  0
 25 27  2  0
 22 28  1  0
 28 29  1  0
 29 30  1  0
  2  3  2  0
  3  4  1  0
  4  5  2  0
  5  6  1  0
  6  7  2  0
  7  2  1  0
 10 15  2  0
 15 16  1  0
 16 17  2  0
 17 18  1  0
 18 19  2  0
 19 10  1  0
 30 31  2  0
 31 32  1  0
 32 33  2  0
 33 34  1  0
 34 35  2  0
 35 30  1  0
M  END

$$$$
