No_4535-gen_results/8p0m/2024-11-26-14-13-15/
     RDKit          3D

 22 25  0  0  0  0  0  0  0  0999 V2000
  -28.0162   -0.8135   28.8779 C   0  0  0  0  0  0  0  0  0  0  0  0
  -27.0636   -0.1189   28.6079 C   0  0  0  0  0  0  0  0  0  0  0  0
  -26.9287    1.1713   29.0083 C   0  0  0  0  0  0  0  0  0  0  0  0
  -27.9560    1.7411   29.7840 C   0  0  0  0  0  0  0  0  0  0  0  0
  -29.0569   -0.3271   29.7466 C   0  0  0  0  0  0  0  0  0  0  0  0
  -30.1704   -1.1582   30.1327 C   0  0  0  0  0  0  0  0  0  0  0  0
  -28.9772    0.9577   30.1786 C   0  0  0  0  0  0  0  0  0  0  0  0
  -31.2739   -1.0414   29.5690 C   0  0  0  0  0  0  0  0  0  0  0  0
  -32.3223   -1.9908   29.7858 C   0  0  0  0  0  0  0  0  0  0  0  0
  -33.5198   -1.9382   29.0600 C   0  0  0  0  0  0  0  0  0  0  0  0
  -29.7561   -2.5806   30.4076 C   0  0  0  0  0  0  0  0  0  0  0  0
  -30.7240   -3.5490   30.7103 C   0  0  0  0  0  0  0  0  0  0  0  0
  -31.9400   -3.2668   30.1889 C   0  0  0  0  0  0  0  0  0  0  0  0
  -33.8388   -0.7495   28.5993 N   0  0  0  0  0  0  0  0  0  0  0  0
  -34.4394   -2.7130   29.2944 O   0  0  0  0  0  0  0  0  0  0  0  0
  -35.1404   -0.4348   27.9805 C   0  0  0  0  0  0  0  0  0  0  0  0
  -25.7529   -0.8948   27.7287 Cl  0  0  0  0  0  0  0  0  0  0  0  0
  -35.2012    0.6855   27.3756 C   0  0  0  0  0  0  0  0  0  0  0  0
  -34.1496    1.5980   27.2990 C   0  0  0  0  0  0  0  0  0  0  0  0
  -32.8821    1.2852   27.8233 C   0  0  0  0  0  0  0  0  0  0  0  0
  -32.7246    0.1822   28.3741 C   0  0  0  0  0  0  0  0  0  0  0  0
  -31.5654   -0.0828   28.9860 N   0  0  0  0  0  0  0  0  0  0  0  0
  5  6  1  0
  9 10  1  0
 10 14  1  0
 10 15  2  0
 14 16  1  0
  2 17  1  0
 18 19  1  0
 14 21  1  0
 20 21  1  0
  8 22  1  0
 22 21  1  0
 16 18  1  0
 19 20  1  0
  1  2  2  0
  2  3  1  0
  3  4  2  0
  4  7  1  0
  7  5  2  0
  5  1  1  0
  6  8  2  0
  8  9  1  0
  9 13  2  0
 13 12  1  0
 12 11  2  0
 11  6  1  0
M  END

$$$$
