No_4683-gen_results/8p0m/2024-11-26-14-13-15/
     RDKit          3D

 29 32  0  0  0  0  0  0  0  0999 V2000
  -28.0162   -0.8135   28.8779 C   0  0  0  0  0  0  0  0  0  0  0  0
  -28.4690   -0.7850   29.8287 C   0  0  0  0  0  0  0  0  0  0  0  0
  -27.1356    0.2359   28.5352 C   0  0  0  0  0  0  0  0  0  0  0  0
  -26.8745    1.2825   29.3982 C   0  0  0  0  0  0  0  0  0  0  0  0
  -28.3613    0.1987   30.9244 C   0  0  0  0  0  0  0  0  0  0  0  0
  -27.5277    1.2234   30.6356 C   0  0  0  0  0  0  0  0  0  0  0  0
  -26.3987    0.2949   27.2279 C   0  0  0  0  0  0  0  0  0  0  0  0
  -26.8913    0.5126   26.1471 N   0  0  0  0  0  0  0  0  0  0  0  0
  -25.0914   -0.3153   27.2121 N   0  0  0  0  0  0  0  0  0  0  0  0
  -28.1257    1.0140   25.9278 C   0  0  0  0  0  0  0  0  0  0  0  0
  -28.6241    1.8356   26.7354 C   0  0  0  0  0  0  0  0  0  0  0  0
  -29.0194    0.0839   25.2436 C   0  0  0  0  0  0  0  0  0  0  0  0
  -29.9944    2.3645   26.4690 C   0  0  0  0  0  0  0  0  0  0  0  0
  -30.3185    0.5156   24.9157 C   0  0  0  0  0  0  0  0  0  0  0  0
  -30.7842    1.6484   25.6186 C   0  0  0  0  0  0  0  0  0  0  0  0
  -24.5003   -0.7509   28.4369 C   0  0  0  0  0  0  0  0  0  0  0  0
  -24.4436   -1.9603   28.7478 C   0  0  0  0  0  0  0  0  0  0  0  0
  -23.8882   -2.4051   29.9676 C   0  0  0  0  0  0  0  0  0  0  0  0
  -23.3914   -1.4364   30.8516 C   0  0  0  0  0  0  0  0  0  0  0  0
  -23.9811    0.2889   29.2997 C   0  0  0  0  0  0  0  0  0  0  0  0
  -23.3955   -0.1047   30.5134 C   0  0  0  0  0  0  0  0  0  0  0  0
  -29.4905   -1.9239   30.3165 C   0  0  0  0  0  0  0  0  0  0  0  0
  -29.1143   -2.9958   30.4524 O   0  0  0  0  0  0  0  0  0  0  0  0
  -30.8104   -1.6698   30.4484 N   0  0  0  0  0  0  0  0  0  0  0  0
  -31.7605   -2.2353   30.3424 C   0  0  0  0  0  0  0  0  0  0  0  0
  -32.9536   -1.6645   30.3362 C   0  0  0  0  0  0  0  0  0  0  0  0
  -32.9194   -0.2766   30.4855 C   0  0  0  0  0  0  0  0  0  0  0  0
  -31.9334    0.3095   30.4968 C   0  0  0  0  0  0  0  0  0  0  0  0
  -30.7605   -0.1455   30.4444 C   0  0  0  0  0  0  0  0  0  0  0  0
  3  7  1  0
  7  8  2  3
  7  9  1  0
  8 10  1  0
  9 16  1  0
  2 22  1  0
 22 23  2  0
 22 24  1  0
 24 25  1  0
 26 27  1  0
 24 29  1  0
 28 29  1  0
 25 26  1  0
 27 28  1  0
 10 11  2  0
 11 13  1  0
 13 15  2  0
 15 14  1  0
 14 12  2  0
 12 10  1  0
  1  2  2  0
  2  5  1  0
  5  6  2  0
  6  4  1  0
  4  3  2  0
  3  1  1  0
 16 17  2  0
 17 18  1  0
 18 19  2  0
 19 21  1  0
 21 20  2  0
 20 16  1  0
M  END

$$$$
