No_4303-gen_results/8p0m/2024-11-26-14-13-15/
     RDKit          3D

 13 13  0  0  0  0  0  0  0  0999 V2000
  -28.0162   -0.8135   28.8779 C   0  0  0  0  0  0  0  0  0  0  0  0
  -28.4690   -0.7850   29.8287 C   0  0  0  0  0  0  0  0  0  0  0  0
  -26.5455   -0.8762   28.8500 C   0  0  0  0  0  0  0  0  0  0  0  0
  -25.8041   -1.0324   30.0571 C   0  0  0  0  0  0  0  0  0  0  0  0
  -26.5373   -1.0386   31.2171 C   0  0  0  0  0  0  0  0  0  0  0  0
  -27.8843   -0.9532   31.1862 C   0  0  0  0  0  0  0  0  0  0  0  0
  -24.3655   -1.1134   30.0483 C   0  0  0  0  0  0  0  0  0  0  0  0
  -23.9041   -1.6766   29.0966 F   0  0  0  0  0  0  0  0  0  0  0  0
  -23.7961    0.1579   30.0193 F   0  0  0  0  0  0  0  0  0  0  0  0
  -23.8669   -1.6504   31.2171 F   0  0  0  0  0  0  0  0  0  0  0  0
  -25.5172   -2.0521   29.8105 F   0  0  0  0  0  0  0  0  0  0  0  0
  -25.9987    0.2309   28.3026 O   0  0  0  0  0  0  0  0  0  0  0  0
  -25.7807    0.3878   26.8911 C   0  0  0  0  0  0  0  0  0  0  0  0
  1  2  2  0
  1  3  1  0
  3  4  1  0
  4  5  1  0
  2  6  1  0
  5  6  2  0
  4  7  1  0
  7  8  1  0
  7  9  1  0
  7 10  1  0
  4 11  1  0
  3 12  1  0
 12 13  1  0
M  END

$$$$
