No_4233-gen_results/8p0m/2024-11-26-14-13-15/
     RDKit          3D

 28 30  0  0  0  0  0  0  0  0999 V2000
  -28.1229   -1.3353   28.4874 O   0  0  0  0  0  0  0  0  0  0  0  0
  -27.0637   -0.8242   28.8687 C   0  0  0  0  0  0  0  0  0  0  0  0
  -26.9592    0.0926   29.7582 C   0  0  0  0  0  0  0  0  0  0  0  0
  -25.8472   -1.5491   28.6589 N   0  0  0  0  0  0  0  0  0  0  0  0
  -25.7222    0.7177   30.1925 C   0  0  0  0  0  0  0  0  0  0  0  0
  -24.5852   -1.0823   29.0632 C   0  0  0  0  0  0  0  0  0  0  0  0
  -24.5116    0.0345   29.8223 C   0  0  0  0  0  0  0  0  0  0  0  0
  -23.3616    0.7791   30.1306 C   0  0  0  0  0  0  0  0  0  0  0  0
  -22.1629    0.0670   29.7877 N   0  0  0  0  0  0  0  0  0  0  0  0
  -23.2531    1.8075   30.7206 O   0  0  0  0  0  0  0  0  0  0  0  0
  -28.2116    0.8429   30.1428 C   0  0  0  0  0  0  0  0  0  0  0  0
  -28.8968    0.3137   30.8785 O   0  0  0  0  0  0  0  0  0  0  0  0
  -28.3583    1.9950   29.6374 O   0  0  0  0  0  0  0  0  0  0  0  0
  -29.5337    2.5367   29.2955 C   0  0  0  0  0  0  0  0  0  0  0  0
  -29.5419    3.4087   28.4368 C   0  0  0  0  0  0  0  0  0  0  0  0
  -28.3190    3.9425   27.8740 C   0  0  0  0  0  0  0  0  0  0  0  0
  -27.2381    3.9225   28.5914 C   0  0  0  0  0  0  0  0  0  0  0  0
  -25.8547    4.4054   28.1555 C   0  0  0  0  0  0  0  0  0  0  0  0
  -25.9024    5.5053   27.3650 C   0  0  0  0  0  0  0  0  0  0  0  0
  -27.1308    5.7604   26.6594 C   0  0  0  0  0  0  0  0  0  0  0  0
  -28.2829    5.1145   26.9024 C   0  0  0  0  0  0  0  0  0  0  0  0
  -24.7976    6.0841   26.9895 F   0  0  0  0  0  0  0  0  0  0  0  0
  -22.0885   -1.0816   29.0828 C   0  0  0  0  0  0  0  0  0  0  0  0
  -23.3516   -1.6821   28.6859 C   0  0  0  0  0  0  0  0  0  0  0  0
  -30.5470    1.4173   29.0406 C   0  0  0  0  0  0  0  0  0  0  0  0
  -31.4719    1.6192   28.4014 N   0  0  0  0  0  0  0  0  0  0  0  0
  -32.1963    0.7729   27.6868 C   0  0  0  0  0  0  0  0  0  0  0  0
  -33.2384    1.1440   26.8859 C   0  0  0  0  0  0  0  0  0  0  0  0
  1  2  2  0
  2  3  1  0
  2  4  1  0
  4  6  1  0
  5  7  1  0
  7  8  1  0
  8  9  1  0
  8 10  2  0
  3 11  1  0
 11 12  2  0
 11 13  1  0
 13 14  1  0
 14 15  2  3
 15 16  1  0
 19 22  1  0
  6 24  1  0
 23 24  1  0
 14 25  1  0
 25 26  1  0
 26 27  1  0
 27 28  2  0
  3  5  1  0
  7  6  1  0
 23  9  1  0
 16 17  2  0
 17 18  1  0
 18 19  2  0
 19 20  1  0
 20 21  2  0
 21 16  1  0
M  END

$$$$
