No_4609-gen_results/8p0m/2024-11-26-14-13-15/
     RDKit          3D

 27 29  0  0  0  0  0  0  0  0999 V2000
  -28.0162   -0.8135   28.8779 C   0  0  0  0  0  0  0  0  0  0  0  0
  -27.0636   -0.1189   28.6079 C   0  0  0  0  0  0  0  0  0  0  0  0
  -27.0010    0.6913   27.4910 C   0  0  0  0  0  0  0  0  0  0  0  0
  -25.8548    1.4825   27.0830 C   0  0  0  0  0  0  0  0  0  0  0  0
  -24.6901    1.4526   27.8807 C   0  0  0  0  0  0  0  0  0  0  0  0
  -24.7379    0.6010   29.0416 C   0  0  0  0  0  0  0  0  0  0  0  0
  -25.8234   -0.1688   29.3887 C   0  0  0  0  0  0  0  0  0  0  0  0
  -29.2150   -0.1726   29.0132 N   0  0  0  0  0  0  0  0  0  0  0  0
  -30.2463   -0.7736   29.6388 C   0  0  0  0  0  0  0  0  0  0  0  0
  -23.6618    2.1456   27.5906 F   0  0  0  0  0  0  0  0  0  0  0  0
  -27.8919   -1.9293   29.4935 O   0  0  0  0  0  0  0  0  0  0  0  0
  -31.0387    0.0369   30.5311 C   0  0  0  0  0  0  0  0  0  0  0  0
  -32.0466   -0.4484   31.1266 C   0  0  0  0  0  0  0  0  0  0  0  0
  -32.4335   -1.8153   30.8860 C   0  0  0  0  0  0  0  0  0  0  0  0
  -31.7141   -2.6019   30.0359 C   0  0  0  0  0  0  0  0  0  0  0  0
  -30.6380   -2.0691   29.4124 C   0  0  0  0  0  0  0  0  0  0  0  0
  -32.1297   -4.2364   29.7989 Cl  0  0  0  0  0  0  0  0  0  0  0  0
  -23.4348    0.5368   29.8450 C   0  0  0  0  0  0  0  0  0  0  0  0
  -22.3163    0.4141   29.3348 N   0  0  0  0  0  0  0  0  0  0  0  0
  -23.5735    1.0012   31.0747 O   0  0  0  0  0  0  0  0  0  0  0  0
  -29.4850    1.1166   28.3879 C   0  0  0  0  0  0  0  0  0  0  0  0
  -30.2159    1.3164   27.2152 C   0  0  0  0  0  0  0  0  0  0  0  0
  -30.9184    0.2543   26.6907 C   0  0  0  0  0  0  0  0  0  0  0  0
  -31.6352    0.3578   25.5395 C   0  0  0  0  0  0  0  0  0  0  0  0
  -31.6482    1.6152   24.9406 C   0  0  0  0  0  0  0  0  0  0  0  0
  -30.9614    2.7204   25.3937 C   0  0  0  0  0  0  0  0  0  0  0  0
  -30.2301    2.6028   26.5900 C   0  0  0  0  0  0  0  0  0  0  0  0
  1  2  1  0
  1  8  1  0
  8  9  1  0
  5 10  1  0
  1 11  2  0
 15 17  1  0
  6 18  1  0
 18 19  1  0
 18 20  2  0
  8 21  1  0
 21 22  1  0
  2  3  2  0
  3  4  1  0
  4  5  2  0
  5  6  1  0
  6  7  2  0
  7  2  1  0
 22 23  2  0
 23 24  1  0
 24 25  2  0
 25 26  1  0
 26 27  2  0
 27 22  1  0
  9 12  2  0
 12 13  1  0
 13 14  2  0
 14 15  1  0
 15 16  2  0
 16  9  1  0
M  END

$$$$
