No_4834-gen_results/8p0m/2024-11-26-14-13-15/
     RDKit          3D

 16 16  0  0  0  0  0  0  0  0999 V2000
  -28.0162   -0.8135   28.8779 C   0  0  0  0  0  0  0  0  0  0  0  0
  -28.4690   -0.7850   29.8287 C   0  0  0  0  0  0  0  0  0  0  0  0
  -28.1960    0.3478   28.0550 C   0  0  0  0  0  0  0  0  0  0  0  0
  -29.0191    1.3501   28.3782 C   0  0  0  0  0  0  0  0  0  0  0  0
  -29.4107    0.1803   30.3782 C   0  0  0  0  0  0  0  0  0  0  0  0
  -29.6059    1.2495   29.6193 C   0  0  0  0  0  0  0  0  0  0  0  0
  -27.4478    0.3799   26.7122 C   0  0  0  0  0  0  0  0  0  0  0  0
  -26.6377    1.4000   26.5197 N   0  0  0  0  0  0  0  0  0  0  0  0
  -25.3413    1.1683   26.1893 C   0  0  0  0  0  0  0  0  0  0  0  0
  -24.3803    2.2433   26.2180 C   0  0  0  0  0  0  0  0  0  0  0  0
  -23.0146    1.9924   26.3332 C   0  0  0  0  0  0  0  0  0  0  0  0
  -22.3126    1.9050   27.5357 C   0  0  0  0  0  0  0  0  0  0  0  0
  -20.9942    1.4438   27.4552 N   0  0  0  0  0  0  0  0  0  0  0  0
  -22.9537    1.9219   28.6612 O   0  0  0  0  0  0  0  0  0  0  0  0
  -27.1623    2.7081   26.4638 C   0  0  0  0  0  0  0  0  0  0  0  0
  -30.6259    2.7510   30.0726 Br  0  0  0  0  0  0  0  0  0  0  0  0
  3  7  1  0
  7  8  1  0
  8  9  1  0
  9 10  2  3
 10 11  1  0
 11 12  1  0
 12 13  1  0
 12 14  2  0
  8 15  1  0
  6 16  1  0
  1  2  2  0
  2  5  1  0
  5  6  2  0
  6  4  1  0
  4  3  2  0
  3  1  1  0
M  END

$$$$
