No_4089-gen_results/8p0m/2024-11-26-14-13-15/
     RDKit          3D

 21 24  0  0  0  0  0  0  0  0999 V2000
  -28.0162   -0.8135   28.8779 C   0  0  0  0  0  0  0  0  0  0  0  0
  -27.0636   -0.1189   28.6079 C   0  0  0  0  0  0  0  0  0  0  0  0
  -25.7923   -0.4302   29.0761 C   0  0  0  0  0  0  0  0  0  0  0  0
  -25.5756   -1.5654   29.9363 C   0  0  0  0  0  0  0  0  0  0  0  0
  -26.7354   -2.3004   30.2173 C   0  0  0  0  0  0  0  0  0  0  0  0
  -27.9184   -1.9537   29.7629 C   0  0  0  0  0  0  0  0  0  0  0  0
  -29.0732   -2.7835   30.1783 C   0  0  0  0  0  0  0  0  0  0  0  0
  -29.0022   -3.9850   30.2347 O   0  0  0  0  0  0  0  0  0  0  0  0
  -30.1809   -2.1900   30.4596 O   0  0  0  0  0  0  0  0  0  0  0  0
  -26.8666    1.0878   27.6976 C   0  0  0  0  0  0  0  0  0  0  0  0
  -27.8675    1.5902   27.2088 C   0  0  0  0  0  0  0  0  0  0  0  0
  -27.8205    2.7102   26.2973 C   0  0  0  0  0  0  0  0  0  0  0  0
  -26.5702    3.2291   25.9035 C   0  0  0  0  0  0  0  0  0  0  0  0
  -25.4081    2.6150   26.4308 C   0  0  0  0  0  0  0  0  0  0  0  0
  -25.5390    1.5646   27.3266 C   0  0  0  0  0  0  0  0  0  0  0  0
  -24.0975    3.1684   26.0808 C   0  0  0  0  0  0  0  0  0  0  0  0
  -22.9422    2.2949   26.3671 C   0  0  0  0  0  0  0  0  0  0  0  0
  -23.1404    1.2922   27.4141 C   0  0  0  0  0  0  0  0  0  0  0  0
  -24.3774    0.8981   27.7606 C   0  0  0  0  0  0  0  0  0  0  0  0
  -24.4972   -0.2133   28.6772 C   0  0  0  0  0  0  0  0  0  0  0  0
  -23.4366   -0.7064   29.0580 F   0  0  0  0  0  0  0  0  0  0  0  0
  6  7  1  0
  7  8  2  0
  7  9  1  0
  2 10  1  0
  3 20  1  0
 19 20  1  0
 20 21  1  0
  1  2  2  0
  2  3  1  0
  3  4  2  0
  4  5  1  0
  5  6  2  0
  6  1  1  0
 15 19  2  0
 19 18  1  0
 18 17  2  0
 17 16  1  0
 16 14  2  0
 10 11  2  0
 11 12  1  0
 12 13  2  0
 13 14  1  0
 14 15  1  0
 15 10  1  0
M  END

$$$$
