No_4620-gen_results/8p0m/2024-11-26-14-13-15/
     RDKit          3D

 13 14  0  0  0  0  0  0  0  0999 V2000
  -28.0162   -0.8135   28.8779 C   0  0  0  0  0  0  0  0  0  0  0  0
  -28.4690   -0.7850   29.8287 C   0  0  0  0  0  0  0  0  0  0  0  0
  -26.5042   -0.7777   28.8766 C   0  0  0  0  0  0  0  0  0  0  0  0
  -25.9150   -0.6580   29.9230 C   0  0  0  0  0  0  0  0  0  0  0  0
  -27.9691   -0.7243   31.2047 C   0  0  0  0  0  0  0  0  0  0  0  0
  -24.4089   -0.5955   30.0365 C   0  0  0  0  0  0  0  0  0  0  0  0
  -26.5503   -0.6554   31.1921 C   0  0  0  0  0  0  0  0  0  0  0  0
  -23.6800   -0.0974   29.0041 C   0  0  0  0  0  0  0  0  0  0  0  0
  -22.2692   -0.0591   29.1110 C   0  0  0  0  0  0  0  0  0  0  0  0
  -21.5160    0.5181   28.0726 C   0  0  0  0  0  0  0  0  0  0  0  0
  -22.1511    1.4104   27.1928 C   0  0  0  0  0  0  0  0  0  0  0  0
  -23.4991    1.6329   27.2367 C   0  0  0  0  0  0  0  0  0  0  0  0
  -24.2998    0.9445   28.2155 C   0  0  0  0  0  0  0  0  0  0  0  0
  4  6  1  0
  6  8  1  0
  8  9  2  0
  9 10  1  0
 10 11  2  0
 11 12  1  0
 12 13  2  0
 13  8  1  0
  1  2  2  0
  2  5  1  0
  5  7  2  0
  7  4  1  0
  4  3  2  0
  3  1  1  0
M  END

$$$$
