No_4494-gen_results/8p0m/2024-11-26-14-13-15/
     RDKit          3D

 19 20  0  0  0  0  0  0  0  0999 V2000
  -28.0162   -0.8135   28.8779 C   0  0  0  0  0  0  0  0  0  0  0  0
  -27.0636   -0.1190   28.6079 C   0  0  0  0  0  0  0  0  0  0  0  0
  -26.9716    0.7139   27.5060 C   0  0  0  0  0  0  0  0  0  0  0  0
  -28.1053    0.7744   26.6421 C   0  0  0  0  0  0  0  0  0  0  0  0
  -29.2041    0.1179   27.0477 C   0  0  0  0  0  0  0  0  0  0  0  0
  -29.2127   -0.6088   28.1281 C   0  0  0  0  0  0  0  0  0  0  0  0
  -25.7106    1.4518   27.1380 C   0  0  0  0  0  0  0  0  0  0  0  0
  -24.6052    0.9253   27.6902 C   0  0  0  0  0  0  0  0  0  0  0  0
  -23.3376    1.6509   27.5495 C   0  0  0  0  0  0  0  0  0  0  0  0
  -23.2759    2.6042   26.5496 C   0  0  0  0  0  0  0  0  0  0  0  0
  -25.5691    2.4861   26.2457 C   0  0  0  0  0  0  0  0  0  0  0  0
  -24.3971    3.1285   26.0142 C   0  0  0  0  0  0  0  0  0  0  0  0
  -22.0978    1.0757   28.1378 C   0  0  0  0  0  0  0  0  0  0  0  0
  -22.0793    0.0566   28.8801 O   0  0  0  0  0  0  0  0  0  0  0  0
  -20.9818    1.7776   27.9893 O   0  0  0  0  0  0  0  0  0  0  0  0
  -30.5099    0.1513   26.3788 C   0  0  0  0  0  0  0  0  0  0  0  0
  -30.5690    0.1506   25.1886 O   0  0  0  0  0  0  0  0  0  0  0  0
  -31.6303   -0.2743   27.0112 N   0  0  0  0  0  0  0  0  0  0  0  0
  -32.8759   -0.4014   26.3283 C   0  0  0  0  0  0  0  0  0  0  0  0
  3  7  1  0
  9 13  1  0
 13 14  2  0
 13 15  1  0
  5 16  1  0
 16 17  2  0
 16 18  1  0
 18 19  1  0
  7  8  2  0
  8  9  1  0
  9 10  2  0
 10 12  1  0
 12 11  2  0
 11  7  1  0
  1  2  2  0
  2  3  1  0
  3  4  2  0
  4  5  1  0
  5  6  2  0
  6  1  1  0
M  END

$$$$
