No_4082-gen_results/8p0m/2024-11-26-14-13-15/
     RDKit          3D

 35 36  0  0  0  0  0  0  0  0999 V2000
  -28.0162   -0.8135   28.8779 C   0  0  0  0  0  0  0  0  0  0  0  0
  -27.0636   -0.1190   28.6079 C   0  0  0  0  0  0  0  0  0  0  0  0
  -25.7647   -0.3897   29.0360 C   0  0  0  0  0  0  0  0  0  0  0  0
  -24.5516    0.4058   28.7646 C   0  0  0  0  0  0  0  0  0  0  0  0
  -24.6957    1.4480   27.7988 C   0  0  0  0  0  0  0  0  0  0  0  0
  -25.9755    1.7250   27.3077 C   0  0  0  0  0  0  0  0  0  0  0  0
  -27.0718    1.0134   27.6535 C   0  0  0  0  0  0  0  0  0  0  0  0
  -28.6247   -0.5797   30.0969 N   0  0  0  0  0  0  0  0  0  0  0  0
  -23.4943    2.1676   27.4757 C   0  0  0  0  0  0  0  0  0  0  0  0
  -22.6134    1.3573   26.4678 C   0  0  0  0  0  0  0  0  0  0  0  0
  -29.6354   -1.3258   30.6478 C   0  0  0  0  0  0  0  0  0  0  0  0
  -30.2102   -2.2482   29.9650 C   0  0  0  0  0  0  0  0  0  0  0  0
  -30.0384   -1.0633   31.8785 O   0  0  0  0  0  0  0  0  0  0  0  0
  -30.2873   -2.7843   29.0842 O   0  0  0  0  0  0  0  0  0  0  0  0
  -31.2667   -2.9395   30.9346 N   0  0  0  0  0  0  0  0  0  0  0  0
  -32.0395   -4.0480   30.4986 C   0  0  0  0  0  0  0  0  0  0  0  0
  -23.4167    0.0042   29.2202 F   0  0  0  0  0  0  0  0  0  0  0  0
  -28.4368    1.3484   27.1310 C   0  0  0  0  0  0  0  0  0  0  0  0
  -29.0010    2.2259   27.6196 O   0  0  0  0  0  0  0  0  0  0  0  0
  -29.0174    0.3403   26.3960 O   0  0  0  0  0  0  0  0  0  0  0  0
  -30.3033    0.5372   25.9559 C   0  0  0  0  0  0  0  0  0  0  0  0
  -30.6997   -0.5887   25.2854 C   0  0  0  0  0  0  0  0  0  0  0  0
  -30.0318   -1.0718   24.4146 O   0  0  0  0  0  0  0  0  0  0  0  0
  -31.9576   -1.1201   25.4184 N   0  0  0  0  0  0  0  0  0  0  0  0
  -32.4172   -2.3266   24.8239 C   0  0  0  0  0  0  0  0  0  0  0  0
  -32.9429   -0.7068   26.5006 C   0  0  0  0  0  0  0  0  0  0  0  0
  -26.0731    2.8868   26.3632 C   0  0  0  0  0  0  0  0  0  0  0  0
  -33.8688   -1.4312   26.8092 C   0  0  0  0  0  0  0  0  0  0  0  0
  -34.2395   -2.5004   25.9785 C   0  0  0  0  0  0  0  0  0  0  0  0
  -33.3726   -3.0240   25.0970 C   0  0  0  0  0  0  0  0  0  0  0  0
  -25.5106   -1.5321   30.0198 C   0  0  0  0  0  0  0  0  0  0  0  0
  -25.3567   -2.6513   29.5805 O   0  0  0  0  0  0  0  0  0  0  0  0
  -26.3372   -3.6619   29.5704 C   0  0  0  0  0  0  0  0  0  0  0  0
  -27.4694   -3.5245   30.3505 C   0  0  0  0  0  0  0  0  0  0  0  0
  -28.2912   -4.6787   30.6727 C   0  0  0  0  0  0  0  0  0  0  0  0
  1  8  1  0
  5  9  1  0
  9 10  1  0
  8 11  1  0
 11 12  1  0
 11 13  2  0
 12 14  2  0
 12 15  1  0
 15 16  1  0
  4 17  1  0
  7 18  1  0
 18 19  2  0
 18 20  1  0
 20 21  1  0
 21 22  1  0
 22 23  2  0
 22 24  1  0
 24 25  1  0
 24 26  1  0
  6 27  1  0
 28 29  1  0
  3 31  1  0
 31 32  1  0
 32 33  1  0
 33 34  2  3
 34 35  1  0
  1  2  1  0
 25 30  1  0
 30 29  1  0
 28 26  1  0
  2  3  2  0
  3  4  1  0
  4  5  2  0
  5  6  1  0
  6  7  2  0
  7  2  1  0
M  END

$$$$
