No_4853-gen_results/8p0m/2024-11-26-14-13-15/
     RDKit          3D

  8  8  0  0  0  0  0  0  0  0999 V2000
  -28.1229   -1.3353   28.4874 O   0  0  0  0  0  0  0  0  0  0  0  0
  -27.4806   -0.4044   28.7094 C   0  0  0  0  0  0  0  0  0  0  0  0
  -27.1904    0.2460   29.5268 C   0  0  0  0  0  0  0  0  0  0  0  0
  -26.8157    0.1371   27.4262 N   0  0  0  0  0  0  0  0  0  0  0  0
  -26.5177    0.6156   30.2044 C   0  0  0  0  0  0  0  0  0  0  0  0
  -25.8264    1.1138   27.5377 C   0  0  0  0  0  0  0  0  0  0  0  0
  -25.1983    1.7151   28.5729 C   0  0  0  0  0  0  0  0  0  0  0  0
  -25.5095    1.5754   29.8966 C   0  0  0  0  0  0  0  0  0  0  0  0
  1  2  2  0
  2  3  1  0
  2  4  1  0
  3  5  3  0
  4  6  1  0
  6  7  2  0
  5  8  1  0
  7  8  1  0
M  END

$$$$
