No_4730-gen_results/8p0m/2024-11-26-14-13-15/
     RDKit          3D

 17 18  0  0  0  0  0  0  0  0999 V2000
  -28.0162   -0.8135   28.8779 C   0  0  0  0  0  0  0  0  0  0  0  0
  -28.4690   -0.7850   29.8287 C   0  0  0  0  0  0  0  0  0  0  0  0
  -27.1356    0.2359   28.5352 C   0  0  0  0  0  0  0  0  0  0  0  0
  -26.8745    1.2825   29.3982 C   0  0  0  0  0  0  0  0  0  0  0  0
  -28.3613    0.1987   30.9244 C   0  0  0  0  0  0  0  0  0  0  0  0
  -27.5277    1.2234   30.6356 C   0  0  0  0  0  0  0  0  0  0  0  0
  -26.3987    0.2949   27.2279 C   0  0  0  0  0  0  0  0  0  0  0  0
  -26.0303    1.4479   26.7584 N   0  0  0  0  0  0  0  0  0  0  0  0
  -26.1891   -0.7238   26.5721 O   0  0  0  0  0  0  0  0  0  0  0  0
  -25.2103    1.5894   25.5493 C   0  0  0  0  0  0  0  0  0  0  0  0
  -23.9712    2.2955   25.8327 C   0  0  0  0  0  0  0  0  0  0  0  0
  -23.8349    2.9096   27.1197 C   0  0  0  0  0  0  0  0  0  0  0  0
  -24.8404    3.5871   27.6487 C   0  0  0  0  0  0  0  0  0  0  0  0
  -26.1088    2.6543   27.5926 C   0  0  0  0  0  0  0  0  0  0  0  0
  -27.1272    2.8987   28.1405 O   0  0  0  0  0  0  0  0  0  0  0  0
  -27.2515    2.4698   28.9862 F   0  0  0  0  0  0  0  0  0  0  0  0
  -25.3864    1.1540   29.9785 C   0  0  0  0  0  0  0  0  0  0  0  0
  3  7  1  0
  7  8  1  0
  7  9  2  0
  8 10  1  0
 10 11  1  0
 11 12  1  0
 12 13  1  0
  8 14  1  0
 13 14  1  0
 14 15  1  0
 15 16  1  0
  4 17  1  0
  1  2  2  0
  2  5  1  0
  5  6  2  0
  6  4  1  0
  4  3  2  0
  3  1  1  0
M  END

$$$$
