No_4860-gen_results/8p0m/2024-11-26-14-13-15/
     RDKit          3D

 21 22  0  0  0  0  0  0  0  0999 V2000
  -28.0162   -0.8135   28.8779 C   0  0  0  0  0  0  0  0  0  0  0  0
  -27.0636   -0.1189   28.6079 C   0  0  0  0  0  0  0  0  0  0  0  0
  -25.7647   -0.3897   29.0360 C   0  0  0  0  0  0  0  0  0  0  0  0
  -25.5296   -1.5302   29.9014 C   0  0  0  0  0  0  0  0  0  0  0  0
  -26.6577   -2.2915   30.2035 C   0  0  0  0  0  0  0  0  0  0  0  0
  -27.8548   -1.9555   29.7630 C   0  0  0  0  0  0  0  0  0  0  0  0
  -24.5349    0.4128   28.7431 C   0  0  0  0  0  0  0  0  0  0  0  0
  -24.4835    1.2431   27.7398 C   0  0  0  0  0  0  0  0  0  0  0  0
  -25.0977    1.6893   26.9916 C   0  0  0  0  0  0  0  0  0  0  0  0
  -26.4846    1.2565   26.8743 C   0  0  0  0  0  0  0  0  0  0  0  0
  -27.1887    0.5155   27.6251 C   0  0  0  0  0  0  0  0  0  0  0  0
  -28.6971    0.4756   27.0778 C   0  0  0  0  0  0  0  0  0  0  0  0
  -28.9148    0.7795   25.9701 O   0  0  0  0  0  0  0  0  0  0  0  0
  -29.5261   -0.3615   27.6758 F   0  0  0  0  0  0  0  0  0  0  0  0
  -29.1621   -0.1838   29.5654 O   0  0  0  0  0  0  0  0  0  0  0  0
  -29.9930    0.1239   30.1621 C   0  0  0  0  0  0  0  0  0  0  0  0
  -23.1402   -0.0638   29.6766 Cl  0  0  0  0  0  0  0  0  0  0  0  0
  -29.8930    0.0157   31.4445 C   0  0  0  0  0  0  0  0  0  0  0  0
  -28.8867    0.6670   32.1326 C   0  0  0  0  0  0  0  0  0  0  0  0
  -28.4693    1.9195   31.7029 C   0  0  0  0  0  0  0  0  0  0  0  0
  -29.1528    2.8668   31.5242 N   0  0  0  0  0  0  0  0  0  0  0  0
  3  7  1  0
  7  8  1  0
  8  9  2  0
  9 10  1  0
  2 11  1  0
 10 11  1  0
 11 12  1  0
 12 13  2  0
 12 14  1  0
  1 15  1  0
 15 16  1  0
  7 17  1  0
 16 18  1  0
 18 19  2  3
 19 20  1  0
 20 21  2  0
  1  2  2  0
  2  3  1  0
  3  4  2  0
  4  5  1  0
  5  6  2  0
  6  1  1  0
M  END

$$$$
