No_414-gen_results/8p0m/2024-11-26-14-13-15/
     RDKit          3D

 21 22  0  0  0  0  0  0  0  0999 V2000
  -28.0162   -0.8135   28.8779 C   0  0  0  0  0  0  0  0  0  0  0  0
  -28.4690   -0.7850   29.8287 C   0  0  0  0  0  0  0  0  0  0  0  0
  -28.1960    0.3478   28.0550 C   0  0  0  0  0  0  0  0  0  0  0  0
  -29.0191    1.3501   28.3782 C   0  0  0  0  0  0  0  0  0  0  0  0
  -29.4107    0.1803   30.3782 C   0  0  0  0  0  0  0  0  0  0  0  0
  -29.6059    1.2495   29.6193 C   0  0  0  0  0  0  0  0  0  0  0  0
  -27.3362    0.3775   26.5214 Cl  0  0  0  0  0  0  0  0  0  0  0  0
  -30.2445    0.0147   31.9079 Cl  0  0  0  0  0  0  0  0  0  0  0  0
  -30.5679    2.3462   29.8424 C   0  0  0  0  0  0  0  0  0  0  0  0
  -31.6108    2.4936   29.9318 C   0  0  0  0  0  0  0  0  0  0  0  0
  -32.3695    3.7089   30.2338 C   0  0  0  0  0  0  0  0  0  0  0  0
  -29.7096    3.6296   30.1269 C   0  0  0  0  0  0  0  0  0  0  0  0
  -30.2982    4.8346   30.3728 C   0  0  0  0  0  0  0  0  0  0  0  0
  -31.6545    4.8672   30.4499 C   0  0  0  0  0  0  0  0  0  0  0  0
  -33.8338    3.6859   30.2870 C   0  0  0  0  0  0  0  0  0  0  0  0
  -34.4138    3.8440   31.2705 O   0  0  0  0  0  0  0  0  0  0  0  0
  -34.3744    3.3519   29.1392 O   0  0  0  0  0  0  0  0  0  0  0  0
  -32.2756    5.9815   30.7585 O   0  0  0  0  0  0  0  0  0  0  0  0
  -32.0206    6.6117   31.9461 C   0  0  0  0  0  0  0  0  0  0  0  0
  -31.0817    6.9375   32.3312 C   0  0  0  0  0  0  0  0  0  0  0  0
  -30.8345    7.6672   33.5707 C   0  0  0  0  0  0  0  0  0  0  0  0
  3  7  1  0
  5  8  1  0
  6  9  1  0
 11 15  1  0
 15 16  2  0
 15 17  1  0
 14 18  1  0
 18 19  1  0
 19 20  2  3
 20 21  1  0
  9 10  2  0
 10 11  1  0
 11 14  2  0
 14 13  1  0
 13 12  2  0
 12  9  1  0
  1  2  2  0
  2  5  1  0
  5  6  2  0
  6  4  1  0
  4  3  2  0
  3  1  1  0
M  END

$$$$
