No_4514-gen_results/8p0m/2024-11-26-14-13-15/
     RDKit          3D

 11 11  0  0  0  0  0  0  0  0999 V2000
  -28.1229   -1.3353   28.4874 O   0  0  0  0  0  0  0  0  0  0  0  0
  -27.4806   -0.4044   28.7094 C   0  0  0  0  0  0  0  0  0  0  0  0
  -27.1904    0.2460   29.5268 C   0  0  0  0  0  0  0  0  0  0  0  0
  -26.8157    0.1371   27.4262 N   0  0  0  0  0  0  0  0  0  0  0  0
  -26.5177    0.6156   30.2044 C   0  0  0  0  0  0  0  0  0  0  0  0
  -27.0247   -0.2622   26.1771 C   0  0  0  0  0  0  0  0  0  0  0  0
  -27.9087    0.5308   25.5148 C   0  0  0  0  0  0  0  0  0  0  0  0
  -25.8131    1.2409   27.5876 C   0  0  0  0  0  0  0  0  0  0  0  0
  -24.5619    1.1029   27.8744 C   0  0  0  0  0  0  0  0  0  0  0  0
  -24.2398    1.3623   29.4195 C   0  0  0  0  0  0  0  0  0  0  0  0
  -24.9348    0.7093   30.4403 C   0  0  0  0  0  0  0  0  0  0  0  0
  1  2  2  0
  2  3  1  0
  2  4  1  0
  3  5  3  0
  4  6  1  0
  6  7  1  0
  4  8  1  0
  8  9  1  0
  9 10  1  0
  5 11  1  0
 10 11  1  0
M  END

$$$$
