No_4837-gen_results/8p0m/2024-11-26-14-13-15/
     RDKit          3D

 31 34  0  0  0  0  0  0  0  0999 V2000
  -28.0162   -0.8135   28.8779 C   0  0  0  0  0  0  0  0  0  0  0  0
  -28.4690   -0.7850   29.8287 C   0  0  0  0  0  0  0  0  0  0  0  0
  -26.5042   -0.7777   28.8766 C   0  0  0  0  0  0  0  0  0  0  0  0
  -25.8103   -0.8531   30.1028 C   0  0  0  0  0  0  0  0  0  0  0  0
  -27.9906   -0.8916   31.2257 C   0  0  0  0  0  0  0  0  0  0  0  0
  -26.6042   -0.8676   31.2652 C   0  0  0  0  0  0  0  0  0  0  0  0
  -29.9765   -0.8288   29.8497 N   0  0  0  0  0  0  0  0  0  0  0  0
  -30.5795   -0.1232   28.9820 C   0  0  0  0  0  0  0  0  0  0  0  0
  -31.8655   -0.6748   28.4847 C   0  0  0  0  0  0  0  0  0  0  0  0
  -30.7114   -1.7353   30.6572 C   0  0  0  0  0  0  0  0  0  0  0  0
  -30.1954   -2.5383   31.5034 C   0  0  0  0  0  0  0  0  0  0  0  0
  -32.5075    0.0393   27.5089 C   0  0  0  0  0  0  0  0  0  0  0  0
  -31.9447    1.2224   26.9891 C   0  0  0  0  0  0  0  0  0  0  0  0
  -30.7663    1.7038   27.4100 C   0  0  0  0  0  0  0  0  0  0  0  0
  -30.0650    1.0408   28.3767 C   0  0  0  0  0  0  0  0  0  0  0  0
  -31.9386   -1.7381   30.5790 O   0  0  0  0  0  0  0  0  0  0  0  0
  -30.3914   -2.3342   32.9406 C   0  0  0  0  0  0  0  0  0  0  0  0
  -29.5051   -3.7305   31.0912 C   0  0  0  0  0  0  0  0  0  0  0  0
  -30.1974   -4.8659   30.6673 C   0  0  0  0  0  0  0  0  0  0  0  0
  -30.8401   -5.4679   31.2512 C   0  0  0  0  0  0  0  0  0  0  0  0
  -31.5760   -6.7202   30.6808 C   0  0  0  0  0  0  0  0  0  0  0  0
  -31.3744   -6.9500   29.3163 C   0  0  0  0  0  0  0  0  0  0  0  0
  -30.6015   -6.0593   28.5397 C   0  0  0  0  0  0  0  0  0  0  0  0
  -29.9455   -4.9688   29.1679 C   0  0  0  0  0  0  0  0  0  0  0  0
  -31.1882   -1.4297   33.4324 C   0  0  0  0  0  0  0  0  0  0  0  0
  -32.0231   -0.8581   33.1951 C   0  0  0  0  0  0  0  0  0  0  0  0
  -32.7285    0.1856   33.9388 C   0  0  0  0  0  0  0  0  0  0  0  0
  -32.2727    0.4140   35.1978 C   0  0  0  0  0  0  0  0  0  0  0  0
  -31.1912   -0.2522   35.6643 C   0  0  0  0  0  0  0  0  0  0  0  0
  -30.5415   -1.1770   34.9069 C   0  0  0  0  0  0  0  0  0  0  0  0
  -29.6425   -3.3227   33.8463 C   0  0  0  0  0  0  0  0  0  0  0  0
  2  7  1  0
  7  8  1  0
  7 10  1  0
 10 11  1  0
 10 16  2  0
 11 17  1  0
 11 18  1  0
 17 25  1  0
 17 31  1  0
 18 19  1  0
 25 26  2  0
 26 27  1  0
 27 28  2  0
 28 29  1  0
 29 30  2  0
 30 25  1  0
  8  9  2  0
  9 12  1  0
 12 13  2  0
 13 14  1  0
 14 15  2  0
 15  8  1  0
  1  2  2  0
  2  5  1  0
  5  6  2  0
  6  4  1  0
  4  3  2  0
  3  1  1  0
 19 20  2  0
 20 21  1  0
 21 22  2  0
 22 23  1  0
 23 24  2  0
 24 19  1  0
M  END

$$$$
