No_4533-gen_results/8p0m/2024-11-26-14-13-15/
     RDKit          3D

 21 22  0  0  0  0  0  0  0  0999 V2000
  -28.0162   -0.8135   28.8779 C   0  0  0  0  0  0  0  0  0  0  0  0
  -28.4690   -0.7850   29.8287 C   0  0  0  0  0  0  0  0  0  0  0  0
  -28.1816    0.4277   28.1134 C   0  0  0  0  0  0  0  0  0  0  0  0
  -28.9841    1.4155   28.5154 C   0  0  0  0  0  0  0  0  0  0  0  0
  -29.3802    0.1384   30.4612 C   0  0  0  0  0  0  0  0  0  0  0  0
  -29.5415    1.2736   29.7242 C   0  0  0  0  0  0  0  0  0  0  0  0
  -27.4586    0.4934   26.7701 C   0  0  0  0  0  0  0  0  0  0  0  0
  -26.0264    0.3840   26.7617 C   0  0  0  0  0  0  0  0  0  0  0  0
  -25.2897    0.9319   25.7830 C   0  0  0  0  0  0  0  0  0  0  0  0
  -23.8971    0.9071   25.8408 C   0  0  0  0  0  0  0  0  0  0  0  0
  -23.2504    0.7158   27.0661 C   0  0  0  0  0  0  0  0  0  0  0  0
  -24.0334    0.3003   28.1689 C   0  0  0  0  0  0  0  0  0  0  0  0
  -25.3916    0.1762   28.0589 C   0  0  0  0  0  0  0  0  0  0  0  0
  -28.1918    0.4722   25.5975 C   0  0  0  0  0  0  0  0  0  0  0  0
  -28.7702   -0.1663   24.9636 O   0  0  0  0  0  0  0  0  0  0  0  0
  -28.4334    1.9242   25.2789 N   0  0  0  0  0  0  0  0  0  0  0  0
  -29.1566    2.3275   24.0943 C   0  0  0  0  0  0  0  0  0  0  0  0
  -23.3053    0.0507   29.4532 C   0  0  0  0  0  0  0  0  0  0  0  0
  -23.0952   -1.0612   29.9314 C   0  0  0  0  0  0  0  0  0  0  0  0
  -22.9032    1.2437   30.1564 C   0  0  0  0  0  0  0  0  0  0  0  0
  -27.7379    3.1096   25.8947 C   0  0  0  0  0  0  0  0  0  0  0  0
  3  7  1  0
  7  8  1  0
  7 14  1  0
 14 15  2  0
 14 16  1  0
 16 17  1  0
 12 18  1  0
 18 19  1  0
 18 20  1  0
 16 21  1  0
  8  9  2  0
  9 10  1  0
 10 11  2  0
 11 12  1  0
 12 13  2  0
 13  8  1  0
  1  2  2  0
  2  5  1  0
  5  6  2  0
  6  4  1  0
  4  3  2  0
  3  1  1  0
M  END

$$$$
