No_4530-gen_results/8p0m/2024-11-26-14-13-15/
     RDKit          3D

 17 18  0  0  0  0  0  0  0  0999 V2000
  -28.0162   -0.8135   28.8779 C   0  0  0  0  0  0  0  0  0  0  0  0
  -28.4690   -0.7850   29.8287 C   0  0  0  0  0  0  0  0  0  0  0  0
  -27.0871    0.2903   28.6377 C   0  0  0  0  0  0  0  0  0  0  0  0
  -26.8317    1.2487   29.5869 C   0  0  0  0  0  0  0  0  0  0  0  0
  -28.3914    0.0801   31.0065 C   0  0  0  0  0  0  0  0  0  0  0  0
  -27.4940    1.1521   30.7841 C   0  0  0  0  0  0  0  0  0  0  0  0
  -26.3172    0.3994   27.3653 C   0  0  0  0  0  0  0  0  0  0  0  0
  -26.8815    0.9711   26.3721 C   0  0  0  0  0  0  0  0  0  0  0  0
  -28.2026    1.4637   26.4214 C   0  0  0  0  0  0  0  0  0  0  0  0
  -28.8475    1.7009   27.4515 C   0  0  0  0  0  0  0  0  0  0  0  0
  -29.9407    2.2689   27.5240 C   0  0  0  0  0  0  0  0  0  0  0  0
  -30.5238    2.7338   26.2417 C   0  0  0  0  0  0  0  0  0  0  0  0
  -29.8451    2.5456   25.0621 C   0  0  0  0  0  0  0  0  0  0  0  0
  -28.6268    2.0727   25.1000 C   0  0  0  0  0  0  0  0  0  0  0  0
  -25.0464   -0.2373   27.4578 C   0  0  0  0  0  0  0  0  0  0  0  0
  -28.6448    1.2144   28.6760 O   0  0  0  0  0  0  0  0  0  0  0  0
  -29.4058    1.6221   29.4841 C   0  0  0  0  0  0  0  0  0  0  0  0
  3  7  1  0
  7  8  2  3
  8  9  1  0
  7 15  1  0
 10 16  1  0
 16 17  1  0
  9 10  2  0
 10 11  1  0
 11 12  2  0
 12 13  1  0
 13 14  2  0
 14  9  1  0
  1  2  2  0
  2  5  1  0
  5  6  2  0
  6  4  1  0
  4  3  2  0
  3  1  1  0
M  END

$$$$
