No_4135-gen_results/8p0m/2024-11-26-14-13-15/
     RDKit          3D

 20 20  0  0  0  0  0  0  0  0999 V2000
  -28.0162   -0.8135   28.8779 C   0  0  0  0  0  0  0  0  0  0  0  0
  -27.0636   -0.1189   28.6079 C   0  0  0  0  0  0  0  0  0  0  0  0
  -25.7923   -0.4302   29.0761 C   0  0  0  0  0  0  0  0  0  0  0  0
  -24.5456    0.3494   28.8225 C   0  0  0  0  0  0  0  0  0  0  0  0
  -24.6586    1.4196   27.8878 C   0  0  0  0  0  0  0  0  0  0  0  0
  -25.9471    1.6811   27.3792 C   0  0  0  0  0  0  0  0  0  0  0  0
  -27.0439    0.9739   27.6871 C   0  0  0  0  0  0  0  0  0  0  0  0
  -28.6643   -0.5274   30.1017 N   0  0  0  0  0  0  0  0  0  0  0  0
  -29.6153   -1.2473   30.6541 C   0  0  0  0  0  0  0  0  0  0  0  0
  -30.1339   -2.2836   30.0191 C   0  0  0  0  0  0  0  0  0  0  0  0
  -30.8384   -3.1130   30.7948 O   0  0  0  0  0  0  0  0  0  0  0  0
  -23.6706    2.3824   27.7872 C   0  0  0  0  0  0  0  0  0  0  0  0
  -22.7238    2.3487   28.6052 O   0  0  0  0  0  0  0  0  0  0  0  0
  -23.3784    2.8617   26.5771 O   0  0  0  0  0  0  0  0  0  0  0  0
  -28.3401    1.2395   27.0397 C   0  0  0  0  0  0  0  0  0  0  0  0
  -28.6559    0.9373   25.9561 O   0  0  0  0  0  0  0  0  0  0  0  0
  -29.1999    1.9577   27.8304 O   0  0  0  0  0  0  0  0  0  0  0  0
  -31.1864   -4.2401   30.3518 C   0  0  0  0  0  0  0  0  0  0  0  0
  -32.3037   -4.7621   30.6906 C   0  0  0  0  0  0  0  0  0  0  0  0
  -33.1715   -4.3532   31.2172 C   0  0  0  0  0  0  0  0  0  0  0  0
  1  2  1  0
  1  8  1  0
  8  9  1  0
  9 10  1  0
 10 11  1  0
  5 12  1  0
 12 13  2  0
 12 14  1  0
  7 15  1  0
 15 16  2  0
 15 17  1  0
 11 18  1  0
 18 19  2  3
 19 20  1  0
  2  3  2  0
  3  4  1  0
  4  5  2  0
  5  6  1  0
  6  7  2  0
  7  2  1  0
M  END

$$$$
