No_4568-gen_results/8p0m/2024-11-26-14-13-15/
     RDKit          3D

 23 23  0  0  0  0  0  0  0  0999 V2000
  -28.0162   -0.8135   28.8779 C   0  0  0  0  0  0  0  0  0  0  0  0
  -27.0636   -0.1189   28.6079 C   0  0  0  0  0  0  0  0  0  0  0  0
  -25.7647   -0.3897   29.0360 C   0  0  0  0  0  0  0  0  0  0  0  0
  -25.5296   -1.5302   29.9014 C   0  0  0  0  0  0  0  0  0  0  0  0
  -24.3236   -1.9076   30.4324 C   0  0  0  0  0  0  0  0  0  0  0  0
  -27.9274   -1.9227   29.7902 C   0  0  0  0  0  0  0  0  0  0  0  0
  -26.6914   -2.2806   30.2948 C   0  0  0  0  0  0  0  0  0  0  0  0
  -23.7000   -1.1225   31.2784 N   0  0  0  0  0  0  0  0  0  0  0  0
  -22.6434   -0.2534   30.9950 C   0  0  0  0  0  0  0  0  0  0  0  0
  -24.3821   -0.8071   32.5739 C   0  0  0  0  0  0  0  0  0  0  0  0
  -27.3648    1.0347   27.7226 C   0  0  0  0  0  0  0  0  0  0  0  0
  -28.2870    0.9731   26.9698 F   0  0  0  0  0  0  0  0  0  0  0  0
  -27.4923    2.2069   28.5210 F   0  0  0  0  0  0  0  0  0  0  0  0
  -26.1774    1.3789   27.0145 F   0  0  0  0  0  0  0  0  0  0  0  0
  -29.0223   -2.6032   30.1551 O   0  0  0  0  0  0  0  0  0  0  0  0
  -29.4200   -2.7003   31.4720 C   0  0  0  0  0  0  0  0  0  0  0  0
  -21.9110   -0.6019   29.7987 C   0  0  0  0  0  0  0  0  0  0  0  0
  -21.5544    0.4933   28.9066 C   0  0  0  0  0  0  0  0  0  0  0  0
  -22.6428    1.1819   28.2979 C   0  0  0  0  0  0  0  0  0  0  0  0
  -22.4581    2.0020   27.1512 C   0  0  0  0  0  0  0  0  0  0  0  0
  -23.5688    2.7150   26.6158 C   0  0  0  0  0  0  0  0  0  0  0  0
  -24.6736    3.0003   27.5302 C   0  0  0  0  0  0  0  0  0  0  0  0
  -25.6405    3.9536   27.3428 C   0  0  0  0  0  0  0  0  0  0  0  0
  4  5  1  0
  5  8  1  0
  8  9  1  0
  8 10  1  0
  2 11  1  0
 11 12  1  0
 11 13  1  0
 11 14  1  0
  6 15  1  0
 15 16  1  0
  9 17  1  0
 17 18  1  0
 18 19  1  0
 19 20  2  3
 20 21  1  0
 21 22  2  3
 22 23  1  0
  1  2  2  0
  2  3  1  0
  3  4  2  0
  4  7  1  0
  7  6  2  0
  6  1  1  0
M  END

$$$$
