No_4959-gen_results/8p0m/2024-11-26-14-13-15/
     RDKit          3D

 25 28  0  0  0  0  0  0  0  0999 V2000
  -28.0162   -0.8135   28.8779 C   0  0  0  0  0  0  0  0  0  0  0  0
  -27.0636   -0.1190   28.6079 C   0  0  0  0  0  0  0  0  0  0  0  0
  -26.9716    0.7139   27.5060 C   0  0  0  0  0  0  0  0  0  0  0  0
  -28.1053    0.7744   26.6421 C   0  0  0  0  0  0  0  0  0  0  0  0
  -29.2008    0.1044   27.0527 C   0  0  0  0  0  0  0  0  0  0  0  0
  -28.0219   -1.5899   30.0879 C   0  0  0  0  0  0  0  0  0  0  0  0
  -29.1640   -0.6394   28.1484 C   0  0  0  0  0  0  0  0  0  0  0  0
  -28.8451   -1.9567   30.6618 O   0  0  0  0  0  0  0  0  0  0  0  0
  -26.7801   -1.7818   30.6624 O   0  0  0  0  0  0  0  0  0  0  0  0
  -30.3711    0.2054   26.1626 C   0  0  0  0  0  0  0  0  0  0  0  0
  -30.3507    0.4176   24.9534 N   0  0  0  0  0  0  0  0  0  0  0  0
  -31.5120   -0.1194   26.6968 O   0  0  0  0  0  0  0  0  0  0  0  0
  -29.1094    0.7951   24.2137 C   0  0  0  0  0  0  0  0  0  0  0  0
  -28.2870    1.0533   24.8529 C   0  0  0  0  0  0  0  0  0  0  0  0
  -26.8213    1.5745   24.5684 C   0  0  0  0  0  0  0  0  0  0  0  0
  -31.5395    0.3660   24.0480 C   0  0  0  0  0  0  0  0  0  0  0  0
  -25.7163    1.6259   25.4248 C   0  0  0  0  0  0  0  0  0  0  0  0
  -25.7492    1.3075   26.8235 C   0  0  0  0  0  0  0  0  0  0  0  0
  -24.5449    1.4313   27.6680 C   0  0  0  0  0  0  0  0  0  0  0  0
  -23.8042    0.3895   27.9359 C   0  0  0  0  0  0  0  0  0  0  0  0
  -22.5132    0.6224   28.6092 C   0  0  0  0  0  0  0  0  0  0  0  0
  -24.0961    2.7450   27.9149 C   0  0  0  0  0  0  0  0  0  0  0  0
  -22.8419    2.9312   28.5980 C   0  0  0  0  0  0  0  0  0  0  0  0
  -22.1383    1.8168   28.9275 C   0  0  0  0  0  0  0  0  0  0  0  0
  -25.0104    4.1592   27.5641 Cl  0  0  0  0  0  0  0  0  0  0  0  0
  1  6  1  0
  6  8  1  0
  6  9  2  0
  5 10  1  0
 10 11  1  0
 10 12  2  0
 11 13  1  0
  4 14  1  0
 14 15  1  0
 11 16  1  0
 15 17  1  0
  3 18  1  0
 17 18  1  0
 18 19  1  0
 22 25  1  0
 14 13  1  0
 19 20  2  0
 20 21  1  0
 21 24  2  0
 24 23  1  0
 23 22  2  0
 22 19  1  0
  1  2  2  0
  2  3  1  0
  3  4  2  0
  4  5  1  0
  5  7  2  0
  7  1  1  0
M  END

$$$$
