No_4206-gen_results/8p0m/2024-11-26-14-13-15/
     RDKit          3D

 16 18  0  0  0  0  0  0  0  0999 V2000
  -28.0727   -1.2542   28.5316 F   0  0  0  0  0  0  0  0  0  0  0  0
  -27.0607   -0.6291   28.8721 C   0  0  0  0  0  0  0  0  0  0  0  0
  -26.3579   -0.0711   28.0115 C   0  0  0  0  0  0  0  0  0  0  0  0
  -25.0715    0.5530   28.2555 C   0  0  0  0  0  0  0  0  0  0  0  0
  -24.5772    0.4803   29.5696 C   0  0  0  0  0  0  0  0  0  0  0  0
  -25.3317   -0.2027   30.5060 C   0  0  0  0  0  0  0  0  0  0  0  0
  -26.4956   -0.7357   30.1606 C   0  0  0  0  0  0  0  0  0  0  0  0
  -24.2570    1.2519   27.2615 C   0  0  0  0  0  0  0  0  0  0  0  0
  -23.9865    2.3149   27.2246 C   0  0  0  0  0  0  0  0  0  0  0  0
  -24.4174    3.2321   28.3386 C   0  0  0  0  0  0  0  0  0  0  0  0
  -25.0145    4.5701   27.9563 C   0  0  0  0  0  0  0  0  0  0  0  0
  -25.5397    5.3816   28.9608 C   0  0  0  0  0  0  0  0  0  0  0  0
  -25.7053    4.8675   30.2590 C   0  0  0  0  0  0  0  0  0  0  0  0
  -25.2554    3.6105   30.5733 C   0  0  0  0  0  0  0  0  0  0  0  0
  -24.6547    2.8079   29.6289 C   0  0  0  0  0  0  0  0  0  0  0  0
  -24.5510    1.5133   29.9478 N   0  0  0  0  0  0  0  0  0  0  0  0
  1  2  1  0
  4  8  1  0
  8  9  2  0
  9 10  1  0
  5 16  1  0
 15 16  1  0
  2  3  2  0
  3  4  1  0
  4  5  2  0
  5  6  1  0
  6  7  2  0
  7  2  1  0
 10 11  2  0
 11 12  1  0
 12 13  2  0
 13 14  1  0
 14 15  2  0
 15 10  1  0
M  END

$$$$
