No_4288-gen_results/8p0m/2024-11-26-14-13-15/
     RDKit          3D

 26 28  0  0  0  0  0  0  0  0999 V2000
  -28.0162   -0.8135   28.8779 C   0  0  0  0  0  0  0  0  0  0  0  0
  -27.0636   -0.1190   28.6079 C   0  0  0  0  0  0  0  0  0  0  0  0
  -25.7923   -0.4302   29.0761 C   0  0  0  0  0  0  0  0  0  0  0  0
  -25.5756   -1.5654   29.9363 C   0  0  0  0  0  0  0  0  0  0  0  0
  -26.7354   -2.3004   30.2173 C   0  0  0  0  0  0  0  0  0  0  0  0
  -27.9184   -1.9537   29.7629 C   0  0  0  0  0  0  0  0  0  0  0  0
  -29.0001   -2.7012   30.1151 O   0  0  0  0  0  0  0  0  0  0  0  0
  -24.5290    0.3490   28.7998 C   0  0  0  0  0  0  0  0  0  0  0  0
  -23.3442    0.0060   29.1658 C   0  0  0  0  0  0  0  0  0  0  0  0
  -22.1783    0.7811   28.7783 C   0  0  0  0  0  0  0  0  0  0  0  0
  -22.3217    1.7499   27.7727 C   0  0  0  0  0  0  0  0  0  0  0  0
  -24.6102    1.3558   27.7479 C   0  0  0  0  0  0  0  0  0  0  0  0
  -23.5148    2.0341   27.3068 C   0  0  0  0  0  0  0  0  0  0  0  0
  -30.1256   -2.1340   30.5841 C   0  0  0  0  0  0  0  0  0  0  0  0
  -31.1953   -2.7166   30.1353 C   0  0  0  0  0  0  0  0  0  0  0  0
  -32.4829   -2.1045   30.3331 C   0  0  0  0  0  0  0  0  0  0  0  0
  -32.4808   -0.9512   31.1611 C   0  0  0  0  0  0  0  0  0  0  0  0
  -31.3362   -0.4404   31.6581 C   0  0  0  0  0  0  0  0  0  0  0  0
  -30.0867   -0.9883   31.3548 C   0  0  0  0  0  0  0  0  0  0  0  0
  -31.3467    0.7711   32.5524 C   0  0  0  0  0  0  0  0  0  0  0  0
  -32.1897    1.3022   33.0398 O   0  0  0  0  0  0  0  0  0  0  0  0
  -30.0889    1.4762   32.4704 O   0  0  0  0  0  0  0  0  0  0  0  0
  -33.6825   -2.7152   29.9043 C   0  0  0  0  0  0  0  0  0  0  0  0
  -33.6508   -3.2501   28.9636 F   0  0  0  0  0  0  0  0  0  0  0  0
  -34.6256   -1.6532   29.7452 F   0  0  0  0  0  0  0  0  0  0  0  0
  -34.2180   -3.4764   30.8700 F   0  0  0  0  0  0  0  0  0  0  0  0
  6  7  1  0
  3  8  1  0
  7 14  1  0
 18 20  1  0
 20 21  2  0
 20 22  1  0
 16 23  1  0
 23 24  1  0
 23 25  1  0
 23 26  1  0
  1  2  2  0
  2  3  1  0
  3  4  2  0
  4  5  1  0
  5  6  2  0
  6  1  1  0
 14 15  2  0
 15 16  1  0
 16 17  2  0
 17 18  1  0
 18 19  2  0
 19 14  1  0
  8  9  2  0
  9 10  1  0
 10 11  2  0
 11 13  1  0
 13 12  2  0
 12  8  1  0
M  END

$$$$
