No_4181-gen_results/8p0m/2024-11-26-14-13-15/
     RDKit          3D

 27 29  0  0  0  0  0  0  0  0999 V2000
  -28.0162   -0.8135   28.8779 C   0  0  0  0  0  0  0  0  0  0  0  0
  -27.0636   -0.1189   28.6079 C   0  0  0  0  0  0  0  0  0  0  0  0
  -26.9716    0.7139   27.5060 C   0  0  0  0  0  0  0  0  0  0  0  0
  -25.8205    1.4909   27.1160 C   0  0  0  0  0  0  0  0  0  0  0  0
  -24.6562    1.4242   27.9180 C   0  0  0  0  0  0  0  0  0  0  0  0
  -24.6847    0.5901   29.0659 C   0  0  0  0  0  0  0  0  0  0  0  0
  -25.8099   -0.1265   29.3338 C   0  0  0  0  0  0  0  0  0  0  0  0
  -28.7093   -0.4588   30.1754 C   0  0  0  0  0  0  0  0  0  0  0  0
  -29.8413   -0.5172   30.3363 C   0  0  0  0  0  0  0  0  0  0  0  0
  -30.5309   -0.1456   31.6014 C   0  0  0  0  0  0  0  0  0  0  0  0
  -23.4600    2.1894   27.5849 C   0  0  0  0  0  0  0  0  0  0  0  0
  -22.9885    2.7588   28.5761 F   0  0  0  0  0  0  0  0  0  0  0  0
  -23.1371    2.4866   26.4961 F   0  0  0  0  0  0  0  0  0  0  0  0
  -29.7287    0.2557   32.6642 C   0  0  0  0  0  0  0  0  0  0  0  0
  -28.3540    0.2571   32.5069 C   0  0  0  0  0  0  0  0  0  0  0  0
  -27.8382   -0.0911   31.3400 C   0  0  0  0  0  0  0  0  0  0  0  0
  -28.1500    0.9133   26.6360 C   0  0  0  0  0  0  0  0  0  0  0  0
  -28.1844    0.7014   25.4570 N   0  0  0  0  0  0  0  0  0  0  0  0
  -29.0432    1.7085   27.1120 F   0  0  0  0  0  0  0  0  0  0  0  0
  -28.8180    0.2286   24.8228 C   0  0  0  0  0  0  0  0  0  0  0  0
  -30.1255   -0.0825   25.2389 C   0  0  0  0  0  0  0  0  0  0  0  0
  -30.9945   -0.9406   24.4142 C   0  0  0  0  0  0  0  0  0  0  0  0
  -32.2003   -1.4078   24.9308 C   0  0  0  0  0  0  0  0  0  0  0  0
  -32.6785   -1.0404   26.1596 C   0  0  0  0  0  0  0  0  0  0  0  0
  -31.8563   -0.1494   26.9106 C   0  0  0  0  0  0  0  0  0  0  0  0
  -30.6929    0.2035   26.5149 C   0  0  0  0  0  0  0  0  0  0  0  0
  -28.5966   -0.1593   23.6097 O   0  0  0  0  0  0  0  0  0  0  0  0
  1  2  2  3
  2  3  1  0
  3  4  1  0
  4  5  1  0
  5  6  1  0
  2  7  1  0
  6  7  1  0
  1  8  1  0
  5 11  1  0
 11 12  1  0
 11 13  1  0
  3 17  1  0
 17 18  2  3
 17 19  1  0
 18 20  1  0
 20 21  1  0
 20 27  2  0
  8  9  2  0
  9 10  1  0
 10 14  2  0
 14 15  1  0
 15 16  2  0
 16  8  1  0
 21 22  2  0
 22 23  1  0
 23 24  2  0
 24 25  1  0
 25 26  2  0
 26 21  1  0
M  END

$$$$
