No_4595-gen_results/8p0m/2024-11-26-14-13-15/
     RDKit          3D

 32 35  0  0  0  0  0  0  0  0999 V2000
  -28.0162   -0.8135   28.8779 C   0  0  0  0  0  0  0  0  0  0  0  0
  -27.0636   -0.1189   28.6079 C   0  0  0  0  0  0  0  0  0  0  0  0
  -25.7923   -0.4302   29.0761 C   0  0  0  0  0  0  0  0  0  0  0  0
  -25.5756   -1.5654   29.9363 C   0  0  0  0  0  0  0  0  0  0  0  0
  -26.7354   -2.3004   30.2173 C   0  0  0  0  0  0  0  0  0  0  0  0
  -27.9184   -1.9537   29.7629 C   0  0  0  0  0  0  0  0  0  0  0  0
  -29.0001   -2.7012   30.1151 O   0  0  0  0  0  0  0  0  0  0  0  0
  -24.5290    0.3490   28.7998 C   0  0  0  0  0  0  0  0  0  0  0  0
  -24.4808    1.2113   27.7998 C   0  0  0  0  0  0  0  0  0  0  0  0
  -23.2478    1.8974   27.4951 C   0  0  0  0  0  0  0  0  0  0  0  0
  -22.0497    1.5890   28.1642 C   0  0  0  0  0  0  0  0  0  0  0  0
  -23.3072    0.0149   29.4618 C   0  0  0  0  0  0  0  0  0  0  0  0
  -22.0852    0.6899   29.1374 C   0  0  0  0  0  0  0  0  0  0  0  0
  -28.8808   -3.9653   30.6064 C   0  0  0  0  0  0  0  0  0  0  0  0
  -30.1311   -4.6678   30.7784 C   0  0  0  0  0  0  0  0  0  0  0  0
  -30.0054   -5.6880   31.4187 O   0  0  0  0  0  0  0  0  0  0  0  0
  -31.2065   -4.1712   30.5873 O   0  0  0  0  0  0  0  0  0  0  0  0
  -29.2699   -0.5225   28.4616 O   0  0  0  0  0  0  0  0  0  0  0  0
  -29.5330    0.4087   27.5794 C   0  0  0  0  0  0  0  0  0  0  0  0
  -30.6816    0.3014   26.9086 C   0  0  0  0  0  0  0  0  0  0  0  0
  -30.9601    1.1478   25.8418 C   0  0  0  0  0  0  0  0  0  0  0  0
  -29.9532    2.1466   25.4921 C   0  0  0  0  0  0  0  0  0  0  0  0
  -28.7706    2.2262   26.2257 C   0  0  0  0  0  0  0  0  0  0  0  0
  -28.5728    1.3692   27.2151 C   0  0  0  0  0  0  0  0  0  0  0  0
  -27.2233    1.0921   27.8409 C   0  0  0  0  0  0  0  0  0  0  0  0
  -31.6138   -0.5488   27.2162 O   0  0  0  0  0  0  0  0  0  0  0  0
  -32.4274   -0.4139   28.2867 C   0  0  0  0  0  0  0  0  0  0  0  0
  -32.9866    0.6180   28.5326 C   0  0  0  0  0  0  0  0  0  0  0  0
  -33.3098    1.0964   29.4451 C   0  0  0  0  0  0  0  0  0  0  0  0
  -33.8639    2.4701   29.7460 C   0  0  0  0  0  0  0  0  0  0  0  0
  -34.1352    3.1580   28.5617 C   0  0  0  0  0  0  0  0  0  0  0  0
  -33.7950    2.6673   27.3770 C   0  0  0  0  0  0  0  0  0  0  0  0
  6  7  1  0
  3  8  1  0
  7 14  1  0
 14 15  1  0
 15 16  2  0
 15 17  1  0
  1 18  1  0
 18 19  1  0
  2 25  1  0
 24 25  1  0
 20 26  1  0
 26 27  1  0
 27 28  2  3
 28 29  1  0
 29 30  2  3
 30 31  1  0
 31 32  2  0
  1  2  2  0
  2  3  1  0
  3  4  2  0
  4  5  1  0
  5  6  2  0
  6  1  1  0
 19 20  2  0
 20 21  1  0
 21 22  2  0
 22 23  1  0
 23 24  2  0
 24 19  1  0
  8  9  2  0
  9 10  1  0
 10 11  2  0
 11 13  1  0
 13 12  2  0
 12  8  1  0
M  END

$$$$
