No_4152-gen_results/8p0m/2024-11-26-14-13-15/
     RDKit          3D

 22 24  0  0  0  0  0  0  0  0999 V2000
  -28.0162   -0.8135   28.8779 C   0  0  0  0  0  0  0  0  0  0  0  0
  -28.4690   -0.7850   29.8287 C   0  0  0  0  0  0  0  0  0  0  0  0
  -26.5042   -0.7777   28.8766 C   0  0  0  0  0  0  0  0  0  0  0  0
  -25.8103   -0.8531   30.1028 C   0  0  0  0  0  0  0  0  0  0  0  0
  -30.0136   -0.8410   29.8508 C   0  0  0  0  0  0  0  0  0  0  0  0
  -26.5670   -0.8850   31.2517 C   0  0  0  0  0  0  0  0  0  0  0  0
  -27.9411   -0.9069   31.1850 C   0  0  0  0  0  0  0  0  0  0  0  0
  -30.5389   -0.4288   28.9958 O   0  0  0  0  0  0  0  0  0  0  0  0
  -30.6902   -1.4992   30.9292 N   0  0  0  0  0  0  0  0  0  0  0  0
  -32.1200   -1.5909   30.8913 C   0  0  0  0  0  0  0  0  0  0  0  0
  -32.5841   -2.5027   31.5503 C   0  0  0  0  0  0  0  0  0  0  0  0
  -33.9787   -2.8133   31.5402 C   0  0  0  0  0  0  0  0  0  0  0  0
  -34.7895   -1.9506   30.7267 C   0  0  0  0  0  0  0  0  0  0  0  0
  -34.1859   -0.9724   29.9867 C   0  0  0  0  0  0  0  0  0  0  0  0
  -32.8225   -0.7452   30.0329 C   0  0  0  0  0  0  0  0  0  0  0  0
  -24.3445   -0.8105   30.0979 C   0  0  0  0  0  0  0  0  0  0  0  0
  -23.5944   -0.4634   29.0682 C   0  0  0  0  0  0  0  0  0  0  0  0
  -22.1545   -0.3255   29.2009 C   0  0  0  0  0  0  0  0  0  0  0  0
  -21.4107    0.1678   28.1230 C   0  0  0  0  0  0  0  0  0  0  0  0
  -22.0607    1.0823   27.2577 C   0  0  0  0  0  0  0  0  0  0  0  0
  -23.4646    1.2672   27.2984 C   0  0  0  0  0  0  0  0  0  0  0  0
  -24.1931    0.6048   28.2185 C   0  0  0  0  0  0  0  0  0  0  0  0
  2  5  1  0
  5  8  2  0
  5  9  1  0
  9 10  1  0
  4 16  1  0
 16 17  1  0
 17 18  2  0
 18 19  1  0
 19 20  2  0
 20 21  1  0
 21 22  2  0
 22 17  1  0
 10 11  2  0
 11 12  1  0
 12 13  2  0
 13 14  1  0
 14 15  2  0
 15 10  1  0
  1  2  2  0
  2  7  1  0
  7  6  2  0
  6  4  1  0
  4  3  2  0
  3  1  1  0
M  END

$$$$
