No_440-gen_results/8p0m/2024-11-26-14-13-15/
     RDKit          3D

 17 18  0  0  0  0  0  0  0  0999 V2000
  -28.0162   -0.8135   28.8779 C   0  0  0  0  0  0  0  0  0  0  0  0
  -28.4690   -0.7850   29.8287 C   0  0  0  0  0  0  0  0  0  0  0  0
  -27.0871    0.2903   28.6377 C   0  0  0  0  0  0  0  0  0  0  0  0
  -26.8317    1.2487   29.5869 C   0  0  0  0  0  0  0  0  0  0  0  0
  -28.3914    0.0801   31.0065 C   0  0  0  0  0  0  0  0  0  0  0  0
  -27.4940    1.1521   30.7841 C   0  0  0  0  0  0  0  0  0  0  0  0
  -26.4060    0.3541   27.4873 F   0  0  0  0  0  0  0  0  0  0  0  0
  -25.6513    2.6460   29.2861 Br  0  0  0  0  0  0  0  0  0  0  0  0
  -29.3727   -1.9354   30.1419 F   0  0  0  0  0  0  0  0  0  0  0  0
  -27.3177    2.1725   31.8907 C   0  0  0  0  0  0  0  0  0  0  0  0
  -26.4340    2.5817   32.3694 C   0  0  0  0  0  0  0  0  0  0  0  0
  -26.2748    3.6280   33.4121 C   0  0  0  0  0  0  0  0  0  0  0  0
  -25.1542    4.4520   33.6121 C   0  0  0  0  0  0  0  0  0  0  0  0
  -24.1192    4.3641   32.6215 C   0  0  0  0  0  0  0  0  0  0  0  0
  -24.0953    3.3405   31.6959 C   0  0  0  0  0  0  0  0  0  0  0  0
  -25.1528    2.6120   31.5099 C   0  0  0  0  0  0  0  0  0  0  0  0
  -24.5692    1.3658   31.7815 O   0  0  0  0  0  0  0  0  0  0  0  0
  3  7  1  0
  4  8  1  0
  2  9  1  0
  6 10  1  0
 16 17  1  0
 10 11  1  0
 11 12  2  0
 12 13  1  0
 13 14  2  0
 14 15  1  0
 15 16  2  0
 16 11  1  0
  1  2  2  0
  2  5  1  0
  5  6  2  0
  6  4  1  0
  4  3  2  0
  3  1  1  0
M  END

$$$$
