No_4118-gen_results/8p0m/2024-11-26-14-13-15/
     RDKit          3D

 30 33  0  0  0  0  0  0  0  0999 V2000
  -28.0162   -0.8135   28.8779 C   0  0  0  0  0  0  0  0  0  0  0  0
  -28.4690   -0.7850   29.8287 C   0  0  0  0  0  0  0  0  0  0  0  0
  -26.5455   -0.8762   28.8500 C   0  0  0  0  0  0  0  0  0  0  0  0
  -25.8041   -1.0324   30.0571 C   0  0  0  0  0  0  0  0  0  0  0  0
  -27.9437   -0.9869   31.2075 C   0  0  0  0  0  0  0  0  0  0  0  0
  -26.5825   -1.0386   31.2231 C   0  0  0  0  0  0  0  0  0  0  0  0
  -30.0606   -0.7371   29.9024 C   0  0  0  0  0  0  0  0  0  0  0  0
  -30.7252   -1.5544   30.2697 O   0  0  0  0  0  0  0  0  0  0  0  0
  -30.5270    0.3279   29.3297 F   0  0  0  0  0  0  0  0  0  0  0  0
  -24.3746   -1.0938   30.0697 C   0  0  0  0  0  0  0  0  0  0  0  0
  -23.5793   -0.4056   29.1856 C   0  0  0  0  0  0  0  0  0  0  0  0
  -22.1721   -0.4817   29.2648 C   0  0  0  0  0  0  0  0  0  0  0  0
  -24.1374    0.5557   28.3006 C   0  0  0  0  0  0  0  0  0  0  0  0
  -23.2607    1.3537   27.5328 C   0  0  0  0  0  0  0  0  0  0  0  0
  -21.3414    0.3205   28.4687 C   0  0  0  0  0  0  0  0  0  0  0  0
  -21.8668    1.2498   27.6265 C   0  0  0  0  0  0  0  0  0  0  0  0
  -23.8098    2.4146   26.6224 C   0  0  0  0  0  0  0  0  0  0  0  0
  -23.6780    2.4098   25.4686 N   0  0  0  0  0  0  0  0  0  0  0  0
  -24.8123    3.2956   27.1972 N   0  0  0  0  0  0  0  0  0  0  0  0
  -25.1731    4.1149   26.2296 C   0  0  0  0  0  0  0  0  0  0  0  0
  -24.3107    3.5768   25.0563 C   0  0  0  0  0  0  0  0  0  0  0  0
  -25.2365    3.4637   28.5312 C   0  0  0  0  0  0  0  0  0  0  0  0
  -26.0223    2.7772   29.1993 C   0  0  0  0  0  0  0  0  0  0  0  0
  -26.2454    2.9282   30.6151 C   0  0  0  0  0  0  0  0  0  0  0  0
  -27.2873    2.3170   31.3266 C   0  0  0  0  0  0  0  0  0  0  0  0
  -27.3127    2.3862   32.7389 C   0  0  0  0  0  0  0  0  0  0  0  0
  -25.2773    3.5564   31.4244 C   0  0  0  0  0  0  0  0  0  0  0  0
  -25.2979    3.6451   32.8202 C   0  0  0  0  0  0  0  0  0  0  0  0
  -26.3755    3.0870   33.4527 C   0  0  0  0  0  0  0  0  0  0  0  0
  -24.9178    4.7282   28.9502 O   0  0  0  0  0  0  0  0  0  0  0  0
  2  7  1  0
  7  8  2  0
  7  9  1  0
  4 10  1  0
 10 11  1  0
 14 17  1  0
 17 18  2  0
 17 19  1  0
 19 20  1  0
 18 21  1  0
 20 21  1  0
 19 22  1  0
 22 23  1  0
 23 24  1  0
 22 30  2  0
 11 12  2  0
 12 15  1  0
 15 16  2  0
 16 14  1  0
 14 13  2  0
 13 11  1  0
 24 25  2  0
 25 26  1  0
 26 29  2  0
 29 28  1  0
 28 27  2  0
 27 24  1  0
  1  2  2  0
  2  5  1  0
  5  6  2  0
  6  4  1  0
  4  3  2  0
  3  1  1  0
M  END

$$$$
