No_4125-gen_results/8p0m/2024-11-26-14-13-15/
     RDKit          3D

 25 28  0  0  0  0  0  0  0  0999 V2000
  -28.0162   -0.8135   28.8779 C   0  0  0  0  0  0  0  0  0  0  0  0
  -28.4690   -0.7850   29.8287 C   0  0  0  0  0  0  0  0  0  0  0  0
  -28.1960    0.3478   28.0550 C   0  0  0  0  0  0  0  0  0  0  0  0
  -29.0191    1.3501   28.3782 C   0  0  0  0  0  0  0  0  0  0  0  0
  -29.4107    0.1803   30.3782 C   0  0  0  0  0  0  0  0  0  0  0  0
  -29.6059    1.2495   29.6193 C   0  0  0  0  0  0  0  0  0  0  0  0
  -27.4597    0.3802   26.7091 C   0  0  0  0  0  0  0  0  0  0  0  0
  -26.4659    1.4084   26.5648 C   0  0  0  0  0  0  0  0  0  0  0  0
  -25.2449    1.3279   27.3559 C   0  0  0  0  0  0  0  0  0  0  0  0
  -24.3040    2.2993   27.2314 C   0  0  0  0  0  0  0  0  0  0  0  0
  -24.5226    3.3506   26.2889 C   0  0  0  0  0  0  0  0  0  0  0  0
  -25.7008    3.5248   25.6549 C   0  0  0  0  0  0  0  0  0  0  0  0
  -26.6888    2.5042   25.7972 C   0  0  0  0  0  0  0  0  0  0  0  0
  -22.9922    2.2175   27.9290 C   0  0  0  0  0  0  0  0  0  0  0  0
  -22.4152    0.8392   27.9328 C   0  0  0  0  0  0  0  0  0  0  0  0
  -23.1223   -0.1483   28.5795 C   0  0  0  0  0  0  0  0  0  0  0  0
  -24.3666   -0.6604   28.2067 C   0  0  0  0  0  0  0  0  0  0  0  0
  -24.9612    0.1647   27.9733 C   0  0  0  0  0  0  0  0  0  0  0  0
  -25.9219   -0.1198   28.8720 O   0  0  0  0  0  0  0  0  0  0  0  0
  -25.6835    0.3234   30.1752 C   0  0  0  0  0  0  0  0  0  0  0  0
  -25.0918   -0.5130   31.1184 C   0  0  0  0  0  0  0  0  0  0  0  0
  -24.1374    0.0477   31.8286 C   0  0  0  0  0  0  0  0  0  0  0  0
  -26.2052    1.5982   30.6003 C   0  0  0  0  0  0  0  0  0  0  0  0
  -25.4470    2.2692   31.6431 C   0  0  0  0  0  0  0  0  0  0  0  0
  -24.5410    1.4119   32.5111 C   0  0  0  0  0  0  0  0  0  0  0  0
  3  7  1  0
  7  8  1  0
 10 14  1  0
 14 15  1  0
 15 16  2  0
 16 17  1  0
  9 18  1  0
 17 18  1  0
 18 19  1  0
 19 20  1  0
 20 21  2  0
 21 22  1  0
 22 25  2  0
 25 24  1  0
 24 23  2  0
 23 20  1  0
  8  9  2  0
  9 10  1  0
 10 11  2  0
 11 12  1  0
 12 13  2  0
 13  8  1  0
  1  2  2  0
  2  5  1  0
  5  6  2  0
  6  4  1  0
  4  3  2  0
  3  1  1  0
M  END

$$$$
