No_4238-gen_results/8p0m/2024-11-26-14-13-15/
     RDKit          3D

 33 34  0  0  0  0  0  0  0  0999 V2000
  -28.0727   -1.2542   28.5316 F   0  0  0  0  0  0  0  0  0  0  0  0
  -27.3591   -0.3792   28.7224 C   0  0  0  0  0  0  0  0  0  0  0  0
  -27.7014    0.7608   29.1249 C   0  0  0  0  0  0  0  0  0  0  0  0
  -25.8844   -0.6918   28.4374 C   0  0  0  0  0  0  0  0  0  0  0  0
  -24.9212    0.3779   28.6013 C   0  0  0  0  0  0  0  0  0  0  0  0
  -26.6914    1.8696   29.2705 C   0  0  0  0  0  0  0  0  0  0  0  0
  -25.3451    1.6252   29.0013 C   0  0  0  0  0  0  0  0  0  0  0  0
  -23.6043    0.1786   28.3700 N   0  0  0  0  0  0  0  0  0  0  0  0
  -22.7382   -0.3988   29.2924 C   0  0  0  0  0  0  0  0  0  0  0  0
  -21.4554   -0.4603   28.9403 N   0  0  0  0  0  0  0  0  0  0  0  0
  -23.1928   -0.8976   30.4091 N   0  0  0  0  0  0  0  0  0  0  0  0
  -24.4242   -0.8891   30.8625 C   0  0  0  0  0  0  0  0  0  0  0  0
  -24.4696   -0.2992   32.3462 C   0  0  0  0  0  0  0  0  0  0  0  0
  -25.1878    0.9517   32.4988 C   0  0  0  0  0  0  0  0  0  0  0  0
  -24.8447    1.9399   31.8511 C   0  0  0  0  0  0  0  0  0  0  0  0
  -25.4275    3.3089   32.2244 C   0  0  0  0  0  0  0  0  0  0  0  0
  -26.3416    3.3371   33.2401 C   0  0  0  0  0  0  0  0  0  0  0  0
  -26.0735    1.0587   33.6493 C   0  0  0  0  0  0  0  0  0  0  0  0
  -26.6240    2.2529   33.9663 C   0  0  0  0  0  0  0  0  0  0  0  0
  -24.8416   -2.3941   31.1799 C   0  0  0  0  0  0  0  0  0  0  0  0
  -29.2735    0.9400   29.6448 Cl  0  0  0  0  0  0  0  0  0  0  0  0
  -25.0245    4.5419   31.4591 C   0  0  0  0  0  0  0  0  0  0  0  0
  -24.1925    5.1729   32.1427 O   0  0  0  0  0  0  0  0  0  0  0  0
  -25.4206    4.8303   30.4451 O   0  0  0  0  0  0  0  0  0  0  0  0
  -25.9544   -2.7238   30.1477 C   0  0  0  0  0  0  0  0  0  0  0  0
  -25.6872   -4.1266   29.6788 C   0  0  0  0  0  0  0  0  0  0  0  0
  -26.7448   -4.9476   29.7406 O   0  0  0  0  0  0  0  0  0  0  0  0
  -24.6789   -4.4348   29.0362 O   0  0  0  0  0  0  0  0  0  0  0  0
  -26.4395   -0.1920   34.3923 C   0  0  0  0  0  0  0  0  0  0  0  0
  -27.2688    0.0922   35.2870 O   0  0  0  0  0  0  0  0  0  0  0  0
  -28.2420   -0.7650   35.4948 C   0  0  0  0  0  0  0  0  0  0  0  0
  -28.6262   -1.3306   34.2608 C   0  0  0  0  0  0  0  0  0  0  0  0
  -27.7994   -1.0794   32.9270 Cl  0  0  0  0  0  0  0  0  0  0  0  0
  1  2  1  0
  5  8  1  0
  8  9  1  0
  9 10  2  0
  9 11  1  0
 11 12  1  0
 12 13  1  0
 13 14  1  0
 12 20  1  0
  3 21  1  0
 16 22  1  0
 22 23  1  0
 22 24  2  0
 20 25  1  0
 25 26  1  0
 26 27  2  0
 26 28  1  0
 18 29  1  0
 29 30  1  0
 30 31  1  0
 31 32  1  0
 32 33  1  0
  2  3  2  0
  3  6  1  0
  6  7  2  0
  7  5  1  0
  5  4  2  0
  4  2  1  0
 14 15  2  0
 15 16  1  0
 16 17  2  0
 17 19  1  0
 19 18  2  0
 18 14  1  0
M  END

$$$$
