No_4040-gen_results/8p0m/2024-11-26-14-13-15/
     RDKit          3D

 24 26  0  0  0  0  0  0  0  0999 V2000
  -28.0162   -0.8135   28.8779 C   0  0  0  0  0  0  0  0  0  0  0  0
  -27.0636   -0.1189   28.6079 C   0  0  0  0  0  0  0  0  0  0  0  0
  -26.9287    1.1713   29.0083 C   0  0  0  0  0  0  0  0  0  0  0  0
  -27.9560    1.7411   29.7840 C   0  0  0  0  0  0  0  0  0  0  0  0
  -29.0569   -0.3271   29.7466 C   0  0  0  0  0  0  0  0  0  0  0  0
  -28.9828    0.9722   30.1516 C   0  0  0  0  0  0  0  0  0  0  0  0
  -25.9339   -0.3797   27.8301 O   0  0  0  0  0  0  0  0  0  0  0  0
  -24.7266   -0.5324   28.5167 C   0  0  0  0  0  0  0  0  0  0  0  0
  -23.7709    0.4953   28.3339 C   0  0  0  0  0  0  0  0  0  0  0  0
  -22.4858    0.2884   28.9377 C   0  0  0  0  0  0  0  0  0  0  0  0
  -24.4288   -1.6882   29.1578 C   0  0  0  0  0  0  0  0  0  0  0  0
  -25.3918   -2.7580   29.3451 C   0  0  0  0  0  0  0  0  0  0  0  0
  -22.2361   -0.9309   29.5786 C   0  0  0  0  0  0  0  0  0  0  0  0
  -23.1636   -1.8878   29.7258 C   0  0  0  0  0  0  0  0  0  0  0  0
  -26.3354   -2.6963   30.1902 O   0  0  0  0  0  0  0  0  0  0  0  0
  -25.4196   -3.8329   28.4704 O   0  0  0  0  0  0  0  0  0  0  0  0
  -30.0916   -1.1435   30.0929 O   0  0  0  0  0  0  0  0  0  0  0  0
  -29.8418   -2.1441   30.8912 C   0  0  0  0  0  0  0  0  0  0  0  0
  -30.3569   -3.4131   30.4244 C   0  0  0  0  0  0  0  0  0  0  0  0
  -29.6072   -4.5651   30.8837 C   0  0  0  0  0  0  0  0  0  0  0  0
  -30.0503   -5.3603   31.4058 C   0  0  0  0  0  0  0  0  0  0  0  0
  -31.4077   -5.8713   31.0247 C   0  0  0  0  0  0  0  0  0  0  0  0
  -32.1683   -4.8801   30.3431 C   0  0  0  0  0  0  0  0  0  0  0  0
  -31.5841   -3.6289   30.1337 C   0  0  0  0  0  0  0  0  0  0  0  0
  2  7  1  0
  7  8  1  0
 11 12  1  0
 12 15  2  0
 12 16  1  0
  5 17  1  0
 17 18  1  0
 18 19  1  0
  8  9  2  0
  9 10  1  0
 10 13  2  0
 13 14  1  0
 14 11  2  0
 11  8  1  0
  1  2  2  0
  2  3  1  0
  3  4  2  0
  4  6  1  0
  6  5  2  0
  5  1  1  0
 19 20  2  0
 20 21  1  0
 21 22  2  0
 22 23  1  0
 23 24  2  0
 24 19  1  0
M  END

$$$$
