No_4386-gen_results/8p0m/2024-11-26-14-13-15/
     RDKit          3D

 18 19  0  0  0  0  0  0  0  0999 V2000
  -28.1229   -1.3353   28.4874 O   0  0  0  0  0  0  0  0  0  0  0  0
  -27.0637   -0.8242   28.8687 C   0  0  0  0  0  0  0  0  0  0  0  0
  -26.9592    0.0926   29.7582 C   0  0  0  0  0  0  0  0  0  0  0  0
  -25.8472   -1.5491   28.6589 N   0  0  0  0  0  0  0  0  0  0  0  0
  -27.8673    0.9590   30.1109 C   0  0  0  0  0  0  0  0  0  0  0  0
  -24.5647   -1.1378   29.0392 C   0  0  0  0  0  0  0  0  0  0  0  0
  -24.4510   -0.0172   29.7492 C   0  0  0  0  0  0  0  0  0  0  0  0
  -25.5598    0.6710   30.1599 C   0  0  0  0  0  0  0  0  0  0  0  0
  -28.5828    1.5124   29.4485 O   0  0  0  0  0  0  0  0  0  0  0  0
  -28.2243    0.8452   31.5250 O   0  0  0  0  0  0  0  0  0  0  0  0
  -23.0656    0.4095   30.1446 C   0  0  0  0  0  0  0  0  0  0  0  0
  -22.2404    0.7750   29.4660 N   0  0  0  0  0  0  0  0  0  0  0  0
  -22.4247    1.4711   28.3499 C   0  0  0  0  0  0  0  0  0  0  0  0
  -23.6279    2.1072   28.0079 C   0  0  0  0  0  0  0  0  0  0  0  0
  -24.0419    2.2940   26.7304 C   0  0  0  0  0  0  0  0  0  0  0  0
  -23.0250    2.0937   25.7594 C   0  0  0  0  0  0  0  0  0  0  0  0
  -21.7932    1.8200   26.0830 C   0  0  0  0  0  0  0  0  0  0  0  0
  -21.4592    1.3545   27.2951 C   0  0  0  0  0  0  0  0  0  0  0  0
  1  2  2  0
  2  3  1  0
  2  4  1  0
  3  5  1  0
  4  6  1  0
  3  8  1  0
  7  8  1  0
  5  9  2  0
  5 10  1  0
  7 11  1  0
 11 12  1  0
 12 13  1  0
  7  6  1  0
 13 14  2  0
 14 15  1  0
 15 16  2  0
 16 17  1  0
 17 18  2  0
 18 13  1  0
M  END

$$$$
