No_4762-gen_results/8p0m/2024-11-26-14-13-15/
     RDKit          3D

 18 19  0  0  0  0  0  0  0  0999 V2000
  -28.0162   -0.8135   28.8779 C   0  0  0  0  0  0  0  0  0  0  0  0
  -28.4690   -0.7850   29.8287 C   0  0  0  0  0  0  0  0  0  0  0  0
  -26.5042   -0.7777   28.8766 C   0  0  0  0  0  0  0  0  0  0  0  0
  -25.8103   -0.8531   30.1028 C   0  0  0  0  0  0  0  0  0  0  0  0
  -27.9906   -0.8916   31.2257 C   0  0  0  0  0  0  0  0  0  0  0  0
  -26.6042   -0.8676   31.2652 C   0  0  0  0  0  0  0  0  0  0  0  0
  -24.5534   -0.7871   30.1406 F   0  0  0  0  0  0  0  0  0  0  0  0
  -30.0954   -0.8409   29.8497 C   0  0  0  0  0  0  0  0  0  0  0  0
  -30.7389   -1.6683   30.1743 O   0  0  0  0  0  0  0  0  0  0  0  0
  -30.5965    0.1150   28.9042 N   0  0  0  0  0  0  0  0  0  0  0  0
  -31.9717    0.1199   28.6250 C   0  0  0  0  0  0  0  0  0  0  0  0
  -29.8342    1.2245   28.3677 C   0  0  0  0  0  0  0  0  0  0  0  0
  -30.1297    2.4486   29.0036 C   0  0  0  0  0  0  0  0  0  0  0  0
  -29.2734    3.3619   28.9773 C   0  0  0  0  0  0  0  0  0  0  0  0
  -29.3732    4.6141   29.7987 C   0  0  0  0  0  0  0  0  0  0  0  0
  -30.6257    4.7822   30.4139 C   0  0  0  0  0  0  0  0  0  0  0  0
  -31.5457    3.7673   30.3915 C   0  0  0  0  0  0  0  0  0  0  0  0
  -31.2837    2.5972   29.7697 C   0  0  0  0  0  0  0  0  0  0  0  0
  4  7  1  0
  2  8  1  0
  8  9  2  0
  8 10  1  0
 10 11  1  0
 10 12  1  0
 12 13  1  0
 13 14  2  0
 14 15  1  0
 15 16  2  0
 16 17  1  0
 17 18  2  0
 18 13  1  0
  1  2  2  0
  2  5  1  0
  5  6  2  0
  6  4  1  0
  4  3  2  0
  3  1  1  0
M  END

$$$$
