No_4377-gen_results/8p0m/2024-11-26-14-13-15/
     RDKit          3D

 28 30  0  0  0  0  0  0  0  0999 V2000
  -28.0162   -0.8135   28.8779 C   0  0  0  0  0  0  0  0  0  0  0  0
  -27.0636   -0.1189   28.6079 C   0  0  0  0  0  0  0  0  0  0  0  0
  -25.7647   -0.3897   29.0360 C   0  0  0  0  0  0  0  0  0  0  0  0
  -25.5296   -1.5302   29.9014 C   0  0  0  0  0  0  0  0  0  0  0  0
  -26.6888   -2.2893   30.1810 C   0  0  0  0  0  0  0  0  0  0  0  0
  -27.8727   -1.9508   29.7373 C   0  0  0  0  0  0  0  0  0  0  0  0
  -24.6590    0.3822   28.7692 O   0  0  0  0  0  0  0  0  0  0  0  0
  -23.4062    0.0733   29.1011 C   0  0  0  0  0  0  0  0  0  0  0  0
  -22.3943    1.0175   28.7490 C   0  0  0  0  0  0  0  0  0  0  0  0
  -22.8227    2.2099   28.3798 O   0  0  0  0  0  0  0  0  0  0  0  0
  -21.1982    0.8763   28.9925 O   0  0  0  0  0  0  0  0  0  0  0  0
  -29.0404   -2.8070   30.1549 C   0  0  0  0  0  0  0  0  0  0  0  0
  -30.2085   -2.2882   30.2304 N   0  0  0  0  0  0  0  0  0  0  0  0
  -28.8972   -4.1027   30.1140 O   0  0  0  0  0  0  0  0  0  0  0  0
  -31.3770   -3.1057   30.5553 C   0  0  0  0  0  0  0  0  0  0  0  0
  -32.2363   -3.2698   29.4984 C   0  0  0  0  0  0  0  0  0  0  0  0
  -32.4638   -2.2155   28.6638 C   0  0  0  0  0  0  0  0  0  0  0  0
  -33.1499   -2.3172   27.4783 C   0  0  0  0  0  0  0  0  0  0  0  0
  -33.6666   -3.6232   27.1355 C   0  0  0  0  0  0  0  0  0  0  0  0
  -33.4417   -4.7023   27.9535 C   0  0  0  0  0  0  0  0  0  0  0  0
  -32.6620   -4.5216   29.0868 C   0  0  0  0  0  0  0  0  0  0  0  0
  -31.5448   -3.4443   31.8556 C   0  0  0  0  0  0  0  0  0  0  0  0
  -32.1851   -3.2140   32.6154 C   0  0  0  0  0  0  0  0  0  0  0  0
  -33.1804   -2.0187   32.4866 C   0  0  0  0  0  0  0  0  0  0  0  0
  -34.0728   -1.6410   33.5343 C   0  0  0  0  0  0  0  0  0  0  0  0
  -33.9955   -2.4603   34.6661 C   0  0  0  0  0  0  0  0  0  0  0  0
  -33.1867   -3.4912   34.8644 C   0  0  0  0  0  0  0  0  0  0  0  0
  -32.2920   -3.8717   33.8703 C   0  0  0  0  0  0  0  0  0  0  0  0
  3  7  1  0
  7  8  1  0
  8  9  1  0
  9 10  1  0
  9 11  2  0
  6 12  1  0
 12 13  1  0
 12 14  2  0
 13 15  1  0
 15 16  1  0
 15 22  1  0
 22 23  1  0
  1  2  2  0
  2  3  1  0
  3  4  2  0
  4  5  1  0
  5  6  2  0
  6  1  1  0
 23 24  2  0
 24 25  1  0
 25 26  2  0
 26 27  1  0
 27 28  2  0
 28 23  1  0
 16 17  2  0
 17 18  1  0
 18 19  2  0
 19 20  1  0
 20 21  2  0
 21 16  1  0
M  END

$$$$
