No_4930-gen_results/8p0m/2024-11-26-14-13-15/
     RDKit          3D

 27 29  0  0  0  0  0  0  0  0999 V2000
  -28.0162   -0.8135   28.8779 C   0  0  0  0  0  0  0  0  0  0  0  0
  -28.4690   -0.7850   29.8287 C   0  0  0  0  0  0  0  0  0  0  0  0
  -26.5455   -0.8762   28.8500 C   0  0  0  0  0  0  0  0  0  0  0  0
  -25.8041   -1.0324   30.0571 C   0  0  0  0  0  0  0  0  0  0  0  0
  -27.9437   -0.9869   31.2075 C   0  0  0  0  0  0  0  0  0  0  0  0
  -26.5825   -1.0386   31.2231 C   0  0  0  0  0  0  0  0  0  0  0  0
  -30.0606   -0.7371   29.9024 C   0  0  0  0  0  0  0  0  0  0  0  0
  -30.7252   -1.5544   30.2697 O   0  0  0  0  0  0  0  0  0  0  0  0
  -30.5563    0.4242   29.3124 N   0  0  0  0  0  0  0  0  0  0  0  0
  -31.9645    0.5638   29.1626 C   0  0  0  0  0  0  0  0  0  0  0  0
  -32.7762    0.4546   29.7383 C   0  0  0  0  0  0  0  0  0  0  0  0
  -32.1137    0.7592   27.6549 C   0  0  0  0  0  0  0  0  0  0  0  0
  -32.6342    0.3365   31.2730 C   0  0  0  0  0  0  0  0  0  0  0  0
  -33.2485    0.7614   27.2183 N   0  0  0  0  0  0  0  0  0  0  0  0
  -31.6499    1.1684   31.8641 C   0  0  0  0  0  0  0  0  0  0  0  0
  -31.5381    1.1439   33.3034 C   0  0  0  0  0  0  0  0  0  0  0  0
  -32.4124    0.2980   33.9982 C   0  0  0  0  0  0  0  0  0  0  0  0
  -33.3621   -0.4398   33.3783 C   0  0  0  0  0  0  0  0  0  0  0  0
  -33.4815   -0.4299   32.0277 C   0  0  0  0  0  0  0  0  0  0  0  0
  -31.0988    0.9160   26.8554 O   0  0  0  0  0  0  0  0  0  0  0  0
  -24.3907   -1.1669   30.0562 C   0  0  0  0  0  0  0  0  0  0  0  0
  -23.6065   -0.8978   29.0352 C   0  0  0  0  0  0  0  0  0  0  0  0
  -22.1501   -0.8608   29.1767 C   0  0  0  0  0  0  0  0  0  0  0  0
  -21.4015   -0.3217   28.1470 C   0  0  0  0  0  0  0  0  0  0  0  0
  -22.0406    0.7239   27.3514 C   0  0  0  0  0  0  0  0  0  0  0  0
  -23.4407    0.9087   27.3983 C   0  0  0  0  0  0  0  0  0  0  0  0
  -24.1749    0.1939   28.2460 C   0  0  0  0  0  0  0  0  0  0  0  0
  2  7  1  0
  7  8  2  0
  7  9  1  0
  9 10  1  0
 10 11  2  3
 10 12  1  0
 11 13  1  0
 12 14  2  0
 12 20  1  0
  4 21  1  0
 21 22  1  0
 13 15  2  0
 15 16  1  0
 16 17  2  0
 17 18  1  0
 18 19  2  0
 19 13  1  0
 22 23  2  0
 23 24  1  0
 24 25  2  0
 25 26  1  0
 26 27  2  0
 27 22  1  0
  1  2  2  0
  2  5  1  0
  5  6  2  0
  6  4  1  0
  4  3  2  0
  3  1  1  0
M  END

$$$$
