No_4789-gen_results/8p0m/2024-11-26-14-13-15/
     RDKit          3D

 26 28  0  0  0  0  0  0  0  0999 V2000
  -28.0162   -0.8135   28.8779 C   0  0  0  0  0  0  0  0  0  0  0  0
  -28.4690   -0.7850   29.8287 C   0  0  0  0  0  0  0  0  0  0  0  0
  -26.5042   -0.7777   28.8766 C   0  0  0  0  0  0  0  0  0  0  0  0
  -25.8103   -0.8531   30.1028 C   0  0  0  0  0  0  0  0  0  0  0  0
  -27.9906   -0.8916   31.2257 C   0  0  0  0  0  0  0  0  0  0  0  0
  -26.6042   -0.8676   31.2652 C   0  0  0  0  0  0  0  0  0  0  0  0
  -24.3894   -0.8049   30.1638 C   0  0  0  0  0  0  0  0  0  0  0  0
  -23.8172    0.4762   29.9118 C   0  0  0  0  0  0  0  0  0  0  0  0
  -22.5010    0.5449   29.4097 C   0  0  0  0  0  0  0  0  0  0  0  0
  -21.7696   -0.6524   29.2129 C   0  0  0  0  0  0  0  0  0  0  0  0
  -23.6939   -1.8206   29.2518 C   0  0  0  0  0  0  0  0  0  0  0  0
  -22.5825   -1.5695   28.7088 C   0  0  0  0  0  0  0  0  0  0  0  0
  -23.8663   -1.2152   31.6719 C   0  0  0  0  0  0  0  0  0  0  0  0
  -25.6063   -0.7213   27.4368 Cl  0  0  0  0  0  0  0  0  0  0  0  0
  -30.0766   -0.8321   29.8190 C   0  0  0  0  0  0  0  0  0  0  0  0
  -30.7639   -1.6365   30.2835 O   0  0  0  0  0  0  0  0  0  0  0  0
  -30.5973    0.3331   29.4780 O   0  0  0  0  0  0  0  0  0  0  0  0
  -31.7447    0.4223   28.7613 C   0  0  0  0  0  0  0  0  0  0  0  0
  -31.6281    0.4075   27.4488 C   0  0  0  0  0  0  0  0  0  0  0  0
  -30.5791    1.0420   26.8437 C   0  0  0  0  0  0  0  0  0  0  0  0
  -30.2362    0.8199   25.4228 C   0  0  0  0  0  0  0  0  0  0  0  0
  -29.0573    1.3663   24.8751 C   0  0  0  0  0  0  0  0  0  0  0  0
  -28.2021    1.7863   25.5713 C   0  0  0  0  0  0  0  0  0  0  0  0
  -28.3626    2.1032   26.9860 C   0  0  0  0  0  0  0  0  0  0  0  0
  -29.5103    1.5798   27.5611 C   0  0  0  0  0  0  0  0  0  0  0  0
  -31.7330   -0.9533   27.0242 F   0  0  0  0  0  0  0  0  0  0  0  0
  4  7  1  0
  7  8  1  0
  9 10  1  0
  7 11  1  0
 10 12  1  0
  7 13  1  0
  3 14  1  0
  2 15  1  0
 15 16  2  0
 15 17  1  0
 17 18  1  0
 18 19  2  3
 19 20  1  0
 19 26  1  0
  8  9  1  0
 12 11  1  0
  1  2  2  0
  2  5  1  0
  5  6  2  0
  6  4  1  0
  4  3  2  0
  3  1  1  0
 20 21  2  0
 21 22  1  0
 22 23  2  0
 23 24  1  0
 24 25  2  0
 25 20  1  0
M  END

$$$$
