No_4304-gen_results/8p0m/2024-11-26-14-13-15/
     RDKit          3D

 34 36  0  0  0  0  0  0  0  0999 V2000
  -28.0162   -0.8135   28.8779 C   0  0  0  0  0  0  0  0  0  0  0  0
  -27.0636   -0.1190   28.6079 C   0  0  0  0  0  0  0  0  0  0  0  0
  -25.7647   -0.3897   29.0360 C   0  0  0  0  0  0  0  0  0  0  0  0
  -25.5296   -1.5302   29.9014 C   0  0  0  0  0  0  0  0  0  0  0  0
  -26.6888   -2.2893   30.1810 C   0  0  0  0  0  0  0  0  0  0  0  0
  -27.8727   -1.9508   29.7373 C   0  0  0  0  0  0  0  0  0  0  0  0
  -28.9304   -2.7298   30.1154 O   0  0  0  0  0  0  0  0  0  0  0  0
  -24.5394    0.4211   28.7421 C   0  0  0  0  0  0  0  0  0  0  0  0
  -24.5259    1.2743   27.7266 C   0  0  0  0  0  0  0  0  0  0  0  0
  -23.3174    1.9856   27.4033 C   0  0  0  0  0  0  0  0  0  0  0  0
  -22.1311    1.7373   28.0503 C   0  0  0  0  0  0  0  0  0  0  0  0
  -23.2983    0.1369   29.3771 C   0  0  0  0  0  0  0  0  0  0  0  0
  -22.1005    0.8185   29.0410 C   0  0  0  0  0  0  0  0  0  0  0  0
  -30.0646   -2.2184   30.5721 C   0  0  0  0  0  0  0  0  0  0  0  0
  -30.4682   -2.9139   31.7147 C   0  0  0  0  0  0  0  0  0  0  0  0
  -29.6114   -3.6421   32.4333 C   0  0  0  0  0  0  0  0  0  0  0  0
  -31.8823   -2.8515   32.1076 C   0  0  0  0  0  0  0  0  0  0  0  0
  -29.9825   -4.4401   33.1452 C   0  0  0  0  0  0  0  0  0  0  0  0
  -32.2628   -3.7450   33.1206 C   0  0  0  0  0  0  0  0  0  0  0  0
  -31.3002   -4.5774   33.7265 C   0  0  0  0  0  0  0  0  0  0  0  0
  -30.6847   -1.3135   30.0632 O   0  0  0  0  0  0  0  0  0  0  0  0
  -23.3904    2.8949   26.3810 O   0  0  0  0  0  0  0  0  0  0  0  0
  -24.0971    3.8745   26.3773 C   0  0  0  0  0  0  0  0  0  0  0  0
  -33.5143   -3.7613   33.5268 F   0  0  0  0  0  0  0  0  0  0  0  0
  -31.6818   -5.4062   34.6643 F   0  0  0  0  0  0  0  0  0  0  0  0
  -27.2961    1.0234   27.8929 O   0  0  0  0  0  0  0  0  0  0  0  0
  -28.4854    1.6016   27.8216 C   0  0  0  0  0  0  0  0  0  0  0  0
  -28.8414    2.5928   28.6797 C   0  0  0  0  0  0  0  0  0  0  0  0
  -27.8977    3.4395   29.0612 C   0  0  0  0  0  0  0  0  0  0  0  0
  -27.3584    4.4176   28.1912 C   0  0  0  0  0  0  0  0  0  0  0  0
  -27.5179    5.6731   28.5778 C   0  0  0  0  0  0  0  0  0  0  0  0
  -27.3126    6.7297   27.6257 C   0  0  0  0  0  0  0  0  0  0  0  0
  -27.1799    3.2922   30.3567 C   0  0  0  0  0  0  0  0  0  0  0  0
  -26.9717    4.5804   31.0557 C   0  0  0  0  0  0  0  0  0  0  0  0
  6  7  1  0
  3  8  1  0
  7 14  1  0
 14 15  1  0
 14 21  2  0
 10 22  1  0
 22 23  1  0
 19 24  1  0
 20 25  1  0
  2 26  1  0
 26 27  1  0
 27 28  1  0
 28 29  1  0
 29 30  1  0
 30 31  2  3
 31 32  1  0
 29 33  1  0
 33 34  2  0
  1  2  2  0
  2  3  1  0
  3  4  2  0
  4  5  1  0
  5  6  2  0
  6  1  1  0
 15 16  2  0
 16 18  1  0
 18 20  2  0
 20 19  1  0
 19 17  2  0
 17 15  1  0
  8  9  2  0
  9 10  1  0
 10 11  2  0
 11 13  1  0
 13 12  2  0
 12  8  1  0
M  END

$$$$
