No_4398-gen_results/8p0m/2024-11-26-14-13-15/
     RDKit          3D

 25 27  0  0  0  0  0  0  0  0999 V2000
  -28.0162   -0.8135   28.8779 C   0  0  0  0  0  0  0  0  0  0  0  0
  -27.0636   -0.1189   28.6079 C   0  0  0  0  0  0  0  0  0  0  0  0
  -25.7923   -0.4302   29.0761 C   0  0  0  0  0  0  0  0  0  0  0  0
  -25.5681   -1.2411   29.7572 C   0  0  0  0  0  0  0  0  0  0  0  0
  -26.6114   -2.1840   30.2439 C   0  0  0  0  0  0  0  0  0  0  0  0
  -27.8191   -1.9189   29.8034 C   0  0  0  0  0  0  0  0  0  0  0  0
  -29.0160   -2.6622   30.2016 C   0  0  0  0  0  0  0  0  0  0  0  0
  -30.1919   -1.9915   30.4060 C   0  0  0  0  0  0  0  0  0  0  0  0
  -30.3549   -0.8280   29.5761 C   0  0  0  0  0  0  0  0  0  0  0  0
  -29.3393   -0.2022   28.9953 C   0  0  0  0  0  0  0  0  0  0  0  0
  -28.7450   -3.8227   30.8549 O   0  0  0  0  0  0  0  0  0  0  0  0
  -29.8425   -4.6594   31.0221 C   0  0  0  0  0  0  0  0  0  0  0  0
  -30.6800   -4.4373   31.9294 C   0  0  0  0  0  0  0  0  0  0  0  0
  -31.8095   -5.3091   32.1273 C   0  0  0  0  0  0  0  0  0  0  0  0
  -31.7543   -6.5366   31.4365 C   0  0  0  0  0  0  0  0  0  0  0  0
  -30.7289   -6.8202   30.5499 C   0  0  0  0  0  0  0  0  0  0  0  0
  -29.7511   -5.8738   30.3751 C   0  0  0  0  0  0  0  0  0  0  0  0
  -31.7959   -0.3486   29.4218 C   0  0  0  0  0  0  0  0  0  0  0  0
  -32.3899    0.0127   30.2925 O   0  0  0  0  0  0  0  0  0  0  0  0
  -32.3304   -0.7852   28.2007 O   0  0  0  0  0  0  0  0  0  0  0  0
  -24.5943    0.4141   28.4443 C   0  0  0  0  0  0  0  0  0  0  0  0
  -24.5743    1.0687   27.0299 Cl  0  0  0  0  0  0  0  0  0  0  0  0
  -23.3440    0.4614   29.2459 C   0  0  0  0  0  0  0  0  0  0  0  0
  -22.6153   -0.6872   29.2362 C   0  0  0  0  0  0  0  0  0  0  0  0
  -22.5863    1.6477   28.9006 C   0  0  0  0  0  0  0  0  0  0  0  0
  7 11  1  0
 11 12  1  0
  9 18  1  0
 18 19  2  0
 18 20  1  0
  3 21  1  0
 21 22  1  0
 21 23  1  0
 23 24  1  0
 23 25  1  0
 12 13  2  0
 13 14  1  0
 14 15  2  0
 15 16  1  0
 16 17  2  0
 17 12  1  0
  1  2  2  0
  2  3  1  0
  3  4  2  0
  4  5  1  0
  5  6  2  0
  1  6  1  0
  6  7  1  0
  7  8  2  0
  8  9  1  0
  9 10  2  0
 10  1  1  0
M  END

$$$$
