No_4667-gen_results/8p0m/2024-11-26-14-13-15/
     RDKit          3D

 27 27  0  0  0  0  0  0  0  0999 V2000
  -28.0162   -0.8135   28.8779 C   0  0  0  0  0  0  0  0  0  0  0  0
  -27.0636   -0.1189   28.6079 C   0  0  0  0  0  0  0  0  0  0  0  0
  -26.9287    1.1713   29.0083 C   0  0  0  0  0  0  0  0  0  0  0  0
  -27.9560    1.7411   29.7840 C   0  0  0  0  0  0  0  0  0  0  0  0
  -29.0569   -0.3271   29.7466 C   0  0  0  0  0  0  0  0  0  0  0  0
  -28.9828    0.9722   30.1516 C   0  0  0  0  0  0  0  0  0  0  0  0
  -25.8251   -0.4331   27.7536 C   0  0  0  0  0  0  0  0  0  0  0  0
  -25.8913   -0.1487   26.6960 F   0  0  0  0  0  0  0  0  0  0  0  0
  -24.5822   -0.0580   28.2827 F   0  0  0  0  0  0  0  0  0  0  0  0
  -25.5842   -1.8812   27.9402 F   0  0  0  0  0  0  0  0  0  0  0  0
  -30.0307   -1.1823   30.1140 O   0  0  0  0  0  0  0  0  0  0  0  0
  -29.8030   -2.3073   30.6718 C   0  0  0  0  0  0  0  0  0  0  0  0
  -30.5267   -3.4397   30.1181 C   0  0  0  0  0  0  0  0  0  0  0  0
  -29.8677   -4.5462   30.1026 O   0  0  0  0  0  0  0  0  0  0  0  0
  -31.6345   -3.3742   29.6525 O   0  0  0  0  0  0  0  0  0  0  0  0
  -28.9706   -2.4255   31.6544 O   0  0  0  0  0  0  0  0  0  0  0  0
  -27.7932    3.1749   30.1845 C   0  0  0  0  0  0  0  0  0  0  0  0
  -27.1263    3.9125   29.7433 N   0  0  0  0  0  0  0  0  0  0  0  0
  -26.2075    3.7771   28.8569 C   0  0  0  0  0  0  0  0  0  0  0  0
  -25.2233    4.9149   28.4835 C   0  0  0  0  0  0  0  0  0  0  0  0
  -28.8281    3.5520   30.9411 O   0  0  0  0  0  0  0  0  0  0  0  0
  -26.0028    5.8793   27.6513 C   0  0  0  0  0  0  0  0  0  0  0  0
  -26.2929    7.0197   28.2123 C   0  0  0  0  0  0  0  0  0  0  0  0
  -25.6485    7.4191   29.3297 C   0  0  0  0  0  0  0  0  0  0  0  0
  -25.5475    8.7821   29.7189 C   0  0  0  0  0  0  0  0  0  0  0  0
  -26.3370    9.6367   29.1632 C   0  0  0  0  0  0  0  0  0  0  0  0
  -26.3638   10.9828   29.6470 C   0  0  0  0  0  0  0  0  0  0  0  0
  2  7  1  0
  7  8  1  0
  7  9  1  0
  7 10  1  0
  5 11  1  0
 11 12  1  0
 12 13  1  0
 13 14  2  0
 13 15  1  0
 12 16  2  0
  4 17  1  0
 17 18  1  0
 18 19  1  0
 19 20  2  3
 17 21  2  0
 20 22  1  0
 22 23  1  0
 23 24  1  0
 24 25  1  0
 25 26  2  3
 26 27  1  0
  1  2  2  0
  2  3  1  0
  3  4  2  0
  4  6  1  0
  6  5  2  0
  5  1  1  0
M  END

$$$$
