No_4240-gen_results/8p0m/2024-11-26-14-13-15/
     RDKit          3D

 23 24  0  0  0  0  0  0  0  0999 V2000
  -28.0162   -0.8135   28.8779 C   0  0  0  0  0  0  0  0  0  0  0  0
  -28.4690   -0.7850   29.8287 C   0  0  0  0  0  0  0  0  0  0  0  0
  -28.1960    0.3478   28.0550 C   0  0  0  0  0  0  0  0  0  0  0  0
  -29.0191    1.3501   28.3782 C   0  0  0  0  0  0  0  0  0  0  0  0
  -29.4107    0.1803   30.3782 C   0  0  0  0  0  0  0  0  0  0  0  0
  -29.6059    1.2495   29.6193 C   0  0  0  0  0  0  0  0  0  0  0  0
  -27.3467    0.3759   26.5145 Cl  0  0  0  0  0  0  0  0  0  0  0  0
  -30.1606    0.1144   31.6913 C   0  0  0  0  0  0  0  0  0  0  0  0
  -29.3916    0.0207   32.7641 C   0  0  0  0  0  0  0  0  0  0  0  0
  -30.0469   -0.1104   34.0931 C   0  0  0  0  0  0  0  0  0  0  0  0
  -27.9644    0.0354   32.7800 C   0  0  0  0  0  0  0  0  0  0  0  0
  -27.1219    0.2474   32.0090 C   0  0  0  0  0  0  0  0  0  0  0  0
  -26.5619    1.5485   31.8518 C   0  0  0  0  0  0  0  0  0  0  0  0
  -25.5542    1.9044   31.2876 C   0  0  0  0  0  0  0  0  0  0  0  0
  -24.7571    0.9445   30.5657 C   0  0  0  0  0  0  0  0  0  0  0  0
  -25.1715   -0.3546   30.6681 C   0  0  0  0  0  0  0  0  0  0  0  0
  -26.2840   -0.7039   31.3986 C   0  0  0  0  0  0  0  0  0  0  0  0
  -23.5985    1.3414   29.7471 C   0  0  0  0  0  0  0  0  0  0  0  0
  -23.8570    2.0115   28.5148 C   0  0  0  0  0  0  0  0  0  0  0  0
  -22.9114    1.9169   27.5925 N   0  0  0  0  0  0  0  0  0  0  0  0
  -23.1528    2.3220   26.2889 C   0  0  0  0  0  0  0  0  0  0  0  0
  -24.4490    2.8712   26.0136 C   0  0  0  0  0  0  0  0  0  0  0  0
  -25.0125    2.5046   28.1273 O   0  0  0  0  0  0  0  0  0  0  0  0
  3  7  1  0
  5  8  1  0
  8  9  2  3
  9 10  1  0
  9 11  1  0
 11 12  1  0
 15 18  1  0
 18 19  1  0
 19 20  1  0
 20 21  2  3
 21 22  1  0
 19 23  2  0
 12 13  2  0
 13 14  1  0
 14 15  2  0
 15 16  1  0
 16 17  2  0
 17 12  1  0
  1  2  2  0
  2  5  1  0
  5  6  2  0
  6  4  1  0
  4  3  2  0
  3  1  1  0
M  END

$$$$
