No_4640-gen_results/8p0m/2024-11-26-14-13-15/
     RDKit          3D

 14 15  0  0  0  0  0  0  0  0999 V2000
  -28.0162   -0.8135   28.8779 C   0  0  0  0  0  0  0  0  0  0  0  0
  -28.4690   -0.7850   29.8287 C   0  0  0  0  0  0  0  0  0  0  0  0
  -28.1816    0.4277   28.1134 C   0  0  0  0  0  0  0  0  0  0  0  0
  -28.9841    1.4155   28.5154 C   0  0  0  0  0  0  0  0  0  0  0  0
  -29.3802    0.1384   30.4612 C   0  0  0  0  0  0  0  0  0  0  0  0
  -29.5415    1.2736   29.7242 C   0  0  0  0  0  0  0  0  0  0  0  0
  -27.4586    0.4934   26.7701 C   0  0  0  0  0  0  0  0  0  0  0  0
  -26.4813    1.5210   26.6301 C   0  0  0  0  0  0  0  0  0  0  0  0
  -25.2822    1.2076   26.0515 C   0  0  0  0  0  0  0  0  0  0  0  0
  -24.2953    0.9566   26.3530 C   0  0  0  0  0  0  0  0  0  0  0  0
  -23.7780    1.6964   27.6169 C   0  0  0  0  0  0  0  0  0  0  0  0
  -24.8455    2.3658   28.2732 C   0  0  0  0  0  0  0  0  0  0  0  0
  -26.1668    2.1818   27.9242 C   0  0  0  0  0  0  0  0  0  0  0  0
  -22.4224    1.7540   28.0064 C   0  0  0  0  0  0  0  0  0  0  0  0
  3  7  1  0
  7  8  1  0
 11 14  1  0
  8  9  2  0
  9 10  1  0
 10 11  2  0
 11 12  1  0
 12 13  2  0
 13  8  1  0
  1  2  2  0
  2  5  1  0
  5  6  2  0
  6  4  1  0
  4  3  2  0
  3  1  1  0
M  END

$$$$
