No_4224-gen_results/8p0m/2024-11-26-14-13-15/
     RDKit          3D

 35 37  0  0  0  0  0  0  0  0999 V2000
  -28.0162   -0.8135   28.8779 C   0  0  0  0  0  0  0  0  0  0  0  0
  -28.4690   -0.7850   29.8287 C   0  0  0  0  0  0  0  0  0  0  0  0
  -26.5042   -0.7777   28.8766 C   0  0  0  0  0  0  0  0  0  0  0  0
  -25.8103   -0.8531   30.1028 C   0  0  0  0  0  0  0  0  0  0  0  0
  -27.9906   -0.8916   31.2257 C   0  0  0  0  0  0  0  0  0  0  0  0
  -26.6042   -0.8676   31.2652 C   0  0  0  0  0  0  0  0  0  0  0  0
  -30.0739   -0.8360   29.8615 C   0  0  0  0  0  0  0  0  0  0  0  0
  -30.8171    0.4583   28.9240 P   0  0  0  0  0  0  0  0  0  0  0  0
  -29.9750    1.2703   28.5644 O   0  0  0  0  0  0  0  0  0  0  0  0
  -31.8328    1.0030   29.8808 O   0  0  0  0  0  0  0  0  0  0  0  0
  -31.5585   -0.3494   27.8116 O   0  0  0  0  0  0  0  0  0  0  0  0
  -32.3751   -1.2297   27.8047 C   0  0  0  0  0  0  0  0  0  0  0  0
  -32.3457   -1.9289   26.5269 C   0  0  0  0  0  0  0  0  0  0  0  0
  -31.6943   -1.3785   25.4938 C   0  0  0  0  0  0  0  0  0  0  0  0
  -30.8003   -2.0585   24.9695 O   0  0  0  0  0  0  0  0  0  0  0  0
  -33.7343   -2.1476   26.0363 O   0  0  0  0  0  0  0  0  0  0  0  0
  -32.1087   -2.2320   28.8358 O   0  0  0  0  0  0  0  0  0  0  0  0
  -24.3762   -0.8406   30.1414 C   0  0  0  0  0  0  0  0  0  0  0  0
  -23.8137    0.4675   29.9808 C   0  0  0  0  0  0  0  0  0  0  0  0
  -23.5182    0.9537   28.7254 C   0  0  0  0  0  0  0  0  0  0  0  0
  -22.2892    0.9140   28.2887 C   0  0  0  0  0  0  0  0  0  0  0  0
  -21.9552    1.5436   26.9822 C   0  0  0  0  0  0  0  0  0  0  0  0
  -22.9957    2.1706   26.3009 C   0  0  0  0  0  0  0  0  0  0  0  0
  -24.3892    1.7252   27.9005 C   0  0  0  0  0  0  0  0  0  0  0  0
  -24.1455    2.2683   26.7819 C   0  0  0  0  0  0  0  0  0  0  0  0
  -23.6911    1.2429   31.0449 O   0  0  0  0  0  0  0  0  0  0  0  0
  -25.2052    3.0116   26.0284 C   0  0  0  0  0  0  0  0  0  0  0  0
  -26.5073    3.1111   26.5759 C   0  0  0  0  0  0  0  0  0  0  0  0
  -26.6783    3.0808   27.7585 C   0  0  0  0  0  0  0  0  0  0  0  0
  -25.7235    2.1786   28.5984 C   0  0  0  0  0  0  0  0  0  0  0  0
  -21.2913    0.2777   28.8775 O   0  0  0  0  0  0  0  0  0  0  0  0
  -33.1645   -2.9019   29.3706 C   0  0  0  0  0  0  0  0  0  0  0  0
  -32.8538   -4.0350   29.9045 C   0  0  0  0  0  0  0  0  0  0  0  0
  -33.9165   -4.6046   30.3389 F   0  0  0  0  0  0  0  0  0  0  0  0
  -32.3305   -4.9645   29.0031 F   0  0  0  0  0  0  0  0  0  0  0  0
  2  7  1  0
  7  8  1  0
  8  9  2  0
  8 10  1  0
  8 11  1  0
 11 12  1  0
 12 13  1  0
 13 14  1  0
 14 15  2  0
 13 16  1  0
 12 17  1  0
  4 18  1  0
 18 19  1  0
 19 20  1  0
 19 26  2  0
 21 31  1  0
 17 32  1  0
 32 33  2  3
 33 34  1  0
 33 35  1  0
 20 21  2  0
 21 22  1  0
 22 23  2  0
 23 25  1  0
 24 20  1  0
 24 25  2  0
 25 27  1  0
 27 28  2  0
 28 29  1  0
 29 30  2  0
 30 24  1  0
  1  2  2  0
  2  5  1  0
  5  6  2  0
  6  4  1  0
  4  3  2  0
  3  1  1  0
M  END

$$$$
