No_444-gen_results/8p0m/2024-11-26-14-13-15/
     RDKit          3D

 15 15  0  0  0  0  0  0  0  0999 V2000
  -28.0162   -0.8135   28.8779 C   0  0  0  0  0  0  0  0  0  0  0  0
  -27.0636   -0.1190   28.6079 C   0  0  0  0  0  0  0  0  0  0  0  0
  -25.7647   -0.3897   29.0360 C   0  0  0  0  0  0  0  0  0  0  0  0
  -24.5516    0.4058   28.7646 C   0  0  0  0  0  0  0  0  0  0  0  0
  -24.6957    1.4480   27.7988 C   0  0  0  0  0  0  0  0  0  0  0  0
  -25.9755    1.7250   27.3077 C   0  0  0  0  0  0  0  0  0  0  0  0
  -27.0718    1.0134   27.6535 C   0  0  0  0  0  0  0  0  0  0  0  0
  -29.5298   -0.2777   28.6674 Cl  0  0  0  0  0  0  0  0  0  0  0  0
  -27.8231   -1.6548   30.1194 C   0  0  0  0  0  0  0  0  0  0  0  0
  -28.7362   -2.2287   30.6341 O   0  0  0  0  0  0  0  0  0  0  0  0
  -26.6605   -2.1523   30.4170 O   0  0  0  0  0  0  0  0  0  0  0  0
  -23.5083    2.2573   27.5333 C   0  0  0  0  0  0  0  0  0  0  0  0
  -22.5749    1.9737   27.2507 N   0  0  0  0  0  0  0  0  0  0  0  0
  -23.8172    3.5957   27.3891 O   0  0  0  0  0  0  0  0  0  0  0  0
  -21.4603    1.2916   27.9834 C   0  0  0  0  0  0  0  0  0  0  0  0
  1  8  1  0
  1  9  1  0
  9 10  1  0
  9 11  2  0
  5 12  1  0
 12 13  2  3
 12 14  1  0
 13 15  1  0
  1  2  1  0
  2  3  2  0
  3  4  1  0
  4  5  2  0
  5  6  1  0
  6  7  2  0
  7  2  1  0
M  END

$$$$
