No_4220-gen_results/8p0m/2024-11-26-14-13-15/
     RDKit          3D

 16 17  0  0  0  0  0  0  0  0999 V2000
  -28.0162   -0.8135   28.8779 C   0  0  0  0  0  0  0  0  0  0  0  0
  -27.0636   -0.1189   28.6079 C   0  0  0  0  0  0  0  0  0  0  0  0
  -26.9716    0.7139   27.5060 C   0  0  0  0  0  0  0  0  0  0  0  0
  -28.1053    0.7744   26.6421 C   0  0  0  0  0  0  0  0  0  0  0  0
  -29.2008    0.1044   27.0527 C   0  0  0  0  0  0  0  0  0  0  0  0
  -29.2096   -0.6029   28.1853 C   0  0  0  0  0  0  0  0  0  0  0  0
  -30.3702    0.2264   26.1604 C   0  0  0  0  0  0  0  0  0  0  0  0
  -31.1738   -0.5856   26.3308 F   0  0  0  0  0  0  0  0  0  0  0  0
  -30.8534    1.4738   26.2838 F   0  0  0  0  0  0  0  0  0  0  0  0
  -29.9564    0.1272   24.8490 F   0  0  0  0  0  0  0  0  0  0  0  0
  -25.6750    1.4051   27.1240 C   0  0  0  0  0  0  0  0  0  0  0  0
  -24.5789    1.0266   27.8026 C   0  0  0  0  0  0  0  0  0  0  0  0
  -23.3040    1.7709   27.4529 C   0  0  0  0  0  0  0  0  0  0  0  0
  -23.2723    2.6122   26.3592 C   0  0  0  0  0  0  0  0  0  0  0  0
  -25.5915    2.3344   26.0949 C   0  0  0  0  0  0  0  0  0  0  0  0
  -24.4250    2.9986   25.7754 C   0  0  0  0  0  0  0  0  0  0  0  0
  5  7  1  0
  7  8  1  0
  7  9  1  0
  7 10  1  0
  3 11  1  0
  1  2  2  0
  2  3  1  0
  3  4  2  0
  4  5  1  0
  5  6  2  0
  6  1  1  0
 11 12  2  0
 12 13  1  0
 13 14  2  0
 14 16  1  0
 16 15  2  0
 15 11  1  0
M  END

$$$$
