No_4601-gen_results/8p0m/2024-11-26-14-13-15/
     RDKit          3D

 35 37  0  0  0  0  0  0  0  0999 V2000
  -28.1229   -1.3353   28.4874 O   0  0  0  0  0  0  0  0  0  0  0  0
  -28.5208   -0.4363   29.0779 C   0  0  0  0  0  0  0  0  0  0  0  0
  -28.5894    0.5916   28.9464 C   0  0  0  0  0  0  0  0  0  0  0  0
  -29.1246   -0.9399   30.4266 N   0  0  0  0  0  0  0  0  0  0  0  0
  -29.3373    1.3633   29.3669 F   0  0  0  0  0  0  0  0  0  0  0  0
  -27.6430    1.2583   27.9210 C   0  0  0  0  0  0  0  0  0  0  0  0
  -27.9537    1.3651   26.6000 C   0  0  0  0  0  0  0  0  0  0  0  0
  -26.9787    1.3984   25.6239 C   0  0  0  0  0  0  0  0  0  0  0  0
  -25.5888    1.5349   26.0403 C   0  0  0  0  0  0  0  0  0  0  0  0
  -25.2690    1.4833   27.3737 C   0  0  0  0  0  0  0  0  0  0  0  0
  -26.2305    1.2350   28.2570 C   0  0  0  0  0  0  0  0  0  0  0  0
  -29.0635   -2.3610   30.8322 C   0  0  0  0  0  0  0  0  0  0  0  0
  -23.8388    1.5021   27.7120 C   0  0  0  0  0  0  0  0  0  0  0  0
  -23.2605    0.5928   28.5516 C   0  0  0  0  0  0  0  0  0  0  0  0
  -21.8674    0.5034   28.7587 C   0  0  0  0  0  0  0  0  0  0  0  0
  -21.0419    1.2654   27.9777 C   0  0  0  0  0  0  0  0  0  0  0  0
  -22.9100    2.2249   26.8636 C   0  0  0  0  0  0  0  0  0  0  0  0
  -21.5368    2.1396   27.0730 C   0  0  0  0  0  0  0  0  0  0  0  0
  -30.0795   -3.0881   30.2132 C   0  0  0  0  0  0  0  0  0  0  0  0
  -30.8856   -3.4928   31.0968 O   0  0  0  0  0  0  0  0  0  0  0  0
  -30.1237   -3.5827   29.1230 O   0  0  0  0  0  0  0  0  0  0  0  0
  -29.2945    1.1405   26.1536 C   0  0  0  0  0  0  0  0  0  0  0  0
  -29.6617    0.4076   25.3191 O   0  0  0  0  0  0  0  0  0  0  0  0
  -30.2368    1.9055   26.7547 O   0  0  0  0  0  0  0  0  0  0  0  0
  -31.6056    1.6569   26.5684 C   0  0  0  0  0  0  0  0  0  0  0  0
  -32.1145    0.6415   27.2166 C   0  0  0  0  0  0  0  0  0  0  0  0
  -32.5863   -0.3890   26.5641 C   0  0  0  0  0  0  0  0  0  0  0  0
  -33.2012   -0.3113   25.5382 C   0  0  0  0  0  0  0  0  0  0  0  0
  -32.8068    0.7858   24.6865 C   0  0  0  0  0  0  0  0  0  0  0  0
  -32.3881    2.8423   26.3825 C   0  0  0  0  0  0  0  0  0  0  0  0
  -33.0982    2.1581   25.0298 C   0  0  0  0  0  0  0  0  0  0  0  0
  -32.6544   -1.7456   27.3854 C   0  0  0  0  0  0  0  0  0  0  0  0
  -33.4864   -2.2138   27.7206 O   0  0  0  0  0  0  0  0  0  0  0  0
  -31.3618   -2.1882   27.5958 O   0  0  0  0  0  0  0  0  0  0  0  0
  -34.0576    2.9310   24.2296 C   0  0  0  0  0  0  0  0  0  0  0  0
  1  2  2  0
  2  3  1  0
  2  4  1  0
  3  5  1  0
  3  6  1  0
  4 12  1  0
 10 13  1  0
 12 19  1  0
 19 20  2  0
 19 21  1  0
  7 22  1  0
 22 23  2  0
 22 24  1  0
 24 25  1  0
 25 26  1  0
 26 27  1  0
 27 28  1  0
 28 29  2  0
 25 30  1  0
 29 31  1  0
 30 31  1  0
 27 32  1  0
 32 33  2  0
 32 34  1  0
 31 35  1  0
 13 14  2  0
 14 15  1  0
 15 16  2  0
 16 18  1  0
 18 17  2  0
 17 13  1  0
  6  7  2  0
  7  8  1  0
  8  9  2  0
  9 10  1  0
 10 11  2  0
 11  6  1  0
M  END

$$$$
