No_4115-gen_results/8p0m/2024-11-26-14-13-15/
     RDKit          3D

 23 25  0  0  0  0  0  0  0  0999 V2000
  -28.1229   -1.3353   28.4874 O   0  0  0  0  0  0  0  0  0  0  0  0
  -27.0637   -0.8242   28.8687 C   0  0  0  0  0  0  0  0  0  0  0  0
  -26.4017   -0.0623   28.6224 C   0  0  0  0  0  0  0  0  0  0  0  0
  -26.2652   -1.8674   29.7609 N   0  0  0  0  0  0  0  0  0  0  0  0
  -26.8442    1.1343   27.8797 C   0  0  0  0  0  0  0  0  0  0  0  0
  -25.0005   -1.6707   30.1794 C   0  0  0  0  0  0  0  0  0  0  0  0
  -24.9787    0.3185   29.1503 C   0  0  0  0  0  0  0  0  0  0  0  0
  -24.3650   -0.5406   29.9325 C   0  0  0  0  0  0  0  0  0  0  0  0
  -27.0806    2.1106   27.9711 C   0  0  0  0  0  0  0  0  0  0  0  0
  -27.1922    3.4047   27.8125 C   0  0  0  0  0  0  0  0  0  0  0  0
  -27.2137    4.6701   28.0863 C   0  0  0  0  0  0  0  0  0  0  0  0
  -27.6329    5.3165   29.1169 C   0  0  0  0  0  0  0  0  0  0  0  0
  -27.5999    6.7589   29.2123 C   0  0  0  0  0  0  0  0  0  0  0  0
  -27.8650    7.5433   30.3377 C   0  0  0  0  0  0  0  0  0  0  0  0
  -26.7952    7.2781   28.1342 C   0  0  0  0  0  0  0  0  0  0  0  0
  -26.2863    6.6647   27.0689 C   0  0  0  0  0  0  0  0  0  0  0  0
  -26.3574    5.3973   27.0561 C   0  0  0  0  0  0  0  0  0  0  0  0
  -28.0238    6.9102   31.4757 C   0  0  0  0  0  0  0  0  0  0  0  0
  -28.1746    5.5030   31.4760 C   0  0  0  0  0  0  0  0  0  0  0  0
  -27.8716    4.7006   30.3900 C   0  0  0  0  0  0  0  0  0  0  0  0
  -23.0063   -0.3239   30.4146 C   0  0  0  0  0  0  0  0  0  0  0  0
  -22.3043    0.6502   30.0089 O   0  0  0  0  0  0  0  0  0  0  0  0
  -22.5629   -0.9664   31.5254 O   0  0  0  0  0  0  0  0  0  0  0  0
  1  2  2  0
  2  3  1  0
  2  4  1  0
  3  5  1  0
  3  7  1  0
  6  8  1  0
  7  8  1  0
  5  9  2  3
  9 10  1  0
  8 21  1  0
 21 22  2  0
 21 23  1  0
 10 11  1  0
  6  4  1  0
 11 12  1  0
 13 15  1  0
 15 16  2  0
 16 17  1  0
 17 11  2  0
 12 13  1  0
 13 14  2  0
 14 18  1  0
 18 19  2  0
 19 20  1  0
 20 12  2  0
M  END

$$$$
