No_408-gen_results/8p0m/2024-11-26-14-13-15/
     RDKit          3D

 35 38  0  0  0  0  0  0  0  0999 V2000
  -28.0162   -0.8135   28.8779 C   0  0  0  0  0  0  0  0  0  0  0  0
  -27.0636   -0.1189   28.6079 C   0  0  0  0  0  0  0  0  0  0  0  0
  -27.0010    0.6913   27.4910 C   0  0  0  0  0  0  0  0  0  0  0  0
  -28.1373    0.7363   26.6350 C   0  0  0  0  0  0  0  0  0  0  0  0
  -29.2360    0.0765   27.0690 C   0  0  0  0  0  0  0  0  0  0  0  0
  -29.2177   -0.6429   28.1747 C   0  0  0  0  0  0  0  0  0  0  0  0
  -28.0030   -1.6604   30.1266 C   0  0  0  0  0  0  0  0  0  0  0  0
  -27.0435   -2.4948   30.2691 N   0  0  0  0  0  0  0  0  0  0  0  0
  -25.7647   -2.0663   30.2738 C   0  0  0  0  0  0  0  0  0  0  0  0
  -27.2602   -3.8864   30.0616 C   0  0  0  0  0  0  0  0  0  0  0  0
  -30.3333    0.1799   26.3121 F   0  0  0  0  0  0  0  0  0  0  0  0
  -28.1021    1.6104   25.4456 C   0  0  0  0  0  0  0  0  0  0  0  0
  -28.0110    2.7771   25.5523 C   0  0  0  0  0  0  0  0  0  0  0  0
  -27.4455    3.5023   26.6467 C   0  0  0  0  0  0  0  0  0  0  0  0
  -27.8390    4.8354   27.0027 C   0  0  0  0  0  0  0  0  0  0  0  0
  -28.7994    5.4286   26.1603 C   0  0  0  0  0  0  0  0  0  0  0  0
  -29.4782    4.7655   25.1672 C   0  0  0  0  0  0  0  0  0  0  0  0
  -29.1434    3.5152   24.9057 C   0  0  0  0  0  0  0  0  0  0  0  0
  -29.9545    2.7024   23.6958 Cl  0  0  0  0  0  0  0  0  0  0  0  0
  -26.3232   -4.6294   29.8526 F   0  0  0  0  0  0  0  0  0  0  0  0
  -28.3979   -4.4187   30.2866 O   0  0  0  0  0  0  0  0  0  0  0  0
  -27.1310    5.5393   27.8535 O   0  0  0  0  0  0  0  0  0  0  0  0
  -26.2613    5.2998   28.6063 C   0  0  0  0  0  0  0  0  0  0  0  0
  -24.9949    4.9833   28.0673 C   0  0  0  0  0  0  0  0  0  0  0  0
  -24.6588    3.6663   28.0573 O   0  0  0  0  0  0  0  0  0  0  0  0
  -24.3627    5.7646   27.2909 O   0  0  0  0  0  0  0  0  0  0  0  0
  -26.6081    4.3032   29.7395 C   0  0  0  0  0  0  0  0  0  0  0  0
  -26.4576    4.8224   31.0911 C   0  0  0  0  0  0  0  0  0  0  0  0
  -26.2677    6.1173   31.2830 C   0  0  0  0  0  0  0  0  0  0  0  0
  -26.0254    6.9728   30.2865 C   0  0  0  0  0  0  0  0  0  0  0  0
  -25.8592    6.5234   28.9568 C   0  0  0  0  0  0  0  0  0  0  0  0
  -25.2160    7.4410   28.0979 C   0  0  0  0  0  0  0  0  0  0  0  0
  -24.2317    7.0149   27.2964 C   0  0  0  0  0  0  0  0  0  0  0  0
  -26.9283    3.1421   29.5623 O   0  0  0  0  0  0  0  0  0  0  0  0
  -27.7708    2.5872   30.5895 C   0  0  0  0  0  0  0  0  0  0  0  0
  1  7  1  0
  7  8  1  0
  8  9  1  0
  8 10  1  0
  5 11  1  0
  4 12  1  0
 18 19  1  0
 10 20  1  0
 10 21  2  0
 15 22  1  0
 22 23  1  0
 23 24  1  0
 24 25  2  0
 24 26  1  0
 23 27  1  0
 28 29  1  0
 23 31  1  0
 30 31  1  0
 31 32  1  0
 26 33  1  0
 32 33  2  0
 27 34  1  0
 34 35  1  0
 12 13  1  0
 27 28  1  0
 29 30  1  0
  1  2  2  0
  2  3  1  0
  3  4  2  0
  4  5  1  0
  5  6  2  0
  6  1  1  0
 13 14  2  0
 14 15  1  0
 15 16  2  0
 16 17  1  0
 17 18  2  0
 18 13  1  0
M  END

$$$$
