No_4045-gen_results/8p0m/2024-11-26-14-13-15/
     RDKit          3D

 16 17  0  0  0  0  0  0  0  0999 V2000
  -28.0162   -0.8135   28.8779 C   0  0  0  0  0  0  0  0  0  0  0  0
  -27.0636   -0.1189   28.6079 C   0  0  0  0  0  0  0  0  0  0  0  0
  -27.0010    0.6913   27.4910 C   0  0  0  0  0  0  0  0  0  0  0  0
  -28.1373    0.7363   26.6350 C   0  0  0  0  0  0  0  0  0  0  0  0
  -29.2360    0.0765   27.0690 C   0  0  0  0  0  0  0  0  0  0  0  0
  -29.2177   -0.6429   28.1747 C   0  0  0  0  0  0  0  0  0  0  0  0
  -30.3222    0.1455   26.3092 F   0  0  0  0  0  0  0  0  0  0  0  0
  -25.7269   -0.1942   29.4070 C   0  0  0  0  0  0  0  0  0  0  0  0
  -24.6244   -0.1089   28.8939 N   0  0  0  0  0  0  0  0  0  0  0  0
  -24.3654    0.3288   27.7425 C   0  0  0  0  0  0  0  0  0  0  0  0
  -25.5308    0.7912   26.9392 C   0  0  0  0  0  0  0  0  0  0  0  0
  -23.1672    0.7695   27.3048 N   0  0  0  0  0  0  0  0  0  0  0  0
  -22.0788    0.6917   28.1680 C   0  0  0  0  0  0  0  0  0  0  0  0
  -20.8309    1.3228   27.7981 C   0  0  0  0  0  0  0  0  0  0  0  0
  -22.1430    0.3710   29.4021 C   0  0  0  0  0  0  0  0  0  0  0  0
  -25.3514    1.4130   25.6536 C   0  0  0  0  0  0  0  0  0  0  0  0
  5  7  1  0
 10 12  1  0
 12 13  1  0
 13 14  2  0
 13 15  1  0
 11 16  1  0
  1  2  2  0
  3  4  2  0
  4  5  1  0
  5  6  2  0
  6  1  1  0
  2  3  1  0
  3 11  1  0
 11 10  2  0
 10  9  1  0
  9  8  2  0
  8  2  1  0
M  END

$$$$
