No_4366-gen_results/8p0m/2024-11-26-14-13-15/
     RDKit          3D

 18 20  0  0  0  0  0  0  0  0999 V2000
  -28.0162   -0.8135   28.8779 C   0  0  0  0  0  0  0  0  0  0  0  0
  -27.0636   -0.1189   28.6079 C   0  0  0  0  0  0  0  0  0  0  0  0
  -26.9287    1.1713   29.0083 C   0  0  0  0  0  0  0  0  0  0  0  0
  -25.7702    2.0341   28.6884 C   0  0  0  0  0  0  0  0  0  0  0  0
  -24.7141    1.4431   27.9188 C   0  0  0  0  0  0  0  0  0  0  0  0
  -24.8590    0.0783   27.5836 C   0  0  0  0  0  0  0  0  0  0  0  0
  -25.9647   -0.6606   27.9164 C   0  0  0  0  0  0  0  0  0  0  0  0
  -29.2406   -0.2045   29.0738 C   0  0  0  0  0  0  0  0  0  0  0  0
  -29.3139    1.0974   29.4077 C   0  0  0  0  0  0  0  0  0  0  0  0
  -28.1415    1.8816   29.2593 C   0  0  0  0  0  0  0  0  0  0  0  0
  -23.5750    2.0199   27.7255 F   0  0  0  0  0  0  0  0  0  0  0  0
  -25.5963    3.6628   29.1598 Cl  0  0  0  0  0  0  0  0  0  0  0  0
  -30.5280    1.7460   29.9276 C   0  0  0  0  0  0  0  0  0  0  0  0
  -31.4767    1.9216   29.1930 C   0  0  0  0  0  0  0  0  0  0  0  0
  -32.6726    2.5211   29.6426 C   0  0  0  0  0  0  0  0  0  0  0  0
  -30.2754    2.7431   30.8788 C   0  0  0  0  0  0  0  0  0  0  0  0
  -31.3848    3.4138   31.4669 C   0  0  0  0  0  0  0  0  0  0  0  0
  -32.5664    3.3452   30.7562 C   0  0  0  0  0  0  0  0  0  0  0  0
  5 11  1  0
  4 12  1  0
  9 13  1  0
  3  4  1  0
  4  5  2  0
  5  6  1  0
  6  7  2  0
  7  2  1  0
  1  2  2  0
  2  3  1  0
  3 10  2  0
 10  9  1  0
  9  8  2  0
  8  1  1  0
 13 14  2  0
 14 15  1  0
 15 18  2  0
 18 17  1  0
 17 16  2  0
 16 13  1  0
M  END

$$$$
