No_4769-gen_results/8p0m/2024-11-26-14-13-15/
     RDKit          3D

 35 37  0  0  0  0  0  0  0  0999 V2000
  -28.0162   -0.8135   28.8779 C   0  0  0  0  0  0  0  0  0  0  0  0
  -28.4690   -0.7850   29.8287 C   0  0  0  0  0  0  0  0  0  0  0  0
  -28.1960    0.3478   28.0550 C   0  0  0  0  0  0  0  0  0  0  0  0
  -29.0191    1.3501   28.3782 C   0  0  0  0  0  0  0  0  0  0  0  0
  -29.4107    0.1803   30.3782 C   0  0  0  0  0  0  0  0  0  0  0  0
  -29.6059    1.2495   29.6193 C   0  0  0  0  0  0  0  0  0  0  0  0
  -27.4597    0.3802   26.7091 C   0  0  0  0  0  0  0  0  0  0  0  0
  -26.0094    0.3317   26.7236 C   0  0  0  0  0  0  0  0  0  0  0  0
  -25.3055    0.0239   27.8527 C   0  0  0  0  0  0  0  0  0  0  0  0
  -24.2699    0.6212   28.3403 C   0  0  0  0  0  0  0  0  0  0  0  0
  -23.5537    1.4558   27.3774 C   0  0  0  0  0  0  0  0  0  0  0  0
  -24.1414    1.7726   26.1490 C   0  0  0  0  0  0  0  0  0  0  0  0
  -25.4039    1.3290   25.8497 C   0  0  0  0  0  0  0  0  0  0  0  0
  -21.9844    2.0478   27.8139 Cl  0  0  0  0  0  0  0  0  0  0  0  0
  -28.1464    0.2189   25.5131 C   0  0  0  0  0  0  0  0  0  0  0  0
  -29.4040    0.2456   25.6418 F   0  0  0  0  0  0  0  0  0  0  0  0
  -27.5362    0.0385   24.3444 C   0  0  0  0  0  0  0  0  0  0  0  0
  -30.5366    2.3684   30.0562 C   0  0  0  0  0  0  0  0  0  0  0  0
  -31.3050    2.8643   29.4610 O   0  0  0  0  0  0  0  0  0  0  0  0
  -30.4552    2.5384   31.4671 O   0  0  0  0  0  0  0  0  0  0  0  0
  -28.3105   -1.9940   30.8699 C   0  0  0  0  0  0  0  0  0  0  0  0
  -27.7319   -2.9221   30.5855 O   0  0  0  0  0  0  0  0  0  0  0  0
  -28.8818   -1.8624   32.0551 O   0  0  0  0  0  0  0  0  0  0  0  0
  -31.2681    3.4188   32.0341 C   0  0  0  0  0  0  0  0  0  0  0  0
  -32.3765    2.9405   32.5111 C   0  0  0  0  0  0  0  0  0  0  0  0
  -32.3923    1.8907   33.0119 O   0  0  0  0  0  0  0  0  0  0  0  0
  -33.5326    3.6745   32.4047 N   0  0  0  0  0  0  0  0  0  0  0  0
  -34.8283    3.1690   32.8506 C   0  0  0  0  0  0  0  0  0  0  0  0
  -35.8035    3.5914   32.2169 C   0  0  0  0  0  0  0  0  0  0  0  0
  -36.6306    3.2368   31.5236 C   0  0  0  0  0  0  0  0  0  0  0  0
  -37.7505    3.9149   30.8112 C   0  0  0  0  0  0  0  0  0  0  0  0
  -37.8290    5.2842   31.0374 C   0  0  0  0  0  0  0  0  0  0  0  0
  -36.9159    5.8853   31.8366 C   0  0  0  0  0  0  0  0  0  0  0  0
  -35.8886    5.1790   32.4393 C   0  0  0  0  0  0  0  0  0  0  0  0
  -36.9776    7.3479   32.0786 C   0  0  0  0  0  0  0  0  0  0  0  0
  3  7  1  0
  7  8  1  0
 11 14  1  0
  7 15  1  0
 15 16  1  0
 15 17  1  0
  6 18  1  0
 18 19  2  0
 18 20  1  0
  2 21  1  0
 21 22  2  0
 21 23  1  0
 20 24  1  0
 24 25  1  0
 25 26  2  0
 25 27  1  0
 27 28  1  0
 28 29  1  0
 33 35  1  0
 29 30  2  0
 30 31  1  0
 31 32  2  0
 32 33  1  0
 33 34  2  0
 34 29  1  0
  8  9  2  0
  9 10  1  0
 10 11  2  0
 11 12  1  0
 12 13  2  0
 13  8  1  0
  1  2  2  0
  2  5  1  0
  5  6  2  0
  6  4  1  0
  4  3  2  0
  3  1  1  0
M  END

$$$$
