No_4439-gen_results/8p0m/2024-11-26-14-13-15/
     RDKit          3D

 19 21  0  0  0  0  0  0  0  0999 V2000
  -28.0162   -0.8135   28.8779 C   0  0  0  0  0  0  0  0  0  0  0  0
  -28.4690   -0.7850   29.8287 C   0  0  0  0  0  0  0  0  0  0  0  0
  -27.1356    0.2359   28.5352 C   0  0  0  0  0  0  0  0  0  0  0  0
  -26.8745    1.2825   29.3982 C   0  0  0  0  0  0  0  0  0  0  0  0
  -28.3613    0.1987   30.9244 C   0  0  0  0  0  0  0  0  0  0  0  0
  -27.5277    1.2234   30.6356 C   0  0  0  0  0  0  0  0  0  0  0  0
  -26.3987    0.2949   27.2279 C   0  0  0  0  0  0  0  0  0  0  0  0
  -25.0392    0.2356   27.3538 C   0  0  0  0  0  0  0  0  0  0  0  0
  -26.8419    1.2723   26.2572 C   0  0  0  0  0  0  0  0  0  0  0  0
  -24.2363    1.2186   27.7916 C   0  0  0  0  0  0  0  0  0  0  0  0
  -22.8225    1.0346   28.0790 C   0  0  0  0  0  0  0  0  0  0  0  0
  -22.3639    0.0689   28.9599 C   0  0  0  0  0  0  0  0  0  0  0  0
  -23.2919   -0.6353   29.7337 C   0  0  0  0  0  0  0  0  0  0  0  0
  -23.1214   -1.4727   30.6481 C   0  0  0  0  0  0  0  0  0  0  0  0
  -24.2280   -1.9304   31.4798 C   0  0  0  0  0  0  0  0  0  0  0  0
  -25.4241   -1.3060   31.0549 C   0  0  0  0  0  0  0  0  0  0  0  0
  -25.3365   -0.5156   30.0809 C   0  0  0  0  0  0  0  0  0  0  0  0
  -24.1837   -0.0693   29.4081 C   0  0  0  0  0  0  0  0  0  0  0  0
  -24.5079    0.9039   28.8777 C   0  0  0  0  0  0  0  0  0  0  0  0
  3  7  1  0
  7  8  1  0
  7  9  1  0
  8 10  1  0
 13 14  1  0
 14 15  2  0
 15 16  1  0
 16 17  2  0
 17 18  1  0
  1  2  2  0
  2  5  1  0
  5  6  2  0
  6  4  1  0
  4  3  2  0
  3  1  1  0
 10 11  2  0
 11 12  1  0
 12 13  2  0
 13 18  1  0
 18 19  2  0
 19 10  1  0
M  END

$$$$
