No_4658-gen_results/8p0m/2024-11-26-14-13-15/
     RDKit          3D

 19 21  0  0  0  0  0  0  0  0999 V2000
  -28.0162   -0.8135   28.8779 C   0  0  0  0  0  0  0  0  0  0  0  0
  -27.0636   -0.1189   28.6079 C   0  0  0  0  0  0  0  0  0  0  0  0
  -25.7647   -0.3897   29.0360 C   0  0  0  0  0  0  0  0  0  0  0  0
  -24.5517    0.4058   28.7646 C   0  0  0  0  0  0  0  0  0  0  0  0
  -24.6957    1.4480   27.7988 C   0  0  0  0  0  0  0  0  0  0  0  0
  -25.9755    1.7250   27.3077 C   0  0  0  0  0  0  0  0  0  0  0  0
  -27.0718    1.0134   27.6535 C   0  0  0  0  0  0  0  0  0  0  0  0
  -28.6178   -0.4695   30.2207 C   0  0  0  0  0  0  0  0  0  0  0  0
  -29.7296   -1.2768   30.7206 C   0  0  0  0  0  0  0  0  0  0  0  0
  -23.4863    2.1902   27.4840 C   0  0  0  0  0  0  0  0  0  0  0  0
  -22.3451    1.7942   27.7716 O   0  0  0  0  0  0  0  0  0  0  0  0
  -23.6036    3.1517   26.5627 O   0  0  0  0  0  0  0  0  0  0  0  0
  -30.1123   -2.1957   29.9272 C   0  0  0  0  0  0  0  0  0  0  0  0
  -31.2656   -2.9443   30.4808 C   0  0  0  0  0  0  0  0  0  0  0  0
  -31.7374   -4.0073   29.6717 C   0  0  0  0  0  0  0  0  0  0  0  0
  -31.7199   -3.7859   28.4272 C   0  0  0  0  0  0  0  0  0  0  0  0
  -31.3357   -2.7265   27.9022 N   0  0  0  0  0  0  0  0  0  0  0  0
  -30.4800   -1.8962   28.6220 C   0  0  0  0  0  0  0  0  0  0  0  0
  -29.2305   -1.5289   27.9565 O   0  0  0  0  0  0  0  0  0  0  0  0
  1  2  2  3
  2  3  1  0
  3  4  1  0
  4  5  1  0
  5  6  1  0
  2  7  1  0
  6  7  2  0
  1  8  1  0
  8  9  1  0
  5 10  1  0
 10 11  2  0
 10 12  1  0
  9 13  2  0
 13 14  1  0
 14 15  1  0
 15 16  1  0
 16 17  2  0
 13 18  1  0
 17 18  1  0
  1 19  1  0
 18 19  1  0
M  END

$$$$
