No_4064-gen_results/8p0m/2024-11-26-14-13-15/
     RDKit          3D

 23 25  0  0  0  0  0  0  0  0999 V2000
  -28.1229   -1.3353   28.4874 O   0  0  0  0  0  0  0  0  0  0  0  0
  -27.0637   -0.8242   28.8687 C   0  0  0  0  0  0  0  0  0  0  0  0
  -27.0246    0.1877   29.7358 C   0  0  0  0  0  0  0  0  0  0  0  0
  -25.8391    0.8513   29.9958 C   0  0  0  0  0  0  0  0  0  0  0  0
  -25.7786   -0.9958   28.1896 N   0  0  0  0  0  0  0  0  0  0  0  0
  -24.6123   -0.4253   28.4392 C   0  0  0  0  0  0  0  0  0  0  0  0
  -24.5862    0.5561   29.3701 C   0  0  0  0  0  0  0  0  0  0  0  0
  -23.3312    1.2233   29.6356 C   0  0  0  0  0  0  0  0  0  0  0  0
  -22.2473    0.7836   29.2192 O   0  0  0  0  0  0  0  0  0  0  0  0
  -23.3233    2.2194   30.4960 O   0  0  0  0  0  0  0  0  0  0  0  0
  -28.2243    0.5230   30.4966 C   0  0  0  0  0  0  0  0  0  0  0  0
  -28.4334    1.7721   30.8698 C   0  0  0  0  0  0  0  0  0  0  0  0
  -29.0517    2.5294   30.6418 C   0  0  0  0  0  0  0  0  0  0  0  0
  -29.1923    3.9445   31.1912 C   0  0  0  0  0  0  0  0  0  0  0  0
  -28.2903    4.2783   32.1854 C   0  0  0  0  0  0  0  0  0  0  0  0
  -27.3683    3.2899   32.6333 C   0  0  0  0  0  0  0  0  0  0  0  0
  -27.3415    2.0251   31.9994 C   0  0  0  0  0  0  0  0  0  0  0  0
  -30.1189    2.4120   29.5507 C   0  0  0  0  0  0  0  0  0  0  0  0
  -31.2791    1.8285   29.8042 C   0  0  0  0  0  0  0  0  0  0  0  0
  -29.4871    1.9705   28.2422 C   0  0  0  0  0  0  0  0  0  0  0  0
  -30.3390    1.6050   27.2340 C   0  0  0  0  0  0  0  0  0  0  0  0
  -32.2007    1.5150   28.7857 C   0  0  0  0  0  0  0  0  0  0  0  0
  -31.6582    1.3197   27.5130 C   0  0  0  0  0  0  0  0  0  0  0  0
  1  2  1  0
  7  8  1  0
  8  9  1  0
  8 10  2  0
  3 11  1  0
 11 12  1  0
 13 18  1  0
 12 13  1  0
 13 14  2  0
 14 15  1  0
 15 16  2  0
 16 17  1  0
 17 12  2  0
 18 19  2  0
 19 22  1  0
 22 23  2  0
 23 21  1  0
 21 20  2  0
 20 18  1  0
  2  3  2  0
  3  4  1  0
  4  7  2  0
  7  6  1  0
  6  5  2  0
  5  2  1  0
M  END

$$$$
