No_4491-gen_results/8p0m/2024-11-26-14-13-15/
     RDKit          3D

 24 27  0  0  0  0  0  0  0  0999 V2000
  -28.0162   -0.8135   28.8779 C   0  0  0  0  0  0  0  0  0  0  0  0
  -28.4690   -0.7850   29.8287 C   0  0  0  0  0  0  0  0  0  0  0  0
  -28.1960    0.3478   28.0550 C   0  0  0  0  0  0  0  0  0  0  0  0
  -27.4421    0.5100   26.7946 C   0  0  0  0  0  0  0  0  0  0  0  0
  -26.4394    0.8329   26.6142 C   0  0  0  0  0  0  0  0  0  0  0  0
  -25.2138    0.6623   26.7019 C   0  0  0  0  0  0  0  0  0  0  0  0
  -24.0100    0.7553   27.3225 C   0  0  0  0  0  0  0  0  0  0  0  0
  -23.3282    0.3799   28.3897 C   0  0  0  0  0  0  0  0  0  0  0  0
  -22.0572    0.6771   28.5949 N   0  0  0  0  0  0  0  0  0  0  0  0
  -23.1576    1.9456   26.6618 C   0  0  0  0  0  0  0  0  0  0  0  0
  -29.5152    0.0354   30.3665 C   0  0  0  0  0  0  0  0  0  0  0  0
  -29.1630    1.2895   28.3635 C   0  0  0  0  0  0  0  0  0  0  0  0
  -29.8340    1.1165   29.5817 C   0  0  0  0  0  0  0  0  0  0  0  0
  -24.0248   -0.1939   29.3371 O   0  0  0  0  0  0  0  0  0  0  0  0
  -21.4374    1.1372   27.6870 C   0  0  0  0  0  0  0  0  0  0  0  0
  -21.8875    1.9866   26.8449 N   0  0  0  0  0  0  0  0  0  0  0  0
  -28.4744    0.4786   25.7101 C   0  0  0  0  0  0  0  0  0  0  0  0
  -29.1557   -0.4582   25.2901 C   0  0  0  0  0  0  0  0  0  0  0  0
  -30.0464   -0.4640   24.1566 C   0  0  0  0  0  0  0  0  0  0  0  0
  -30.0438    0.7003   23.4116 C   0  0  0  0  0  0  0  0  0  0  0  0
  -28.6914    1.6781   24.8077 C   0  0  0  0  0  0  0  0  0  0  0  0
  -29.3716    1.7796   23.7848 C   0  0  0  0  0  0  0  0  0  0  0  0
  -26.4799    1.9564   25.5147 C   0  0  0  0  0  0  0  0  0  0  0  0
  -27.4605    2.5930   24.9042 C   0  0  0  0  0  0  0  0  0  0  0  0
  3  4  1  0
  4  5  1  0
  5  6  1  0
  7  8  1  0
  8  9  1  0
  7 10  1  0
  8 14  2  0
 10 16  1  0
 15 16  1  0
  4 17  1  0
  5 23  1  0
 21 24  1  0
 23 24  1  0
  6  7  1  0
 15  9  1  0
  1  2  2  0
  2 11  1  0
 11 13  2  0
 13 12  1  0
 12  3  2  0
  3  1  1  0
 17 18  2  0
 18 19  1  0
 19 20  2  0
 20 22  1  0
 22 21  2  0
 21 17  1  0
M  END

$$$$
