No_4084-gen_results/8p0m/2024-11-26-14-13-15/
     RDKit          3D

 23 25  0  0  0  0  0  0  0  0999 V2000
  -28.0162   -0.8135   28.8779 C   0  0  0  0  0  0  0  0  0  0  0  0
  -27.0636   -0.1189   28.6079 C   0  0  0  0  0  0  0  0  0  0  0  0
  -25.8176   -0.3427   29.0487 N   0  0  0  0  0  0  0  0  0  0  0  0
  -25.5552   -1.4726   29.7295 C   0  0  0  0  0  0  0  0  0  0  0  0
  -26.6210   -2.2986   30.1049 C   0  0  0  0  0  0  0  0  0  0  0  0
  -27.8347   -1.9700   29.6762 C   0  0  0  0  0  0  0  0  0  0  0  0
  -27.1619    1.1062   27.9099 N   0  0  0  0  0  0  0  0  0  0  0  0
  -26.7768    2.2481   28.3777 C   0  0  0  0  0  0  0  0  0  0  0  0
  -26.1573    2.4571   29.4063 C   0  0  0  0  0  0  0  0  0  0  0  0
  -25.6856    3.7593   29.9159 C   0  0  0  0  0  0  0  0  0  0  0  0
  -25.8613    4.8123   29.0822 C   0  0  0  0  0  0  0  0  0  0  0  0
  -26.4516    4.6657   27.8245 C   0  0  0  0  0  0  0  0  0  0  0  0
  -26.9017    3.3914   27.4503 C   0  0  0  0  0  0  0  0  0  0  0  0
  -27.4182    0.8313   26.5145 C   0  0  0  0  0  0  0  0  0  0  0  0
  -26.5659    0.3806   25.6435 C   0  0  0  0  0  0  0  0  0  0  0  0
  -28.7757    1.0643   26.1302 C   0  0  0  0  0  0  0  0  0  0  0  0
  -29.1585    0.7788   24.8868 C   0  0  0  0  0  0  0  0  0  0  0  0
  -26.8803    0.0372   24.3468 C   0  0  0  0  0  0  0  0  0  0  0  0
  -28.1892    0.2840   23.9713 C   0  0  0  0  0  0  0  0  0  0  0  0
  -29.0077   -2.8172   30.1010 C   0  0  0  0  0  0  0  0  0  0  0  0
  -30.1352   -2.3934   30.2271 N   0  0  0  0  0  0  0  0  0  0  0  0
  -28.7407   -4.1133   30.1009 O   0  0  0  0  0  0  0  0  0  0  0  0
  -31.2803   -2.9464   30.5892 C   0  0  0  0  0  0  0  0  0  0  0  0
  2  7  1  0
  7  8  1  0
  7 14  1  0
  6 20  1  0
 20 21  1  0
 20 22  2  0
 21 23  1  0
  1  2  2  0
  2  3  1  0
  3  4  2  0
  4  5  1  0
  5  6  2  0
  6  1  1  0
 14 15  2  0
 15 18  1  0
 18 19  2  0
 19 17  1  0
 17 16  2  0
 16 14  1  0
  8  9  2  0
  9 10  1  0
 10 11  2  0
 11 12  1  0
 12 13  2  0
 13  8  1  0
M  END

$$$$
