No_4360-gen_results/8p0m/2024-11-26-14-13-15/
     RDKit          3D

 13 13  0  0  0  0  0  0  0  0999 V2000
  -28.0162   -0.8135   28.8779 C   0  0  0  0  0  0  0  0  0  0  0  0
  -28.4690   -0.7850   29.8287 C   0  0  0  0  0  0  0  0  0  0  0  0
  -26.9162   -1.5644   28.7368 F   0  0  0  0  0  0  0  0  0  0  0  0
  -28.1645    0.0261   27.7584 C   0  0  0  0  0  0  0  0  0  0  0  0
  -29.4034    0.7099   27.5940 C   0  0  0  0  0  0  0  0  0  0  0  0
  -29.8202    0.0474   29.9068 C   0  0  0  0  0  0  0  0  0  0  0  0
  -30.1223    0.7715   28.7916 C   0  0  0  0  0  0  0  0  0  0  0  0
  -31.3652    1.5735   28.7931 C   0  0  0  0  0  0  0  0  0  0  0  0
  -31.7164    2.2614   29.6605 O   0  0  0  0  0  0  0  0  0  0  0  0
  -31.9594    1.5098   27.6443 O   0  0  0  0  0  0  0  0  0  0  0  0
  -28.1667   -1.5923   31.0671 C   0  0  0  0  0  0  0  0  0  0  0  0
  -27.5306   -2.5557   31.0294 O   0  0  0  0  0  0  0  0  0  0  0  0
  -28.9028   -1.3616   32.1989 O   0  0  0  0  0  0  0  0  0  0  0  0
  1  3  1  0
  7  8  1  0
  8  9  2  0
  8 10  1  0
  2 11  1  0
 11 12  2  0
 11 13  1  0
  1  2  2  0
  2  6  1  0
  6  7  2  0
  7  5  1  0
  5  4  2  0
  4  1  1  0
M  END

$$$$
