No_4921-gen_results/8p0m/2024-11-26-14-13-15/
     RDKit          3D

 13 13  0  0  0  0  0  0  0  0999 V2000
  -28.0162   -0.8135   28.8779 C   0  0  0  0  0  0  0  0  0  0  0  0
  -27.0636   -0.1189   28.6079 C   0  0  0  0  0  0  0  0  0  0  0  0
  -26.9716    0.7139   27.5060 C   0  0  0  0  0  0  0  0  0  0  0  0
  -28.1053    0.7744   26.6421 C   0  0  0  0  0  0  0  0  0  0  0  0
  -29.2008    0.1044   27.0527 C   0  0  0  0  0  0  0  0  0  0  0  0
  -29.2096   -0.6029   28.1853 C   0  0  0  0  0  0  0  0  0  0  0  0
  -30.3749    0.2232   26.1670 C   0  0  0  0  0  0  0  0  0  0  0  0
  -30.2997    0.0795   24.9312 N   0  0  0  0  0  0  0  0  0  0  0  0
  -31.9105    0.2878   26.8641 Cl  0  0  0  0  0  0  0  0  0  0  0  0
  -25.6950   -0.2167   29.4223 C   0  0  0  0  0  0  0  0  0  0  0  0
  -25.4550   -0.7764   30.2194 C   0  0  0  0  0  0  0  0  0  0  0  0
  -24.1516   -0.8292   30.9690 C   0  0  0  0  0  0  0  0  0  0  0  0
  -23.8012   -1.4940   32.0658 C   0  0  0  0  0  0  0  0  0  0  0  0
  5  7  1  0
  7  8  1  0
  7  9  1  0
  2 10  1  0
 10 11  2  3
 11 12  1  0
 12 13  2  0
  1  2  2  0
  2  3  1  0
  3  4  2  0
  4  5  1  0
  5  6  2  0
  6  1  1  0
M  END

$$$$
