No_4143-gen_results/8p0m/2024-11-26-14-13-15/
     RDKit          3D

 10 10  0  0  0  0  0  0  0  0999 V2000
  -28.0727   -1.2542   28.5316 F   0  0  0  0  0  0  0  0  0  0  0  0
  -28.2662   -0.4214   29.1931 C   0  0  0  0  0  0  0  0  0  0  0  0
  -28.1839    0.5652   29.0416 C   0  0  0  0  0  0  0  0  0  0  0  0
  -27.7131    1.1254   27.6783 C   0  0  0  0  0  0  0  0  0  0  0  0
  -27.5605    2.3419   27.2561 C   0  0  0  0  0  0  0  0  0  0  0  0
  -26.9918    2.6891   25.9814 C   0  0  0  0  0  0  0  0  0  0  0  0
  -26.6178    1.6104   25.1672 C   0  0  0  0  0  0  0  0  0  0  0  0
  -26.7591    0.3704   25.5863 C   0  0  0  0  0  0  0  0  0  0  0  0
  -27.1960    0.0705   26.8741 C   0  0  0  0  0  0  0  0  0  0  0  0
  -28.8087   -0.7645   30.5298 F   0  0  0  0  0  0  0  0  0  0  0  0
  1  2  1  0
  2  3  2  3
  3  4  1  0
  2 10  1  0
  4  5  2  0
  5  6  1  0
  6  7  2  0
  7  8  1  0
  8  9  2  0
  9  4  1  0
M  END

$$$$
