No_4455-gen_results/8p0m/2024-11-26-14-13-15/
     RDKit          3D

 32 35  0  0  0  0  0  0  0  0999 V2000
  -28.0162   -0.8135   28.8779 C   0  0  0  0  0  0  0  0  0  0  0  0
  -28.4690   -0.7850   29.8287 C   0  0  0  0  0  0  0  0  0  0  0  0
  -26.5042   -0.7777   28.8766 C   0  0  0  0  0  0  0  0  0  0  0  0
  -25.8103   -0.8531   30.1028 C   0  0  0  0  0  0  0  0  0  0  0  0
  -27.9906   -0.8916   31.2257 C   0  0  0  0  0  0  0  0  0  0  0  0
  -26.6042   -0.8676   31.2652 C   0  0  0  0  0  0  0  0  0  0  0  0
  -30.0739   -0.8360   29.8615 C   0  0  0  0  0  0  0  0  0  0  0  0
  -30.6891   -1.6554   30.2229 O   0  0  0  0  0  0  0  0  0  0  0  0
  -30.6062    0.2402   29.2675 O   0  0  0  0  0  0  0  0  0  0  0  0
  -25.5451   -0.7085   27.4807 Cl  0  0  0  0  0  0  0  0  0  0  0  0
  -31.7044    0.5236   29.0789 C   0  0  0  0  0  0  0  0  0  0  0  0
  -32.0453    0.7836   27.8976 C   0  0  0  0  0  0  0  0  0  0  0  0
  -33.4500    1.0873   27.5326 C   0  0  0  0  0  0  0  0  0  0  0  0
  -34.3801    1.1336   28.6032 C   0  0  0  0  0  0  0  0  0  0  0  0
  -33.9256    0.8629   29.8674 C   0  0  0  0  0  0  0  0  0  0  0  0
  -32.5919    0.5652   30.1568 C   0  0  0  0  0  0  0  0  0  0  0  0
  -35.7406    1.4924   28.2924 C   0  0  0  0  0  0  0  0  0  0  0  0
  -36.3155    2.2539   28.9878 O   0  0  0  0  0  0  0  0  0  0  0  0
  -36.2358    0.9064   27.2277 O   0  0  0  0  0  0  0  0  0  0  0  0
  -24.3663   -0.8403   30.1987 C   0  0  0  0  0  0  0  0  0  0  0  0
  -23.7069    0.0907   30.9156 C   0  0  0  0  0  0  0  0  0  0  0  0
  -22.2873    0.2556   30.7481 C   0  0  0  0  0  0  0  0  0  0  0  0
  -21.6939   -0.4729   29.6507 C   0  0  0  0  0  0  0  0  0  0  0  0
  -22.4467   -1.3861   28.9257 C   0  0  0  0  0  0  0  0  0  0  0  0
  -23.7722   -1.5955   29.1907 C   0  0  0  0  0  0  0  0  0  0  0  0
  -24.2582    0.8102   31.9085 O   0  0  0  0  0  0  0  0  0  0  0  0
  -24.4253    2.2103   31.6281 C   0  0  0  0  0  0  0  0  0  0  0  0
  -25.3944    2.8698   32.5177 C   0  0  0  0  0  0  0  0  0  0  0  0
  -25.4451    4.2466   32.4942 C   0  0  0  0  0  0  0  0  0  0  0  0
  -24.9753    4.9036   31.3894 C   0  0  0  0  0  0  0  0  0  0  0  0
  -24.3843    4.1807   30.3564 C   0  0  0  0  0  0  0  0  0  0  0  0
  -24.0039    2.8376   30.5313 C   0  0  0  0  0  0  0  0  0  0  0  0
  2  7  1  0
  7  8  2  0
  7  9  1  0
  3 10  1  0
  9 11  1  0
 14 17  1  0
 17 18  2  0
 17 19  1  0
  4 20  1  0
 21 26  1  0
 26 27  1  0
 11 12  2  0
 12 13  1  0
 13 14  2  0
 14 15  1  0
 15 16  2  0
 16 11  1  0
 27 28  2  0
 28 29  1  0
 29 30  2  0
 30 31  1  0
 31 32  2  0
 32 27  1  0
  1  2  2  0
  2  5  1  0
  5  6  2  0
  6  4  1  0
  4  3  2  0
  3  1  1  0
 20 21  1  0
 21 22  2  0
 22 23  1  0
 23 24  2  0
 24 25  1  0
 25 20  2  0
M  END

$$$$
