No_428-gen_results/8p0m/2024-11-26-14-13-15/
     RDKit          3D

 16 16  0  0  0  0  0  0  0  0999 V2000
  -28.0162   -0.8135   28.8779 C   0  0  0  0  0  0  0  0  0  0  0  0
  -27.0636   -0.1189   28.6079 C   0  0  0  0  0  0  0  0  0  0  0  0
  -25.7647   -0.3897   29.0360 C   0  0  0  0  0  0  0  0  0  0  0  0
  -24.5516    0.4058   28.7646 C   0  0  0  0  0  0  0  0  0  0  0  0
  -24.6957    1.4480   27.7988 C   0  0  0  0  0  0  0  0  0  0  0  0
  -25.9755    1.7250   27.3077 C   0  0  0  0  0  0  0  0  0  0  0  0
  -27.0718    1.0134   27.6535 C   0  0  0  0  0  0  0  0  0  0  0  0
  -29.2261   -0.0677   29.3149 C   0  0  0  0  0  0  0  0  0  0  0  0
  -30.4902   -0.7298   29.1813 C   0  0  0  0  0  0  0  0  0  0  0  0
  -23.4860    2.1790   27.4805 C   0  0  0  0  0  0  0  0  0  0  0  0
  -23.5531    3.1130   26.6531 O   0  0  0  0  0  0  0  0  0  0  0  0
  -22.2920    1.8102   27.8687 O   0  0  0  0  0  0  0  0  0  0  0  0
  -31.4318   -0.4821   29.7655 C   0  0  0  0  0  0  0  0  0  0  0  0
  -32.6937   -1.2135   29.6981 C   0  0  0  0  0  0  0  0  0  0  0  0
  -32.6762   -2.2536   28.7437 C   0  0  0  0  0  0  0  0  0  0  0  0
  -31.6039   -2.5030   27.9781 C   0  0  0  0  0  0  0  0  0  0  0  0
  1  8  1  0
  8  9  2  3
  5 10  1  0
 10 11  2  0
 10 12  1  0
  9 13  1  0
 13 14  2  3
 14 15  1  0
 15 16  2  0
  1  2  1  0
  2  3  2  0
  3  4  1  0
  4  5  2  0
  5  6  1  0
  6  7  2  0
  7  2  1  0
M  END

$$$$
