No_4964-gen_results/8p0m/2024-11-26-14-13-15/
     RDKit          3D

 26 28  0  0  0  0  0  0  0  0999 V2000
  -28.0162   -0.8135   28.8779 C   0  0  0  0  0  0  0  0  0  0  0  0
  -28.4690   -0.7850   29.8287 C   0  0  0  0  0  0  0  0  0  0  0  0
  -26.5042   -0.7777   28.8766 C   0  0  0  0  0  0  0  0  0  0  0  0
  -25.9150   -0.6580   29.9230 C   0  0  0  0  0  0  0  0  0  0  0  0
  -27.9691   -0.7243   31.2047 C   0  0  0  0  0  0  0  0  0  0  0  0
  -26.5847   -0.6393   31.2062 C   0  0  0  0  0  0  0  0  0  0  0  0
  -24.4026   -0.5847   30.0419 C   0  0  0  0  0  0  0  0  0  0  0  0
  -23.7439   -1.3708   30.5510 C   0  0  0  0  0  0  0  0  0  0  0  0
  -23.8173    0.7718   30.0026 C   0  0  0  0  0  0  0  0  0  0  0  0
  -22.9511    1.1072   29.4723 C   0  0  0  0  0  0  0  0  0  0  0  0
  -22.5999    2.4632   29.0603 C   0  0  0  0  0  0  0  0  0  0  0  0
  -24.6804    1.9156   30.6262 C   0  0  0  0  0  0  0  0  0  0  0  0
  -24.4662    3.2143   30.3597 C   0  0  0  0  0  0  0  0  0  0  0  0
  -23.3572    3.4802   29.5703 C   0  0  0  0  0  0  0  0  0  0  0  0
  -25.7728   -0.7104   27.5573 C   0  0  0  0  0  0  0  0  0  0  0  0
  -26.1697    0.2475   26.5140 C   0  0  0  0  0  0  0  0  0  0  0  0
  -25.4859    0.3001   25.3760 C   0  0  0  0  0  0  0  0  0  0  0  0
  -26.3776    1.6295   26.9860 C   0  0  0  0  0  0  0  0  0  0  0  0
  -26.5559    2.6895   26.1266 C   0  0  0  0  0  0  0  0  0  0  0  0
  -26.6497    3.9742   26.7166 C   0  0  0  0  0  0  0  0  0  0  0  0
  -27.0818    4.2085   27.9339 C   0  0  0  0  0  0  0  0  0  0  0  0
  -27.2443    3.0510   28.8118 C   0  0  0  0  0  0  0  0  0  0  0  0
  -26.9285    1.8187   28.3675 C   0  0  0  0  0  0  0  0  0  0  0  0
  -27.7557    3.3484   30.1854 C   0  0  0  0  0  0  0  0  0  0  0  0
  -28.4883    2.3075   30.8128 C   0  0  0  0  0  0  0  0  0  0  0  0
  -29.1872    2.7304   31.8594 C   0  0  0  0  0  0  0  0  0  0  0  0
  4  7  1  0
  7  8  2  0
  7  9  1  0
  3 15  1  0
 15 16  1  0
 16 17  1  0
 16 18  1  0
 22 24  1  0
 24 25  2  3
 25 26  1  0
 18 19  2  0
 19 20  1  0
 20 21  2  0
 21 22  1  0
 22 23  2  0
 23 18  1  0
  9 10  2  0
 10 11  1  0
 11 14  2  0
 14 13  1  0
 13 12  2  0
 12  9  1  0
  1  2  2  0
  2  5  1  0
  5  6  2  0
  6  4  1  0
  4  3  2  0
  3  1  1  0
M  END

$$$$
