No_4272-gen_results/8p0m/2024-11-26-14-13-15/
     RDKit          3D

 13 14  0  0  0  0  0  0  0  0999 V2000
  -28.0162   -0.8135   28.8779 C   0  0  0  0  0  0  0  0  0  0  0  0
  -28.4690   -0.7850   29.8287 C   0  0  0  0  0  0  0  0  0  0  0  0
  -26.5455   -0.8762   28.8500 C   0  0  0  0  0  0  0  0  0  0  0  0
  -25.8974   -0.8267   29.8894 C   0  0  0  0  0  0  0  0  0  0  0  0
  -26.4945   -0.7976   31.1740 C   0  0  0  0  0  0  0  0  0  0  0  0
  -27.8589   -0.7585   31.1651 C   0  0  0  0  0  0  0  0  0  0  0  0
  -24.3777   -0.8594   29.9373 C   0  0  0  0  0  0  0  0  0  0  0  0
  -23.6872   -0.1620   28.9781 C   0  0  0  0  0  0  0  0  0  0  0  0
  -22.2374   -0.1507   29.0682 C   0  0  0  0  0  0  0  0  0  0  0  0
  -21.5113    0.6082   28.1510 C   0  0  0  0  0  0  0  0  0  0  0  0
  -22.1689    1.5312   27.2887 C   0  0  0  0  0  0  0  0  0  0  0  0
  -23.5342    1.6415   27.3353 C   0  0  0  0  0  0  0  0  0  0  0  0
  -24.2952    0.8706   28.2162 C   0  0  0  0  0  0  0  0  0  0  0  0
  4  7  1  0
  7  8  1  0
  1  2  2  0
  2  6  1  0
  6  5  2  0
  5  4  1  0
  4  3  2  0
  3  1  1  0
  8  9  2  0
  9 10  1  0
 10 11  2  0
 11 12  1  0
 12 13  2  0
 13  8  1  0
M  END

$$$$
