No_4856-gen_results/8p0m/2024-11-26-14-13-15/
     RDKit          3D

 14 14  0  0  0  0  0  0  0  0999 V2000
  -28.0162   -0.8135   28.8779 C   0  0  0  0  0  0  0  0  0  0  0  0
  -27.0636   -0.1190   28.6079 C   0  0  0  0  0  0  0  0  0  0  0  0
  -26.9287    1.1713   29.0083 C   0  0  0  0  0  0  0  0  0  0  0  0
  -25.7702    2.0341   28.6884 C   0  0  0  0  0  0  0  0  0  0  0  0
  -24.7141    1.4431   27.9188 C   0  0  0  0  0  0  0  0  0  0  0  0
  -24.8590    0.0783   27.5836 C   0  0  0  0  0  0  0  0  0  0  0  0
  -25.9647   -0.6606   27.9164 C   0  0  0  0  0  0  0  0  0  0  0  0
  -27.9820   -1.6112   30.1028 N   0  0  0  0  0  0  0  0  0  0  0  0
  -23.7853    2.3201   27.4230 C   0  0  0  0  0  0  0  0  0  0  0  0
  -22.6307    1.8743   27.5348 F   0  0  0  0  0  0  0  0  0  0  0  0
  -23.8977    2.4652   26.0205 F   0  0  0  0  0  0  0  0  0  0  0  0
  -23.8017    3.5561   27.9241 F   0  0  0  0  0  0  0  0  0  0  0  0
  -28.9784   -2.5286   30.4626 C   0  0  0  0  0  0  0  0  0  0  0  0
  -30.0000   -2.4762   30.0733 O   0  0  0  0  0  0  0  0  0  0  0  0
  1  2  1  0
  1  8  1  0
  5  9  1  0
  9 10  1  0
  9 11  1  0
  9 12  1  0
  8 13  2  0
 13 14  2  0
  2  3  2  0
  3  4  1  0
  4  5  2  0
  5  6  1  0
  6  7  2  0
  7  2  1  0
M  END

$$$$
