No_4329-gen_results/8p0m/2024-11-26-14-13-15/
     RDKit          3D

 16 17  0  0  0  0  0  0  0  0999 V2000
  -28.0544   -1.0498   28.7246 N   0  0  0  0  0  0  0  0  0  0  0  0
  -26.9659   -0.4722   28.7709 C   0  0  0  0  0  0  0  0  0  0  0  0
  -26.5486    0.3876   27.8310 C   0  0  0  0  0  0  0  0  0  0  0  0
  -25.2662    1.0684   27.8062 C   0  0  0  0  0  0  0  0  0  0  0  0
  -24.3565    0.7761   28.8458 C   0  0  0  0  0  0  0  0  0  0  0  0
  -24.7750   -0.1742   29.8298 C   0  0  0  0  0  0  0  0  0  0  0  0
  -25.9839   -0.8112   29.8049 C   0  0  0  0  0  0  0  0  0  0  0  0
  -29.1813   -0.2653   28.9319 C   0  0  0  0  0  0  0  0  0  0  0  0
  -30.2322   -0.9373   29.5979 C   0  0  0  0  0  0  0  0  0  0  0  0
  -31.4728   -0.9524   29.0468 C   0  0  0  0  0  0  0  0  0  0  0  0
  -31.7419   -0.0459   27.9669 C   0  0  0  0  0  0  0  0  0  0  0  0
  -30.6831    0.6308   27.3614 C   0  0  0  0  0  0  0  0  0  0  0  0
  -29.4689    0.4728   27.7828 C   0  0  0  0  0  0  0  0  0  0  0  0
  -23.0541    1.3691   28.8530 C   0  0  0  0  0  0  0  0  0  0  0  0
  -22.2203    1.1835   29.7111 N   0  0  0  0  0  0  0  0  0  0  0  0
  -22.6932    2.1081   27.8080 O   0  0  0  0  0  0  0  0  0  0  0  0
  1  2  1  0
  1  8  1  0
  5 14  1  0
 14 15  1  0
 14 16  2  0
  2  3  2  0
  3  4  1  0
  4  5  2  0
  5  6  1  0
  6  7  2  0
  7  2  1  0
  8  9  2  0
  9 10  1  0
 10 11  2  0
 11 12  1  0
 12 13  2  0
 13  8  1  0
M  END

$$$$
