No_4175-gen_results/8p0m/2024-11-26-14-13-15/
     RDKit          3D

 28 30  0  0  0  0  0  0  0  0999 V2000
  -28.0162   -0.8135   28.8779 C   0  0  0  0  0  0  0  0  0  0  0  0
  -27.0636   -0.1189   28.6079 C   0  0  0  0  0  0  0  0  0  0  0  0
  -25.7647   -0.3897   29.0360 C   0  0  0  0  0  0  0  0  0  0  0  0
  -25.5296   -1.5302   29.9014 C   0  0  0  0  0  0  0  0  0  0  0  0
  -26.6888   -2.2893   30.1810 C   0  0  0  0  0  0  0  0  0  0  0  0
  -27.8727   -1.9508   29.7373 C   0  0  0  0  0  0  0  0  0  0  0  0
  -24.5491    0.4100   28.7341 C   0  0  0  0  0  0  0  0  0  0  0  0
  -24.4789    1.1871   27.6843 C   0  0  0  0  0  0  0  0  0  0  0  0
  -23.2716    1.8973   27.3731 C   0  0  0  0  0  0  0  0  0  0  0  0
  -22.1063    1.7032   28.0412 C   0  0  0  0  0  0  0  0  0  0  0  0
  -23.3188    0.1792   29.4669 C   0  0  0  0  0  0  0  0  0  0  0  0
  -22.1165    0.8402   29.1011 C   0  0  0  0  0  0  0  0  0  0  0  0
  -29.0352   -2.7858   30.1613 C   0  0  0  0  0  0  0  0  0  0  0  0
  -28.9637   -4.0092   30.2226 O   0  0  0  0  0  0  0  0  0  0  0  0
  -30.1839   -2.1796   30.5229 N   0  0  0  0  0  0  0  0  0  0  0  0
  -31.3440   -2.9578   30.9326 C   0  0  0  0  0  0  0  0  0  0  0  0
  -31.3445   -3.7452   31.8114 C   0  0  0  0  0  0  0  0  0  0  0  0
  -30.2874   -3.6777   32.7580 C   0  0  0  0  0  0  0  0  0  0  0  0
  -29.7243   -4.9780   33.7072 Cl  0  0  0  0  0  0  0  0  0  0  0  0
  -32.4410   -1.7992   31.0795 C   0  0  0  0  0  0  0  0  0  0  0  0
  -32.7008   -1.0211   30.1869 N   0  0  0  0  0  0  0  0  0  0  0  0
  -32.5482   -1.0778   29.0000 C   0  0  0  0  0  0  0  0  0  0  0  0
  -32.5900    0.1103   28.1383 C   0  0  0  0  0  0  0  0  0  0  0  0
  -32.4217    0.1465   26.8239 C   0  0  0  0  0  0  0  0  0  0  0  0
  -32.1199   -1.1042   26.1708 C   0  0  0  0  0  0  0  0  0  0  0  0
  -32.0652   -2.2800   26.8978 C   0  0  0  0  0  0  0  0  0  0  0  0
  -32.2311   -2.2252   28.2536 C   0  0  0  0  0  0  0  0  0  0  0  0
  -33.0870   -1.8270   32.1819 O   0  0  0  0  0  0  0  0  0  0  0  0
  3  7  1  0
  6 13  1  0
 13 14  2  0
 13 15  1  0
 15 16  1  0
 16 17  2  3
 17 18  1  0
 18 19  1  0
 16 20  1  0
 20 21  1  0
 21 22  1  0
 20 28  2  0
  7  8  2  0
  8  9  1  0
  9 10  2  0
 10 12  1  0
 12 11  2  0
 11  7  1  0
  1  2  2  0
  2  3  1  0
  3  4  2  0
  4  5  1  0
  5  6  2  0
  6  1  1  0
 22 23  2  0
 23 24  1  0
 24 25  2  0
 25 26  1  0
 26 27  2  0
 27 22  1  0
M  END

$$$$
