No_4604-gen_results/8p0m/2024-11-26-14-13-15/
     RDKit          3D

 16 17  0  0  0  0  0  0  0  0999 V2000
  -28.0162   -0.8135   28.8779 C   0  0  0  0  0  0  0  0  0  0  0  0
  -28.4690   -0.7850   29.8287 C   0  0  0  0  0  0  0  0  0  0  0  0
  -27.1356    0.2359   28.5352 C   0  0  0  0  0  0  0  0  0  0  0  0
  -26.8745    1.2825   29.3982 C   0  0  0  0  0  0  0  0  0  0  0  0
  -27.5070    1.2380   30.6295 C   0  0  0  0  0  0  0  0  0  0  0  0
  -28.3293    0.1745   30.9350 C   0  0  0  0  0  0  0  0  0  0  0  0
  -26.4077    0.3070   27.2259 C   0  0  0  0  0  0  0  0  0  0  0  0
  -26.8825    0.5866   26.2352 N   0  0  0  0  0  0  0  0  0  0  0  0
  -25.0978   -0.0459   27.2404 O   0  0  0  0  0  0  0  0  0  0  0  0
  -28.2466    1.0545   26.0405 C   0  0  0  0  0  0  0  0  0  0  0  0
  -28.5043    2.1113   26.4610 C   0  0  0  0  0  0  0  0  0  0  0  0
  -29.8494    2.7175   26.3076 C   0  0  0  0  0  0  0  0  0  0  0  0
  -30.7272    2.0665   25.4844 C   0  0  0  0  0  0  0  0  0  0  0  0
  -28.9628    0.3974   25.1737 C   0  0  0  0  0  0  0  0  0  0  0  0
  -30.2493    0.8513   24.8502 C   0  0  0  0  0  0  0  0  0  0  0  0
  -26.0832    0.7880   25.0486 C   0  0  0  0  0  0  0  0  0  0  0  0
  3  7  1  0
  7  8  1  0
  7  9  2  0
  8 10  1  0
  8 16  1  0
  1  2  2  0
  2  6  1  0
  6  5  2  0
  5  4  1  0
  4  3  2  0
  3  1  1  0
 10 11  2  0
 11 12  1  0
 12 13  2  0
 13 15  1  0
 15 14  2  0
 14 10  1  0
M  END

$$$$
