No_4396-gen_results/8p0m/2024-11-26-14-13-15/
     RDKit          3D

 24 25  0  0  0  0  0  0  0  0999 V2000
  -28.0727   -1.2542   28.5316 F   0  0  0  0  0  0  0  0  0  0  0  0
  -27.3591   -0.3792   28.7224 C   0  0  0  0  0  0  0  0  0  0  0  0
  -27.7014    0.7608   29.1249 C   0  0  0  0  0  0  0  0  0  0  0  0
  -25.8844   -0.6918   28.4374 C   0  0  0  0  0  0  0  0  0  0  0  0
  -24.9212    0.3779   28.6013 C   0  0  0  0  0  0  0  0  0  0  0  0
  -26.6914    1.8696   29.2705 C   0  0  0  0  0  0  0  0  0  0  0  0
  -25.3451    1.6252   29.0013 C   0  0  0  0  0  0  0  0  0  0  0  0
  -23.5124    0.1705   28.3599 C   0  0  0  0  0  0  0  0  0  0  0  0
  -22.6774   -0.4281   29.3628 C   0  0  0  0  0  0  0  0  0  0  0  0
  -21.3070   -0.5749   29.0704 C   0  0  0  0  0  0  0  0  0  0  0  0
  -20.6523    0.3696   28.2855 C   0  0  0  0  0  0  0  0  0  0  0  0
  -21.4473    1.2607   27.5027 C   0  0  0  0  0  0  0  0  0  0  0  0
  -22.8718    1.2578   27.5947 C   0  0  0  0  0  0  0  0  0  0  0  0
  -23.4071    2.2326   26.7747 N   0  0  0  0  0  0  0  0  0  0  0  0
  -23.5792    2.1570   25.4820 C   0  0  0  0  0  0  0  0  0  0  0  0
  -23.8380    3.5077   27.3840 C   0  0  0  0  0  0  0  0  0  0  0  0
  -24.6161    4.3868   26.6048 C   0  0  0  0  0  0  0  0  0  0  0  0
  -25.7388    4.5535   26.8482 C   0  0  0  0  0  0  0  0  0  0  0  0
  -26.7476    3.8404   26.8336 C   0  0  0  0  0  0  0  0  0  0  0  0
  -27.8269    4.0210   26.4130 C   0  0  0  0  0  0  0  0  0  0  0  0
  -28.9485    3.0108   26.2196 C   0  0  0  0  0  0  0  0  0  0  0  0
  -30.2209    3.3809   26.1801 C   0  0  0  0  0  0  0  0  0  0  0  0
  -30.5037    4.7909   25.9461 C   0  0  0  0  0  0  0  0  0  0  0  0
  -29.5578    5.7317   26.0313 C   0  0  0  0  0  0  0  0  0  0  0  0
  1  2  1  0
  5  8  1  0
 13 14  1  0
 14 15  1  0
 14 16  1  0
 16 17  2  3
 17 18  1  0
 18 19  1  0
 19 20  2  3
 20 21  1  0
 21 22  2  3
 22 23  1  0
 23 24  2  0
  2  3  2  0
  3  6  1  0
  6  7  2  0
  7  5  1  0
  5  4  2  0
  4  2  1  0
  8  9  2  0
  9 10  1  0
 10 11  2  0
 11 12  1  0
 12 13  2  0
 13  8  1  0
M  END

$$$$
