No_4842-gen_results/8p0m/2024-11-26-14-13-15/
     RDKit          3D

 23 25  0  0  0  0  0  0  0  0999 V2000
  -28.0162   -0.8135   28.8779 C   0  0  0  0  0  0  0  0  0  0  0  0
  -27.0636   -0.1189   28.6079 C   0  0  0  0  0  0  0  0  0  0  0  0
  -26.8756    1.1325   28.9134 C   0  0  0  0  0  0  0  0  0  0  0  0
  -27.9014    1.8066   29.6436 C   0  0  0  0  0  0  0  0  0  0  0  0
  -29.0458   -0.2316   29.7181 C   0  0  0  0  0  0  0  0  0  0  0  0
  -27.7521    3.2005   30.0171 C   0  0  0  0  0  0  0  0  0  0  0  0
  -28.9510    1.0411   30.0482 C   0  0  0  0  0  0  0  0  0  0  0  0
  -27.7772    3.6042   31.1953 C   0  0  0  0  0  0  0  0  0  0  0  0
  -27.6009    5.0205   31.5876 C   0  0  0  0  0  0  0  0  0  0  0  0
  -27.3419    5.9399   30.5544 C   0  0  0  0  0  0  0  0  0  0  0  0
  -27.4217    4.1417   28.9540 C   0  0  0  0  0  0  0  0  0  0  0  0
  -27.2153    5.4967   29.2451 C   0  0  0  0  0  0  0  0  0  0  0  0
  -25.7130   -0.8558   27.6587 Cl  0  0  0  0  0  0  0  0  0  0  0  0
  -30.3397   -1.2176   30.2262 Cl  0  0  0  0  0  0  0  0  0  0  0  0
  -27.0748    7.5871   30.9320 Cl  0  0  0  0  0  0  0  0  0  0  0  0
  -25.4889    2.1044   28.3738 Cl  0  0  0  0  0  0  0  0  0  0  0  0
  -28.0397    2.8308   32.2667 O   0  0  0  0  0  0  0  0  0  0  0  0
  -28.8229    3.1556   33.2521 C   0  0  0  0  0  0  0  0  0  0  0  0
  -29.1083    1.9652   34.0350 C   0  0  0  0  0  0  0  0  0  0  0  0
  -30.2365    1.9671   34.6829 C   0  0  0  0  0  0  0  0  0  0  0  0
  -31.1948    2.2121   34.2156 C   0  0  0  0  0  0  0  0  0  0  0  0
  -31.3042    3.4388   33.3304 C   0  0  0  0  0  0  0  0  0  0  0  0
  -30.2522    3.4711   32.6464 C   0  0  0  0  0  0  0  0  0  0  0  0
  4  6  1  0
  2 13  1  0
  5 14  1  0
 10 15  1  0
  3 16  1  0
  8 17  1  0
 17 18  1  0
 18 19  2  0
 19 20  1  0
 20 21  2  0
 21 22  1  0
 22 23  2  0
 23 18  1  0
  1  2  2  0
  2  3  1  0
  3  4  2  0
  4  7  1  0
  7  5  2  0
  5  1  1  0
  6  8  1  0
  8  9  2  0
  9 10  1  0
 10 12  2  0
 12 11  1  0
 11  6  2  0
M  END

$$$$
