No_4484-gen_results/8p0m/2024-11-26-14-13-15/
     RDKit          3D

 22 24  0  0  0  0  0  0  0  0999 V2000
  -28.0162   -0.8135   28.8779 C   0  0  0  0  0  0  0  0  0  0  0  0
  -27.0636   -0.1190   28.6079 C   0  0  0  0  0  0  0  0  0  0  0  0
  -27.0010    0.6913   27.4910 C   0  0  0  0  0  0  0  0  0  0  0  0
  -28.1373    0.7363   26.6350 C   0  0  0  0  0  0  0  0  0  0  0  0
  -29.2360    0.0765   27.0690 C   0  0  0  0  0  0  0  0  0  0  0  0
  -29.2177   -0.6429   28.1747 C   0  0  0  0  0  0  0  0  0  0  0  0
  -30.3222    0.1455   26.3092 F   0  0  0  0  0  0  0  0  0  0  0  0
  -25.7269   -0.1942   29.4070 C   0  0  0  0  0  0  0  0  0  0  0  0
  -25.2152    1.0353   30.0010 C   0  0  0  0  0  0  0  0  0  0  0  0
  -25.4617    1.3434   30.9908 C   0  0  0  0  0  0  0  0  0  0  0  0
  -25.8203    2.2261   31.5573 C   0  0  0  0  0  0  0  0  0  0  0  0
  -26.2306    3.4506   30.7978 C   0  0  0  0  0  0  0  0  0  0  0  0
  -26.8331    4.5579   31.3175 C   0  0  0  0  0  0  0  0  0  0  0  0
  -24.5353    1.9025   28.9662 C   0  0  0  0  0  0  0  0  0  0  0  0
  -25.0457    3.1658   28.5945 C   0  0  0  0  0  0  0  0  0  0  0  0
  -25.7145    3.8153   29.5107 C   0  0  0  0  0  0  0  0  0  0  0  0
  -27.1854    5.4852   30.5081 C   0  0  0  0  0  0  0  0  0  0  0  0
  -26.3399    5.1404   29.1872 C   0  0  0  0  0  0  0  0  0  0  0  0
  -24.5875    3.7306   27.3533 C   0  0  0  0  0  0  0  0  0  0  0  0
  -25.0243   -1.4115   29.4085 C   0  0  0  0  0  0  0  0  0  0  0  0
  -25.4527   -2.5646   29.2189 C   0  0  0  0  0  0  0  0  0  0  0  0
  -24.6786   -3.7716   29.2371 C   0  0  0  0  0  0  0  0  0  0  0  0
  5  7  1  0
  2  8  1  0
  8  9  1  0
  9 10  1  0
 10 11  2  0
 11 12  1  0
 12 13  2  0
  9 14  1  0
 14 15  1  0
 12 16  1  0
 15 16  2  0
 13 17  1  0
 16 18  1  0
 17 18  2  0
 15 19  1  0
  8 20  1  0
 20 21  2  3
 21 22  1  0
  1  2  2  0
  2  3  1  0
  3  4  2  0
  4  5  1  0
  5  6  2  0
  6  1  1  0
M  END

$$$$
