No_4062-gen_results/8p0m/2024-11-26-14-13-15/
     RDKit          3D

 24 26  0  0  0  0  0  0  0  0999 V2000
  -28.0162   -0.8135   28.8779 C   0  0  0  0  0  0  0  0  0  0  0  0
  -27.0636   -0.1189   28.6079 C   0  0  0  0  0  0  0  0  0  0  0  0
  -25.7647   -0.3897   29.0360 C   0  0  0  0  0  0  0  0  0  0  0  0
  -25.5296   -1.5302   29.9014 C   0  0  0  0  0  0  0  0  0  0  0  0
  -26.6577   -2.2915   30.2035 C   0  0  0  0  0  0  0  0  0  0  0  0
  -27.8548   -1.9555   29.7630 C   0  0  0  0  0  0  0  0  0  0  0  0
  -24.5349    0.4128   28.7431 C   0  0  0  0  0  0  0  0  0  0  0  0
  -24.4835    1.2431   27.7398 C   0  0  0  0  0  0  0  0  0  0  0  0
  -23.2788    1.9376   27.4159 C   0  0  0  0  0  0  0  0  0  0  0  0
  -22.0791    1.6509   28.0212 C   0  0  0  0  0  0  0  0  0  0  0  0
  -23.2748    0.1108   29.4386 C   0  0  0  0  0  0  0  0  0  0  0  0
  -22.0811    0.7712   29.0650 C   0  0  0  0  0  0  0  0  0  0  0  0
  -29.0182   -2.7946   30.1855 C   0  0  0  0  0  0  0  0  0  0  0  0
  -28.8634   -4.0953   30.4584 N   0  0  0  0  0  0  0  0  0  0  0  0
  -29.8675   -5.0034   30.2260 C   0  0  0  0  0  0  0  0  0  0  0  0
  -30.3271   -5.7132   31.3754 C   0  0  0  0  0  0  0  0  0  0  0  0
  -31.2578   -6.7939   31.2062 C   0  0  0  0  0  0  0  0  0  0  0  0
  -30.1129   -2.3014   30.4201 O   0  0  0  0  0  0  0  0  0  0  0  0
  -31.7047   -7.0887   29.9073 C   0  0  0  0  0  0  0  0  0  0  0  0
  -31.2217   -6.3508   28.7931 C   0  0  0  0  0  0  0  0  0  0  0  0
  -30.2611   -5.3542   28.9780 C   0  0  0  0  0  0  0  0  0  0  0  0
  -31.6792   -6.6893   27.4513 C   0  0  0  0  0  0  0  0  0  0  0  0
  -31.2218   -7.6180   26.8154 O   0  0  0  0  0  0  0  0  0  0  0  0
  -32.3652   -5.7615   26.7972 O   0  0  0  0  0  0  0  0  0  0  0  0
  3  7  1  0
  6 13  1  0
 13 14  1  0
 14 15  1  0
 13 18  2  0
 20 22  1  0
 22 23  2  0
 22 24  1  0
  7  8  2  0
  8  9  1  0
  9 10  2  0
 10 12  1  0
 12 11  2  0
 11  7  1  0
  1  2  2  0
  2  3  1  0
  3  4  2  0
  4  5  1  0
  5  6  2  0
  6  1  1  0
 15 16  2  0
 16 17  1  0
 17 19  2  0
 19 20  1  0
 20 21  2  0
 21 15  1  0
M  END

$$$$
