No_4435-gen_results/8p0m/2024-11-26-14-13-15/
     RDKit          3D

 17 19  0  0  0  0  0  0  0  0999 V2000
  -28.1229   -1.3353   28.4874 O   0  0  0  0  0  0  0  0  0  0  0  0
  -27.4806   -0.4044   28.7094 C   0  0  0  0  0  0  0  0  0  0  0  0
  -26.3804   -0.0867   27.9394 C   0  0  0  0  0  0  0  0  0  0  0  0
  -27.4232    0.1749   30.0549 N   0  0  0  0  0  0  0  0  0  0  0  0
  -26.1558    0.1159   26.9677 C   0  0  0  0  0  0  0  0  0  0  0  0
  -24.8999    0.6041   26.2250 C   0  0  0  0  0  0  0  0  0  0  0  0
  -23.8294    0.8007   27.0443 C   0  0  0  0  0  0  0  0  0  0  0  0
  -23.9618    0.5852   28.4110 C   0  0  0  0  0  0  0  0  0  0  0  0
  -25.0820    0.2407   28.9595 C   0  0  0  0  0  0  0  0  0  0  0  0
  -28.6139   -0.1699   30.9103 C   0  0  0  0  0  0  0  0  0  0  0  0
  -22.8482    0.9310   29.2144 N   0  0  0  0  0  0  0  0  0  0  0  0
  -21.8452   -0.0602   29.3208 C   0  0  0  0  0  0  0  0  0  0  0  0
  -28.3119   -0.1637   32.1292 C   0  0  0  0  0  0  0  0  0  0  0  0
  -27.2243    0.5289   32.7455 C   0  0  0  0  0  0  0  0  0  0  0  0
  -26.1931    0.9185   31.8159 C   0  0  0  0  0  0  0  0  0  0  0  0
  -26.3417    0.6488   30.5430 C   0  0  0  0  0  0  0  0  0  0  0  0
  -25.2493    0.7423   29.7823 N   0  0  0  0  0  0  0  0  0  0  0  0
  1  2  2  0
  2  3  1  0
  2  4  1  0
  4 10  1  0
  8 11  1  0
 11 12  1  0
 13 14  1  0
 14 15  1  0
  4 16  1  0
  9 17  1  0
 16 17  1  0
 10 13  1  0
 15 16  1  0
  3  5  2  0
  5  6  1  0
  6  7  2  0
  7  8  1  0
  8  9  2  0
  9  3  1  0
M  END

$$$$
