No_4792-gen_results/8p0m/2024-11-26-14-13-15/
     RDKit          3D

 10  9  0  0  0  0  0  0  0  0999 V2000
  -27.9505   -0.5786   29.0402 P   0  0  0  0  0  0  0  0  0  0  0  0
  -27.2401    0.0613   28.4283 O   0  0  0  0  0  0  0  0  0  0  0  0
  -27.9314    0.0857   30.5132 O   0  0  0  0  0  0  0  0  0  0  0  0
  -29.2596   -0.9083   29.1458 O   0  0  0  0  0  0  0  0  0  0  0  0
  -27.1547   -1.9214   29.5823 O   0  0  0  0  0  0  0  0  0  0  0  0
  -26.0066    0.1145   28.4418 F   0  0  0  0  0  0  0  0  0  0  0  0
  -25.8229   -1.9129   29.6060 C   0  0  0  0  0  0  0  0  0  0  0  0
  -25.2090   -0.9714   28.7385 C   0  0  0  0  0  0  0  0  0  0  0  0
  -23.9672   -0.4172   29.2708 O   0  0  0  0  0  0  0  0  0  0  0  0
  -24.9376   -1.4269   27.4575 F   0  0  0  0  0  0  0  0  0  0  0  0
  1  2  1  0
  1  3  1  0
  1  4  1  0
  1  5  1  0
  2  6  1  0
  5  7  1  0
  7  8  2  3
  8  9  1  0
  8 10  1  0
M  END

$$$$
