No_4910-gen_results/8p0m/2024-11-26-14-13-15/
     RDKit          3D

 18 19  0  0  0  0  0  0  0  0999 V2000
  -28.0162   -0.8135   28.8779 C   0  0  0  0  0  0  0  0  0  0  0  0
  -27.0636   -0.1189   28.6079 C   0  0  0  0  0  0  0  0  0  0  0  0
  -27.0010    0.6913   27.4910 C   0  0  0  0  0  0  0  0  0  0  0  0
  -25.7770    1.0214   26.9135 C   0  0  0  0  0  0  0  0  0  0  0  0
  -24.5088    0.7364   27.5686 C   0  0  0  0  0  0  0  0  0  0  0  0
  -24.5930   -0.0361   28.7390 C   0  0  0  0  0  0  0  0  0  0  0  0
  -25.8114   -0.4771   29.1584 C   0  0  0  0  0  0  0  0  0  0  0  0
  -29.2371   -0.0330   29.2429 C   0  0  0  0  0  0  0  0  0  0  0  0
  -29.1579    1.2285   29.0769 C   0  0  0  0  0  0  0  0  0  0  0  0
  -28.8271    1.9724   27.9237 C   0  0  0  0  0  0  0  0  0  0  0  0
  -29.4599    3.2024   27.6837 C   0  0  0  0  0  0  0  0  0  0  0  0
  -27.6847    1.6857   27.1766 C   0  0  0  0  0  0  0  0  0  0  0  0
  -23.2694   -0.4229   29.3769 C   0  0  0  0  0  0  0  0  0  0  0  0
  -22.6679    0.4266   30.2330 C   0  0  0  0  0  0  0  0  0  0  0  0
  -23.3832   -1.8345   30.0192 C   0  0  0  0  0  0  0  0  0  0  0  0
  -22.2261   -0.5961   28.1448 C   0  0  0  0  0  0  0  0  0  0  0  0
  -30.1172    3.8144   28.4049 O   0  0  0  0  0  0  0  0  0  0  0  0
  -29.5559    3.5829   26.3901 O   0  0  0  0  0  0  0  0  0  0  0  0
  1  2  1  0
  1  8  2  0
  8  9  1  0
  9 10  2  0
 10 11  1  0
  3 12  1  0
 10 12  1  0
  6 13  1  0
 13 14  1  0
 13 15  1  0
 13 16  1  0
 11 17  1  0
 11 18  2  0
  2  3  2  0
  3  4  1  0
  4  5  2  0
  5  6  1  0
  6  7  2  0
  7  2  1  0
M  END

$$$$
