No_4350-gen_results/8p0m/2024-11-26-14-13-15/
     RDKit          3D

 22 24  0  0  0  0  0  0  0  0999 V2000
  -28.0162   -0.8135   28.8779 C   0  0  0  0  0  0  0  0  0  0  0  0
  -27.0636   -0.1189   28.6079 C   0  0  0  0  0  0  0  0  0  0  0  0
  -26.9716    0.7139   27.5060 C   0  0  0  0  0  0  0  0  0  0  0  0
  -28.1053    0.7744   26.6421 C   0  0  0  0  0  0  0  0  0  0  0  0
  -28.1273    1.5122   25.5121 C   0  0  0  0  0  0  0  0  0  0  0  0
  -27.9594   -1.6009   30.1427 C   0  0  0  0  0  0  0  0  0  0  0  0
  -26.7501   -1.7506   30.7832 C   0  0  0  0  0  0  0  0  0  0  0  0
  -25.6264   -1.1225   30.3809 C   0  0  0  0  0  0  0  0  0  0  0  0
  -25.7235   -0.2814   29.3107 C   0  0  0  0  0  0  0  0  0  0  0  0
  -26.9387    2.2628   25.1056 C   0  0  0  0  0  0  0  0  0  0  0  0
  -25.8140    2.2209   25.8874 C   0  0  0  0  0  0  0  0  0  0  0  0
  -25.8099    1.4784   27.0399 C   0  0  0  0  0  0  0  0  0  0  0  0
  -29.1448   -2.3838   30.5943 C   0  0  0  0  0  0  0  0  0  0  0  0
  -29.9067   -1.9899   31.2178 O   0  0  0  0  0  0  0  0  0  0  0  0
  -28.8979   -3.7151   30.4582 O   0  0  0  0  0  0  0  0  0  0  0  0
  -29.2821    1.6088   24.6445 C   0  0  0  0  0  0  0  0  0  0  0  0
  -30.0705    2.7104   24.6371 C   0  0  0  0  0  0  0  0  0  0  0  0
  -31.2154    2.8460   23.8389 C   0  0  0  0  0  0  0  0  0  0  0  0
  -31.5850    1.6536   23.1500 C   0  0  0  0  0  0  0  0  0  0  0  0
  -29.6140    0.5482   23.7960 C   0  0  0  0  0  0  0  0  0  0  0  0
  -30.7999    0.5420   23.2027 C   0  0  0  0  0  0  0  0  0  0  0  0
  -28.8460   -0.7354   23.9195 C   0  0  0  0  0  0  0  0  0  0  0  0
  2  3  1  0
  6 13  1  0
 13 14  2  0
 13 15  1  0
  5 16  1  0
 20 22  1  0
  3  4  2  0
  4  5  1  0
  5 10  2  0
 10 11  1  0
 11 12  2  0
 12  3  1  0
  1  2  2  0
  2  9  1  0
  9  8  2  0
  8  7  1  0
  7  6  2  0
  6  1  1  0
 16 17  2  0
 17 18  1  0
 18 19  2  0
 19 21  1  0
 21 20  2  0
 20 16  1  0
M  END

$$$$
