No_4553-gen_results/8p0m/2024-11-26-14-13-15/
     RDKit          3D

 34 37  0  0  0  0  0  0  0  0999 V2000
  -28.0162   -0.8135   28.8779 C   0  0  0  0  0  0  0  0  0  0  0  0
  -27.0636   -0.1189   28.6079 C   0  0  0  0  0  0  0  0  0  0  0  0
  -25.7923   -0.4302   29.0761 C   0  0  0  0  0  0  0  0  0  0  0  0
  -25.5756   -1.5654   29.9363 C   0  0  0  0  0  0  0  0  0  0  0  0
  -26.7354   -2.3004   30.2173 C   0  0  0  0  0  0  0  0  0  0  0  0
  -27.9184   -1.9537   29.7629 C   0  0  0  0  0  0  0  0  0  0  0  0
  -27.1057    1.1023   27.7593 C   0  0  0  0  0  0  0  0  0  0  0  0
  -26.7157    2.2350   27.9945 C   0  0  0  0  0  0  0  0  0  0  0  0
  -27.6806    0.8547   26.4259 C   0  0  0  0  0  0  0  0  0  0  0  0
  -26.0318    2.5935   29.1910 C   0  0  0  0  0  0  0  0  0  0  0  0
  -26.8615    3.3798   27.0755 C   0  0  0  0  0  0  0  0  0  0  0  0
  -27.4568    3.2690   25.8921 C   0  0  0  0  0  0  0  0  0  0  0  0
  -27.8759    1.9029   25.5140 C   0  0  0  0  0  0  0  0  0  0  0  0
  -24.6288    2.4459   29.3090 C   0  0  0  0  0  0  0  0  0  0  0  0
  -26.7758    2.8501   30.4049 C   0  0  0  0  0  0  0  0  0  0  0  0
  -26.2389    2.6327   31.6617 C   0  0  0  0  0  0  0  0  0  0  0  0
  -23.9763    2.4936   30.6348 C   0  0  0  0  0  0  0  0  0  0  0  0
  -24.7937    2.6144   31.7993 C   0  0  0  0  0  0  0  0  0  0  0  0
  -23.7494    2.3656   28.1722 C   0  0  0  0  0  0  0  0  0  0  0  0
  -22.6645    1.7506   28.2348 O   0  0  0  0  0  0  0  0  0  0  0  0
  -24.0357    3.0734   27.1392 O   0  0  0  0  0  0  0  0  0  0  0  0
  -27.0275    2.8552   32.8673 C   0  0  0  0  0  0  0  0  0  0  0  0
  -27.2366    1.6702   33.5409 C   0  0  0  0  0  0  0  0  0  0  0  0
  -26.9669    0.5098   33.0578 C   0  0  0  0  0  0  0  0  0  0  0  0
  -27.2567   -0.7155   33.7914 C   0  0  0  0  0  0  0  0  0  0  0  0
  -27.7578   -0.6494   35.0746 C   0  0  0  0  0  0  0  0  0  0  0  0
  -27.9456    0.6062   35.6623 C   0  0  0  0  0  0  0  0  0  0  0  0
  -27.7061    1.7936   34.9884 C   0  0  0  0  0  0  0  0  0  0  0  0
  -27.4885    4.1115   33.2629 C   0  0  0  0  0  0  0  0  0  0  0  0
  -27.4094    5.0720   32.5258 O   0  0  0  0  0  0  0  0  0  0  0  0
  -28.3234    4.1575   34.3404 N   0  0  0  0  0  0  0  0  0  0  0  0
  -28.5598    3.4963   35.1669 C   0  0  0  0  0  0  0  0  0  0  0  0
  -26.2629    2.2534   35.7097 C   0  0  0  0  0  0  0  0  0  0  0  0
  -29.2687    3.3399   36.1406 F   0  0  0  0  0  0  0  0  0  0  0  0
  2  7  1  0
  8 10  1  0
 14 19  1  0
 19 20  2  0
 19 21  1  0
 16 22  1  0
 22 23  1  0
 22 29  1  0
 29 30  1  0
 29 31  1  0
 31 32  2  3
 28 33  1  0
 32 34  1  0
  1  2  2  0
  2  3  1  0
  3  4  2  0
  4  5  1  0
  5  6  2  0
  6  1  1  0
 23 24  2  0
 24 25  1  0
 25 26  2  0
 26 27  1  0
 27 28  2  0
 28 23  1  0
  7  8  2  0
  8 11  1  0
 11 12  2  0
 12 13  1  0
 13  9  2  0
  9  7  1  0
 10 14  2  0
 14 17  1  0
 17 18  2  0
 18 16  1  0
 16 15  2  0
 15 10  1  0
M  END

$$$$
