No_4214-gen_results/8p0m/2024-11-26-14-13-15/
     RDKit          3D

 22 24  0  0  0  0  0  0  0  0999 V2000
  -28.0162   -0.8135   28.8779 C   0  0  0  0  0  0  0  0  0  0  0  0
  -27.0636   -0.1189   28.6079 C   0  0  0  0  0  0  0  0  0  0  0  0
  -25.7923   -0.4302   29.0761 C   0  0  0  0  0  0  0  0  0  0  0  0
  -24.5456    0.3494   28.8225 C   0  0  0  0  0  0  0  0  0  0  0  0
  -24.6586    1.4196   27.8878 C   0  0  0  0  0  0  0  0  0  0  0  0
  -25.9471    1.6811   27.3792 C   0  0  0  0  0  0  0  0  0  0  0  0
  -27.0439    0.9739   27.6871 C   0  0  0  0  0  0  0  0  0  0  0  0
  -28.9951   -0.6028   28.1730 F   0  0  0  0  0  0  0  0  0  0  0  0
  -28.4117   -0.6162   30.2431 F   0  0  0  0  0  0  0  0  0  0  0  0
  -23.2627    2.2821   27.5478 Cl  0  0  0  0  0  0  0  0  0  0  0  0
  -23.2536   -0.0500   29.3901 C   0  0  0  0  0  0  0  0  0  0  0  0
  -22.1983   -0.2399   28.6772 C   0  0  0  0  0  0  0  0  0  0  0  0
  -23.3632   -0.3356   30.8218 C   0  0  0  0  0  0  0  0  0  0  0  0
  -20.9868   -0.7325   29.3544 C   0  0  0  0  0  0  0  0  0  0  0  0
  -24.4762   -0.1046   31.6096 C   0  0  0  0  0  0  0  0  0  0  0  0
  -19.9830   -0.7516   28.5232 F   0  0  0  0  0  0  0  0  0  0  0  0
  -24.8558   -0.9553   32.6351 C   0  0  0  0  0  0  0  0  0  0  0  0
  -23.6501   -1.5184   33.1995 C   0  0  0  0  0  0  0  0  0  0  0  0
  -22.4807   -1.7431   32.5252 C   0  0  0  0  0  0  0  0  0  0  0  0
  -22.3102   -1.1256   31.3021 C   0  0  0  0  0  0  0  0  0  0  0  0
  -21.0744   -1.1678   30.5903 C   0  0  0  0  0  0  0  0  0  0  0  0
  -27.7401   -2.1218   28.9196 F   0  0  0  0  0  0  0  0  0  0  0  0
  1  2  1  0
  1  8  1  0
  1  9  1  0
  5 10  1  0
  4 11  1  0
 14 16  1  0
  1 22  1  0
 13 15  2  0
 15 17  1  0
 17 18  2  0
 18 19  1  0
 19 20  2  0
  2  3  2  0
  3  4  1  0
  4  5  2  0
  5  6  1  0
  6  7  2  0
  7  2  1  0
 11 12  2  0
 12 14  1  0
 14 21  2  0
 21 20  1  0
 20 13  1  0
 13 11  1  0
M  END

$$$$
