No_4052-gen_results/8p0m/2024-11-26-14-13-15/
     RDKit          3D

 12 13  0  0  0  0  0  0  0  0999 V2000
  -28.0162   -0.8135   28.8779 C   0  0  0  0  0  0  0  0  0  0  0  0
  -27.0636   -0.1189   28.6079 C   0  0  0  0  0  0  0  0  0  0  0  0
  -25.7923   -0.4302   29.0761 C   0  0  0  0  0  0  0  0  0  0  0  0
  -24.5456    0.3494   28.8225 C   0  0  0  0  0  0  0  0  0  0  0  0
  -24.6586    1.4196   27.8878 C   0  0  0  0  0  0  0  0  0  0  0  0
  -25.9471    1.6811   27.3792 C   0  0  0  0  0  0  0  0  0  0  0  0
  -27.0439    0.9739   27.6871 C   0  0  0  0  0  0  0  0  0  0  0  0
  -28.0485   -1.5981   30.1629 C   0  0  0  0  0  0  0  0  0  0  0  0
  -26.7598   -2.0713   30.6119 C   0  0  0  0  0  0  0  0  0  0  0  0
  -25.6104   -1.4023   30.1708 C   0  0  0  0  0  0  0  0  0  0  0  0
  -23.4418    2.1630   27.5308 C   0  0  0  0  0  0  0  0  0  0  0  0
  -22.2517    1.7305   27.9652 N   0  0  0  0  0  0  0  0  0  0  0  0
  5 11  1  0
 11 12  2  0
  3  4  1  0
  4  5  2  0
  5  6  1  0
  6  7  2  0
  7  2  1  0
  1  2  2  0
  2  3  1  0
  3 10  2  0
 10  9  1  0
  9  8  2  0
  8  1  1  0
M  END

$$$$
