No_4221-gen_results/8p0m/2024-11-26-14-13-15/
     RDKit          3D

 28 29  0  0  0  0  0  0  0  0999 V2000
  -28.1229   -1.3353   28.4874 O   0  0  0  0  0  0  0  0  0  0  0  0
  -27.0637   -0.8242   28.8687 C   0  0  0  0  0  0  0  0  0  0  0  0
  -25.9773   -1.1378   28.8137 N   0  0  0  0  0  0  0  0  0  0  0  0
  -25.5373   -2.3638   28.4229 C   0  0  0  0  0  0  0  0  0  0  0  0
  -27.1633    0.7053   29.5140 C   0  0  0  0  0  0  0  0  0  0  0  0
  -27.3575    1.5184   28.9140 N   0  0  0  0  0  0  0  0  0  0  0  0
  -27.3382    2.6986   29.1007 C   0  0  0  0  0  0  0  0  0  0  0  0
  -27.1609    3.1399   30.3278 C   0  0  0  0  0  0  0  0  0  0  0  0
  -26.8023    0.6895   30.9486 C   0  0  0  0  0  0  0  0  0  0  0  0
  -26.6961    2.1174   31.3945 C   0  0  0  0  0  0  0  0  0  0  0  0
  -24.0497   -2.6469   29.1308 C   0  0  0  0  0  0  0  0  0  0  0  0
  -23.2623   -1.4934   29.1327 C   0  0  0  0  0  0  0  0  0  0  0  0
  -23.7449   -0.1667   29.1066 C   0  0  0  0  0  0  0  0  0  0  0  0
  -25.0401   -0.0472   29.0444 C   0  0  0  0  0  0  0  0  0  0  0  0
  -27.6261    3.6587   28.1873 N   0  0  0  0  0  0  0  0  0  0  0  0
  -26.8266   -0.3571   31.8650 C   0  0  0  0  0  0  0  0  0  0  0  0
  -25.6326   -0.5105   32.6401 C   0  0  0  0  0  0  0  0  0  0  0  0
  -27.9485   -1.1356   31.9842 C   0  0  0  0  0  0  0  0  0  0  0  0
  -26.3372    2.5245   32.7430 C   0  0  0  0  0  0  0  0  0  0  0  0
  -27.1646    3.3697   33.4270 C   0  0  0  0  0  0  0  0  0  0  0  0
  -28.0854    3.2104   33.8100 C   0  0  0  0  0  0  0  0  0  0  0  0
  -28.7566    1.9300   33.8432 C   0  0  0  0  0  0  0  0  0  0  0  0
  -29.8146    1.7257   33.9803 C   0  0  0  0  0  0  0  0  0  0  0  0
  -30.3916    0.3859   33.8953 C   0  0  0  0  0  0  0  0  0  0  0  0
  -31.1231   -0.0972   34.4168 C   0  0  0  0  0  0  0  0  0  0  0  0
  -31.5090   -1.5083   34.2736 C   0  0  0  0  0  0  0  0  0  0  0  0
  -30.8964   -2.1881   33.2789 C   0  0  0  0  0  0  0  0  0  0  0  0
  -30.0444   -1.5805   32.4488 C   0  0  0  0  0  0  0  0  0  0  0  0
  1  2  2  0
  2  3  1  0
  3  4  1  0
  2  5  1  0
 11 12  1  0
 12 13  1  0
  3 14  1  0
  7 15  1  0
  9 16  1  0
 16 17  1  0
 16 18  1  0
 10 19  1  0
 19 20  1  0
 20 21  2  3
 21 22  1  0
 22 23  2  3
 23 24  1  0
 24 25  2  3
 25 26  1  0
 26 27  2  3
 27 28  1  0
  4 11  1  0
 13 14  1  0
  5  6  2  0
  6  7  1  0
  7  8  2  0
  8 10  1  0
 10  9  2  0
  9  5  1  0
M  END

$$$$
