No_4703-gen_results/8p0m/2024-11-26-14-13-15/
     RDKit          3D

 22 23  0  0  0  0  0  0  0  0999 V2000
  -28.0162   -0.8135   28.8779 C   0  0  0  0  0  0  0  0  0  0  0  0
  -28.4690   -0.7850   29.8287 C   0  0  0  0  0  0  0  0  0  0  0  0
  -26.5455   -0.8762   28.8500 C   0  0  0  0  0  0  0  0  0  0  0  0
  -25.8041   -1.0324   30.0571 C   0  0  0  0  0  0  0  0  0  0  0  0
  -27.9437   -0.9869   31.2075 C   0  0  0  0  0  0  0  0  0  0  0  0
  -26.5825   -1.0386   31.2231 C   0  0  0  0  0  0  0  0  0  0  0  0
  -29.9648   -0.7353   29.8902 N   0  0  0  0  0  0  0  0  0  0  0  0
  -30.6477    0.3169   30.2682 C   0  0  0  0  0  0  0  0  0  0  0  0
  -30.0738    1.3599   30.4675 C   0  0  0  0  0  0  0  0  0  0  0  0
  -30.8903    2.5831   30.8240 C   0  0  0  0  0  0  0  0  0  0  0  0
  -32.2735    2.3576   30.8552 C   0  0  0  0  0  0  0  0  0  0  0  0
  -32.0553    0.2023   30.3346 C   0  0  0  0  0  0  0  0  0  0  0  0
  -32.8220    1.2002   30.6226 C   0  0  0  0  0  0  0  0  0  0  0  0
  -30.5889   -2.0056   29.5380 C   0  0  0  0  0  0  0  0  0  0  0  0
  -31.4643   -1.9068   28.6797 F   0  0  0  0  0  0  0  0  0  0  0  0
  -30.2715   -3.1278   30.1949 C   0  0  0  0  0  0  0  0  0  0  0  0
  -30.6289   -4.2709   29.6454 N   0  0  0  0  0  0  0  0  0  0  0  0
  -31.5134   -5.1374   30.3051 C   0  0  0  0  0  0  0  0  0  0  0  0
  -31.8079   -6.3355   29.6824 C   0  0  0  0  0  0  0  0  0  0  0  0
  -31.4885   -6.3881   28.2589 C   0  0  0  0  0  0  0  0  0  0  0  0
  -31.7258   -7.5074   27.4676 C   0  0  0  0  0  0  0  0  0  0  0  0
  -31.3407   -7.4405   26.1005 C   0  0  0  0  0  0  0  0  0  0  0  0
  2  7  1  0
  7  8  1  0
  7 14  1  0
 14 15  1  0
 14 16  1  0
 16 17  1  0
 17 18  1  0
 18 19  1  0
 19 20  1  0
 20 21  2  3
 21 22  1  0
  1  2  2  0
  2  5  1  0
  5  6  2  0
  6  4  1  0
  4  3  2  0
  3  1  1  0
  8  9  2  0
  9 10  1  0
 10 11  2  0
 11 13  1  0
 13 12  2  0
 12  8  1  0
M  END

$$$$
