No_4195-gen_results/8p0m/2024-11-26-14-13-15/
     RDKit          3D

 11 11  0  0  0  0  0  0  0  0999 V2000
  -28.1229   -1.3353   28.4874 O   0  0  0  0  0  0  0  0  0  0  0  0
  -27.0637   -0.8242   28.8687 C   0  0  0  0  0  0  0  0  0  0  0  0
  -26.9592    0.0926   29.7582 C   0  0  0  0  0  0  0  0  0  0  0  0
  -25.8472   -1.5491   28.6589 N   0  0  0  0  0  0  0  0  0  0  0  0
  -27.8673    0.9590   30.1109 C   0  0  0  0  0  0  0  0  0  0  0  0
  -24.5647   -1.1378   29.0392 C   0  0  0  0  0  0  0  0  0  0  0  0
  -24.4510   -0.0172   29.7492 C   0  0  0  0  0  0  0  0  0  0  0  0
  -25.5598    0.6710   30.1599 C   0  0  0  0  0  0  0  0  0  0  0  0
  -28.3852    0.9503   31.1854 N   0  0  0  0  0  0  0  0  0  0  0  0
  -28.5596    1.5918   29.1196 N   0  0  0  0  0  0  0  0  0  0  0  0
  -29.6559    2.3544   29.4008 C   0  0  0  0  0  0  0  0  0  0  0  0
  1  2  2  0
  2  3  1  0
  2  4  1  0
  3  5  1  0
  4  6  1  0
  3  8  1  0
  7  8  1  0
  5  9  2  0
  5 10  1  0
 10 11  1  0
  7  6  1  0
M  END

$$$$
