No_4099-gen_results/8p0m/2024-11-26-14-13-15/
     RDKit          3D

 18 19  0  0  0  0  0  0  0  0999 V2000
  -28.0162   -0.8135   28.8779 C   0  0  0  0  0  0  0  0  0  0  0  0
  -28.4690   -0.7850   29.8287 C   0  0  0  0  0  0  0  0  0  0  0  0
  -26.6028   -1.0596   28.5384 C   0  0  0  0  0  0  0  0  0  0  0  0
  -25.7969   -1.4490   29.7273 C   0  0  0  0  0  0  0  0  0  0  0  0
  -26.4284   -1.5407   30.9833 C   0  0  0  0  0  0  0  0  0  0  0  0
  -27.7564   -1.2444   31.0750 C   0  0  0  0  0  0  0  0  0  0  0  0
  -24.3922   -1.7399   29.5644 C   0  0  0  0  0  0  0  0  0  0  0  0
  -23.3076   -0.7648   29.8078 C   0  0  0  0  0  0  0  0  0  0  0  0
  -23.0649    0.1855   28.9780 C   0  0  0  0  0  0  0  0  0  0  0  0
  -23.8085    1.3507   28.8616 C   0  0  0  0  0  0  0  0  0  0  0  0
  -23.5162    2.3439   27.8976 C   0  0  0  0  0  0  0  0  0  0  0  0
  -22.4010    2.0620   27.0291 C   0  0  0  0  0  0  0  0  0  0  0  0
  -21.5652    1.0106   27.2930 C   0  0  0  0  0  0  0  0  0  0  0  0
  -21.8742    0.1036   28.2138 C   0  0  0  0  0  0  0  0  0  0  0  0
  -24.0491   -2.9912   28.9022 C   0  0  0  0  0  0  0  0  0  0  0  0
  -24.3858    3.4890   27.6989 C   0  0  0  0  0  0  0  0  0  0  0  0
  -24.8820    4.0437   28.6012 O   0  0  0  0  0  0  0  0  0  0  0  0
  -24.7634    3.6424   26.4508 O   0  0  0  0  0  0  0  0  0  0  0  0
  4  7  1  0
  7  8  1  0
  8  9  1  0
  7 15  1  0
 11 16  1  0
 16 17  1  0
 16 18  2  0
  1  2  2  0
  2  6  1  0
  6  5  2  0
  5  4  1  0
  4  3  2  0
  3  1  1  0
  9 10  2  0
 10 11  1  0
 11 12  2  0
 12 13  1  0
 13 14  2  0
 14  9  1  0
M  END

$$$$
