No_4881-gen_results/8p0m/2024-11-26-14-13-15/
     RDKit          3D

 31 34  0  0  0  0  0  0  0  0999 V2000
  -28.0162   -0.8135   28.8779 C   0  0  0  0  0  0  0  0  0  0  0  0
  -28.4690   -0.7850   29.8287 C   0  0  0  0  0  0  0  0  0  0  0  0
  -26.5455   -0.8762   28.8500 C   0  0  0  0  0  0  0  0  0  0  0  0
  -25.6825   -0.7773   27.6829 C   0  0  0  0  0  0  0  0  0  0  0  0
  -27.9181   -1.0034   31.1877 C   0  0  0  0  0  0  0  0  0  0  0  0
  -26.5308   -1.0794   31.2463 C   0  0  0  0  0  0  0  0  0  0  0  0
  -25.7798   -1.0462   30.0905 C   0  0  0  0  0  0  0  0  0  0  0  0
  -25.8976    0.2387   26.7449 C   0  0  0  0  0  0  0  0  0  0  0  0
  -25.6318    1.4984   27.0379 C   0  0  0  0  0  0  0  0  0  0  0  0
  -24.8915    1.8300   28.2575 C   0  0  0  0  0  0  0  0  0  0  0  0
  -23.7185    1.2879   28.5049 C   0  0  0  0  0  0  0  0  0  0  0  0
  -23.0831    1.5332   29.7328 C   0  0  0  0  0  0  0  0  0  0  0  0
  -23.7907    2.1777   30.7260 C   0  0  0  0  0  0  0  0  0  0  0  0
  -25.0299    2.7516   30.5789 C   0  0  0  0  0  0  0  0  0  0  0  0
  -25.6306    2.5244   29.2777 C   0  0  0  0  0  0  0  0  0  0  0  0
  -26.9727    2.9872   29.2404 C   0  0  0  0  0  0  0  0  0  0  0  0
  -27.1556    4.3483   29.1054 C   0  0  0  0  0  0  0  0  0  0  0  0
  -26.1256    5.1733   29.1583 C   0  0  0  0  0  0  0  0  0  0  0  0
  -26.0086    6.2405   28.9102 C   0  0  0  0  0  0  0  0  0  0  0  0
  -24.7860    7.1629   28.9020 C   0  0  0  0  0  0  0  0  0  0  0  0
  -26.0229    2.5906   26.2019 C   0  0  0  0  0  0  0  0  0  0  0  0
  -26.4561   -0.1186   25.4938 C   0  0  0  0  0  0  0  0  0  0  0  0
  -27.1684    7.0420   28.3155 C   0  0  0  0  0  0  0  0  0  0  0  0
  -22.8541    0.6171   27.5261 C   0  0  0  0  0  0  0  0  0  0  0  0
  -24.6485    8.1576   29.8986 C   0  0  0  0  0  0  0  0  0  0  0  0
  -23.6559    9.1044   29.7029 C   0  0  0  0  0  0  0  0  0  0  0  0
  -22.8827    9.0642   28.4680 C   0  0  0  0  0  0  0  0  0  0  0  0
  -23.2082    8.1319   27.5193 C   0  0  0  0  0  0  0  0  0  0  0  0
  -24.2097    7.2669   27.6978 C   0  0  0  0  0  0  0  0  0  0  0  0
  -28.3357    6.2425   28.2497 C   0  0  0  0  0  0  0  0  0  0  0  0
  -28.3462    4.9206   28.5506 C   0  0  0  0  0  0  0  0  0  0  0  0
  3  4  1  0
  4  8  1  0
  8  9  2  3
  9 10  1  0
 15 16  1  0
 19 20  1  0
  9 21  1  0
  8 22  1  0
 11 24  1  0
 16 17  1  0
 17 18  2  0
 18 19  1  0
 19 23  2  0
 23 30  1  0
 30 31  2  0
 31 17  1  0
  1  2  2  0
  2  5  1  0
  5  6  2  0
  6  7  1  0
  7  3  2  0
  3  1  1  0
 10 11  2  0
 11 12  1  0
 12 13  2  0
 13 14  1  0
 14 15  2  0
 15 10  1  0
 20 25  2  0
 25 26  1  0
 26 27  2  0
 27 28  1  0
 28 29  2  0
 29 20  1  0
M  END

$$$$
