No_4422-gen_results/8p0m/2024-11-26-14-13-15/
     RDKit          3D

 17 18  0  0  0  0  0  0  0  0999 V2000
  -28.0162   -0.8135   28.8779 C   0  0  0  0  0  0  0  0  0  0  0  0
  -27.0636   -0.1189   28.6079 C   0  0  0  0  0  0  0  0  0  0  0  0
  -26.9287    1.1713   29.0083 C   0  0  0  0  0  0  0  0  0  0  0  0
  -27.9560    1.7411   29.7840 C   0  0  0  0  0  0  0  0  0  0  0  0
  -29.0569   -0.3271   29.7466 C   0  0  0  0  0  0  0  0  0  0  0  0
  -28.9828    0.9722   30.1516 C   0  0  0  0  0  0  0  0  0  0  0  0
  -25.7249   -0.7275   27.6731 Cl  0  0  0  0  0  0  0  0  0  0  0  0
  -30.0369    1.6979   30.9188 C   0  0  0  0  0  0  0  0  0  0  0  0
  -30.8608    0.9401   31.4026 F   0  0  0  0  0  0  0  0  0  0  0  0
  -29.4437    2.3419   31.9565 F   0  0  0  0  0  0  0  0  0  0  0  0
  -30.5762    2.6064   30.0927 F   0  0  0  0  0  0  0  0  0  0  0  0
  -25.7144    2.0056   28.5594 C   0  0  0  0  0  0  0  0  0  0  0  0
  -25.6307    2.4608   27.2245 C   0  0  0  0  0  0  0  0  0  0  0  0
  -24.4844    2.8405   26.7221 C   0  0  0  0  0  0  0  0  0  0  0  0
  -23.2208    2.6425   27.3303 C   0  0  0  0  0  0  0  0  0  0  0  0
  -23.3473    2.0196   28.6256 C   0  0  0  0  0  0  0  0  0  0  0  0
  -24.5217    1.7486   29.2968 C   0  0  0  0  0  0  0  0  0  0  0  0
  2  7  1  0
  6  8  1  0
  8  9  1  0
  8 10  1  0
  8 11  1  0
  3 12  1  0
 12 13  2  0
 13 14  1  0
 14 15  2  0
 15 16  1  0
 16 17  2  0
 17 12  1  0
  1  2  2  0
  2  3  1  0
  3  4  2  0
  4  6  1  0
  6  5  2  0
  5  1  1  0
M  END

$$$$
