No_4347-gen_results/8p0m/2024-11-26-14-13-15/
     RDKit          3D

 26 30  0  0  0  0  0  0  0  0999 V2000
  -28.0162   -0.8135   28.8779 C   0  0  0  0  0  0  0  0  0  0  0  0
  -27.0636   -0.1190   28.6079 C   0  0  0  0  0  0  0  0  0  0  0  0
  -26.9287    1.1713   29.0083 C   0  0  0  0  0  0  0  0  0  0  0  0
  -27.9560    1.7411   29.7840 C   0  0  0  0  0  0  0  0  0  0  0  0
  -29.0569   -0.3271   29.7466 C   0  0  0  0  0  0  0  0  0  0  0  0
  -28.9828    0.9722   30.1516 C   0  0  0  0  0  0  0  0  0  0  0  0
  -25.9387   -0.8037   27.9016 C   0  0  0  0  0  0  0  0  0  0  0  0
  -24.5478   -0.6130   28.5298 C   0  0  0  0  0  0  0  0  0  0  0  0
  -23.6808    0.2304   28.5360 C   0  0  0  0  0  0  0  0  0  0  0  0
  -23.6859    1.4619   27.7474 C   0  0  0  0  0  0  0  0  0  0  0  0
  -22.9769    1.8801   27.0246 C   0  0  0  0  0  0  0  0  0  0  0  0
  -23.2023    3.0691   26.2215 C   0  0  0  0  0  0  0  0  0  0  0  0
  -24.4966    3.6985   26.3378 C   0  0  0  0  0  0  0  0  0  0  0  0
  -25.3212    3.2253   27.2522 C   0  0  0  0  0  0  0  0  0  0  0  0
  -25.0172    2.1218   27.9729 C   0  0  0  0  0  0  0  0  0  0  0  0
  -25.9698    2.0670   28.5762 N   0  0  0  0  0  0  0  0  0  0  0  0
  -25.6010    2.8661   29.8867 C   0  0  0  0  0  0  0  0  0  0  0  0
  -25.4812    2.5350   31.0629 C   0  0  0  0  0  0  0  0  0  0  0  0
  -25.5473    1.2272   31.5199 C   0  0  0  0  0  0  0  0  0  0  0  0
  -25.5030    0.8628   32.9041 C   0  0  0  0  0  0  0  0  0  0  0  0
  -25.5181   -0.4982   33.2686 C   0  0  0  0  0  0  0  0  0  0  0  0
  -25.6316   -1.4109   32.2143 C   0  0  0  0  0  0  0  0  0  0  0  0
  -25.7387   -1.1559   30.9179 C   0  0  0  0  0  0  0  0  0  0  0  0
  -25.6602    0.1798   30.5783 C   0  0  0  0  0  0  0  0  0  0  0  0
  -24.5012    0.1218   30.0363 O   0  0  0  0  0  0  0  0  0  0  0  0
  -22.2661   -0.1190   28.9175 C   0  0  0  0  0  0  0  0  0  0  0  0
  2  7  1  0
  7  8  1  0
  8  9  2  3
  9 10  1  0
  3 16  1  0
 15 16  1  0
 16 17  1  0
 17 18  2  3
 18 19  1  0
  8 25  1  0
 24 25  1  0
  9 26  1  0
  1  2  2  0
  2  3  1  0
  3  4  2  0
  4  6  1  0
  6  5  2  0
  5  1  1  0
 10 11  2  0
 11 12  1  0
 12 13  2  0
 13 14  1  0
 14 15  2  0
 15 10  1  0
 19 20  2  0
 20 21  1  0
 21 22  2  0
 22 23  1  0
 23 24  2  0
 24 19  1  0
M  END

$$$$
