No_4973-gen_results/8p0m/2024-11-26-14-13-15/
     RDKit          3D

 35 39  0  0  0  0  0  0  0  0999 V2000
  -28.1229   -1.3353   28.4874 O   0  0  0  0  0  0  0  0  0  0  0  0
  -27.4806   -0.4044   28.7094 C   0  0  0  0  0  0  0  0  0  0  0  0
  -26.4599   -0.1104   28.0051 N   0  0  0  0  0  0  0  0  0  0  0  0
  -25.8102    0.6598   28.0792 C   0  0  0  0  0  0  0  0  0  0  0  0
  -24.5746    0.9445   27.2765 C   0  0  0  0  0  0  0  0  0  0  0  0
  -27.8572    0.7437   29.6813 C   0  0  0  0  0  0  0  0  0  0  0  0
  -24.0884    0.4117   26.3678 C   0  0  0  0  0  0  0  0  0  0  0  0
  -27.0383    1.7652   29.8539 C   0  0  0  0  0  0  0  0  0  0  0  0
  -25.8735    1.8747   29.0326 C   0  0  0  0  0  0  0  0  0  0  0  0
  -23.6628    2.1779   27.6702 C   0  0  0  0  0  0  0  0  0  0  0  0
  -22.4075    2.3167   26.9244 C   0  0  0  0  0  0  0  0  0  0  0  0
  -23.2167    0.7963   25.3832 C   0  0  0  0  0  0  0  0  0  0  0  0
  -22.3410    1.8206   25.7491 C   0  0  0  0  0  0  0  0  0  0  0  0
  -29.0652    0.4458   30.4910 C   0  0  0  0  0  0  0  0  0  0  0  0
  -28.9826   -0.1637   31.5931 C   0  0  0  0  0  0  0  0  0  0  0  0
  -30.1639   -0.3730   32.4409 C   0  0  0  0  0  0  0  0  0  0  0  0
  -31.3707    0.0297   31.9436 C   0  0  0  0  0  0  0  0  0  0  0  0
  -31.4225    0.6656   30.7314 C   0  0  0  0  0  0  0  0  0  0  0  0
  -30.2923    0.9210   29.9904 C   0  0  0  0  0  0  0  0  0  0  0  0
  -27.3132    2.8290   30.8473 C   0  0  0  0  0  0  0  0  0  0  0  0
  -26.5022    2.8441   31.8752 C   0  0  0  0  0  0  0  0  0  0  0  0
  -25.2895    2.1872   32.0501 C   0  0  0  0  0  0  0  0  0  0  0  0
  -26.9031    3.8221   32.9856 C   0  0  0  0  0  0  0  0  0  0  0  0
  -26.4526    3.7127   34.2019 C   0  0  0  0  0  0  0  0  0  0  0  0
  -26.8945    4.7192   35.1363 C   0  0  0  0  0  0  0  0  0  0  0  0
  -27.8084    5.6055   34.7920 C   0  0  0  0  0  0  0  0  0  0  0  0
  -27.8599    4.8264   32.7016 C   0  0  0  0  0  0  0  0  0  0  0  0
  -28.3079    5.6919   33.6021 C   0  0  0  0  0  0  0  0  0  0  0  0
  -28.3845    3.6895   30.4718 C   0  0  0  0  0  0  0  0  0  0  0  0
  -28.5531    4.6314   31.3835 C   0  0  0  0  0  0  0  0  0  0  0  0
  -29.7182    5.6439   31.1014 C   0  0  0  0  0  0  0  0  0  0  0  0
  -29.3296    6.8497   30.6636 C   0  0  0  0  0  0  0  0  0  0  0  0
  -28.3862    7.2231   30.1600 C   0  0  0  0  0  0  0  0  0  0  0  0
  -28.0141    8.5752   29.8017 C   0  0  0  0  0  0  0  0  0  0  0  0
  -29.0434    9.4904   29.8796 C   0  0  0  0  0  0  0  0  0  0  0  0
  1  2  2  0
  2  3  1  0
  3  4  1  0
  4  5  1  0
  2  6  1  0
  4  9  1  0
  8  9  1  0
  6 14  1  0
  8 20  1  0
 21 22  1  0
 30 31  1  0
 31 32  1  0
 32 33  1  0
 33 34  2  3
 34 35  1  0
  8  6  1  0
 23 24  2  0
 24 25  1  0
 25 26  2  0
 26 28  1  0
 28 27  2  0
 20 21  2  0
 21 23  1  0
 23 27  1  0
 27 30  1  0
 30 29  2  0
 29 20  1  0
 14 15  2  0
 15 16  1  0
 16 17  2  0
 17 18  1  0
 18 19  2  0
 19 14  1  0
  5  7  2  0
  7 12  1  0
 12 13  2  0
 13 11  1  0
 11 10  2  0
 10  5  1  0
M  END

$$$$
