No_4063-gen_results/8p0m/2024-11-26-14-13-15/
     RDKit          3D

 17 19  0  0  0  0  0  0  0  0999 V2000
  -28.0162   -0.8135   28.8779 C   0  0  0  0  0  0  0  0  0  0  0  0
  -28.4690   -0.7850   29.8287 C   0  0  0  0  0  0  0  0  0  0  0  0
  -28.1960    0.3478   28.0550 C   0  0  0  0  0  0  0  0  0  0  0  0
  -27.4421    0.5100   26.7946 C   0  0  0  0  0  0  0  0  0  0  0  0
  -26.1689   -0.0794   26.6787 C   0  0  0  0  0  0  0  0  0  0  0  0
  -25.7312   -0.9607   27.6875 C   0  0  0  0  0  0  0  0  0  0  0  0
  -26.5043   -1.2222   28.7582 C   0  0  0  0  0  0  0  0  0  0  0  0
  -29.5802   -0.2435   30.2170 C   0  0  0  0  0  0  0  0  0  0  0  0
  -30.0568    0.7240   29.3104 C   0  0  0  0  0  0  0  0  0  0  0  0
  -29.3596    1.0530   28.1223 C   0  0  0  0  0  0  0  0  0  0  0  0
  -29.8113    2.0045   27.1772 C   0  0  0  0  0  0  0  0  0  0  0  0
  -27.7294    1.4311   25.7446 C   0  0  0  0  0  0  0  0  0  0  0  0
  -27.1615    1.6927   24.7206 C   0  0  0  0  0  0  0  0  0  0  0  0
  -29.0724    2.1801   26.1062 C   0  0  0  0  0  0  0  0  0  0  0  0
  -26.0759   -2.2622   29.7233 C   0  0  0  0  0  0  0  0  0  0  0  0
  -24.7176   -2.3425   29.8632 C   0  0  0  0  0  0  0  0  0  0  0  0
  -26.7747   -3.5958   29.5148 C   0  0  0  0  0  0  0  0  0  0  0  0
  4  5  1  0
  5  6  1  0
  1  7  1  0
  6  7  1  0
 12 13  1  0
  7 15  1  0
 15 16  1  0
 15 17  1  0
  3  4  2  0
  4 12  1  0
 12 14  2  0
 14 11  1  0
 11 10  2  0
  1  2  2  0
  2  8  1  0
  8  9  2  0
  9 10  1  0
 10  3  1  0
  3  1  1  0
M  END

$$$$
