No_4594-gen_results/8p0m/2024-11-26-14-13-15/
     RDKit          3D

 26 27  0  0  0  0  0  0  0  0999 V2000
  -28.0162   -0.8135   28.8779 C   0  0  0  0  0  0  0  0  0  0  0  0
  -27.0636   -0.1189   28.6079 C   0  0  0  0  0  0  0  0  0  0  0  0
  -26.9716    0.7139   27.5060 C   0  0  0  0  0  0  0  0  0  0  0  0
  -25.8205    1.4909   27.1160 C   0  0  0  0  0  0  0  0  0  0  0  0
  -24.6562    1.4242   27.9180 C   0  0  0  0  0  0  0  0  0  0  0  0
  -24.6847    0.5901   29.0659 C   0  0  0  0  0  0  0  0  0  0  0  0
  -25.8099   -0.1265   29.3338 C   0  0  0  0  0  0  0  0  0  0  0  0
  -28.6943   -0.4734   30.1587 C   0  0  0  0  0  0  0  0  0  0  0  0
  -29.7865   -1.3251   30.6371 C   0  0  0  0  0  0  0  0  0  0  0  0
  -23.4524    2.1889   27.6083 C   0  0  0  0  0  0  0  0  0  0  0  0
  -22.7872    2.4955   28.6308 F   0  0  0  0  0  0  0  0  0  0  0  0
  -23.7148    3.2595   26.9263 F   0  0  0  0  0  0  0  0  0  0  0  0
  -22.5907    1.4225   26.7802 F   0  0  0  0  0  0  0  0  0  0  0  0
  -28.3493    0.5038   30.8986 O   0  0  0  0  0  0  0  0  0  0  0  0
  -30.5487   -0.8630   31.6103 Cl  0  0  0  0  0  0  0  0  0  0  0  0
  -29.9310   -2.3556   29.9692 F   0  0  0  0  0  0  0  0  0  0  0  0
  -28.1172    0.8950   26.5998 C   0  0  0  0  0  0  0  0  0  0  0  0
  -29.0749    1.4527   26.9351 O   0  0  0  0  0  0  0  0  0  0  0  0
  -28.0826    0.3328   25.3789 N   0  0  0  0  0  0  0  0  0  0  0  0
  -29.1512    0.2958   24.4253 C   0  0  0  0  0  0  0  0  0  0  0  0
  -26.8216    0.1237   24.6355 C   0  0  0  0  0  0  0  0  0  0  0  0
  -30.2945   -0.2127   24.9363 C   0  0  0  0  0  0  0  0  0  0  0  0
  -31.4401   -0.2394   24.1793 C   0  0  0  0  0  0  0  0  0  0  0  0
  -31.4505    0.4768   22.9539 C   0  0  0  0  0  0  0  0  0  0  0  0
  -30.3456    1.2161   22.6383 C   0  0  0  0  0  0  0  0  0  0  0  0
  -29.1526    1.1802   23.3918 C   0  0  0  0  0  0  0  0  0  0  0  0
  1  8  1  0
  8  9  1  0
  5 10  1  0
 10 11  1  0
 10 12  1  0
 10 13  1  0
  8 14  2  0
  9 15  1  0
  9 16  1  0
  3 17  1  0
 17 18  2  0
 17 19  1  0
 19 20  1  0
 19 21  1  0
  1  2  1  0
  2  3  2  0
  3  4  1  0
  4  5  2  0
  5  6  1  0
  6  7  2  0
  7  2  1  0
 20 22  2  0
 22 23  1  0
 23 24  2  0
 24 25  1  0
 25 26  2  0
 26 20  1  0
M  END

$$$$
