No_4613-gen_results/8p0m/2024-11-26-14-13-15/
     RDKit          3D

 14 15  0  0  0  0  0  0  0  0999 V2000
  -28.0162   -0.8135   28.8779 C   0  0  0  0  0  0  0  0  0  0  0  0
  -27.0636   -0.1190   28.6079 C   0  0  0  0  0  0  0  0  0  0  0  0
  -26.9716    0.7139   27.5060 C   0  0  0  0  0  0  0  0  0  0  0  0
  -25.8205    1.4909   27.1160 C   0  0  0  0  0  0  0  0  0  0  0  0
  -24.8579    1.3421   27.6008 C   0  0  0  0  0  0  0  0  0  0  0  0
  -24.6224    0.5295   28.8144 C   0  0  0  0  0  0  0  0  0  0  0  0
  -23.3412    0.3976   29.5010 C   0  0  0  0  0  0  0  0  0  0  0  0
  -25.7444   -0.2202   29.2289 C   0  0  0  0  0  0  0  0  0  0  0  0
  -22.1653    0.5045   28.7887 C   0  0  0  0  0  0  0  0  0  0  0  0
  -29.2104   -0.1858   29.0240 N   0  0  0  0  0  0  0  0  0  0  0  0
  -22.0607    1.4876   27.7760 C   0  0  0  0  0  0  0  0  0  0  0  0
  -23.2989    1.7204   26.9769 C   0  0  0  0  0  0  0  0  0  0  0  0
  -29.5719    0.7421   28.4141 C   0  0  0  0  0  0  0  0  0  0  0  0
  -30.8648    1.3463   28.4316 C   0  0  0  0  0  0  0  0  0  0  0  0
  1  2  2  3
  2  3  1  0
  3  4  1  0
  4  5  1  0
  2  8  1  0
  6  8  1  0
  1 10  1  0
 10 13  1  0
 13 14  2  0
  5  6  2  0
  6  7  1  0
  7  9  2  0
  9 11  1  0
 11 12  2  0
 12  5  1  0
M  END

$$$$
