No_4359-gen_results/8p0m/2024-11-26-14-13-15/
     RDKit          3D

 19 20  0  0  0  0  0  0  0  0999 V2000
  -28.0162   -0.8135   28.8779 C   0  0  0  0  0  0  0  0  0  0  0  0
  -28.4690   -0.7850   29.8287 C   0  0  0  0  0  0  0  0  0  0  0  0
  -26.5042   -0.7777   28.8766 C   0  0  0  0  0  0  0  0  0  0  0  0
  -25.6540   -0.6597   27.7191 C   0  0  0  0  0  0  0  0  0  0  0  0
  -27.9180   -0.9374   31.1824 C   0  0  0  0  0  0  0  0  0  0  0  0
  -26.5423   -0.9399   31.2606 C   0  0  0  0  0  0  0  0  0  0  0  0
  -25.7832   -0.8935   30.1201 C   0  0  0  0  0  0  0  0  0  0  0  0
  -25.2134    0.6923   27.3830 C   0  0  0  0  0  0  0  0  0  0  0  0
  -25.8817    1.6334   27.4301 C   0  0  0  0  0  0  0  0  0  0  0  0
  -25.3068    2.9659   27.1011 C   0  0  0  0  0  0  0  0  0  0  0  0
  -23.9644    3.0790   26.7144 C   0  0  0  0  0  0  0  0  0  0  0  0
  -23.7686    0.8240   27.0703 C   0  0  0  0  0  0  0  0  0  0  0  0
  -23.2207    2.0137   26.7255 C   0  0  0  0  0  0  0  0  0  0  0  0
  -30.2719   -0.8102   29.8400 Cl  0  0  0  0  0  0  0  0  0  0  0  0
  -24.3621   -0.9005   30.2269 C   0  0  0  0  0  0  0  0  0  0  0  0
  -23.5497    0.2414   30.2125 C   0  0  0  0  0  0  0  0  0  0  0  0
  -22.1721    0.2397   30.1325 C   0  0  0  0  0  0  0  0  0  0  0  0
  -24.1507    1.6264   30.4246 C   0  0  0  0  0  0  0  0  0  0  0  0
  -23.7109   -2.1781   30.1681 C   0  0  0  0  0  0  0  0  0  0  0  0
  3  4  1  0
  4  8  1  0
  2 14  1  0
  7 15  1  0
 15 16  1  0
 16 17  2  0
 16 18  1  0
 15 19  1  0
  1  2  2  0
  2  5  1  0
  5  6  2  0
  6  7  1  0
  7  3  2  0
  3  1  1  0
  8  9  2  0
  9 10  1  0
 10 11  2  0
 11 13  1  0
 13 12  2  0
 12  8  1  0
M  END

$$$$
