No_4160-gen_results/8p0m/2024-11-26-14-13-15/
     RDKit          3D

 22 23  0  0  0  0  0  0  0  0999 V2000
  -28.1229   -1.3353   28.4874 O   0  0  0  0  0  0  0  0  0  0  0  0
  -27.4806   -0.4044   28.7094 C   0  0  0  0  0  0  0  0  0  0  0  0
  -27.1904    0.2460   29.5268 C   0  0  0  0  0  0  0  0  0  0  0  0
  -26.7333   -0.0753   27.4606 O   0  0  0  0  0  0  0  0  0  0  0  0
  -27.6654    0.3258   30.7875 C   0  0  0  0  0  0  0  0  0  0  0  0
  -28.8289   -0.3455   31.0239 C   0  0  0  0  0  0  0  0  0  0  0  0
  -30.0540   -0.0269   30.8179 C   0  0  0  0  0  0  0  0  0  0  0  0
  -30.2903    1.3265   30.8030 C   0  0  0  0  0  0  0  0  0  0  0  0
  -31.6460    1.6741   30.5905 C   0  0  0  0  0  0  0  0  0  0  0  0
  -32.5728    0.7068   30.2841 C   0  0  0  0  0  0  0  0  0  0  0  0
  -32.2711   -0.6173   30.2591 C   0  0  0  0  0  0  0  0  0  0  0  0
  -31.0062   -1.0259   30.5563 C   0  0  0  0  0  0  0  0  0  0  0  0
  -26.5658    1.2338   27.2252 C   0  0  0  0  0  0  0  0  0  0  0  0
  -25.7250    1.5145   26.6293 C   0  0  0  0  0  0  0  0  0  0  0  0
  -24.6668    1.9183   26.8018 C   0  0  0  0  0  0  0  0  0  0  0  0
  -23.5893    2.4430   25.8314 C   0  0  0  0  0  0  0  0  0  0  0  0
  -22.8740    2.1308   25.1764 C   0  0  0  0  0  0  0  0  0  0  0  0
  -25.5384    0.6428   25.2976 C   0  0  0  0  0  0  0  0  0  0  0  0
  -23.5767    1.1262   24.1885 C   0  0  0  0  0  0  0  0  0  0  0  0
  -24.6951    0.4436   24.3867 C   0  0  0  0  0  0  0  0  0  0  0  0
  -28.6556   -1.0722   32.4456 C   0  0  0  0  0  0  0  0  0  0  0  0
  -24.4344    2.3960   28.0563 F   0  0  0  0  0  0  0  0  0  0  0  0
  1  2  2  0
  2  3  1  0
  2  4  1  0
  3  5  1  0
  5  6  1  0
  6  7  1  0
  4 13  1  0
 13 14  2  3
 14 15  1  0
 15 16  2  0
 16 17  1  0
 14 18  1  0
 17 19  2  0
 18 20  1  0
 19 20  1  0
  6 21  1  0
 15 22  1  0
  7  8  2  0
  8  9  1  0
  9 10  2  0
 10 11  1  0
 11 12  2  0
 12  7  1  0
M  END

$$$$
