No_4311-gen_results/8p0m/2024-11-26-14-13-15/
     RDKit          3D

 14 14  0  0  0  0  0  0  0  0999 V2000
  -28.0727   -1.2542   28.5316 F   0  0  0  0  0  0  0  0  0  0  0  0
  -27.0607   -0.6291   28.8721 C   0  0  0  0  0  0  0  0  0  0  0  0
  -26.3579   -0.0711   28.0115 C   0  0  0  0  0  0  0  0  0  0  0  0
  -25.0715    0.5531   28.2555 C   0  0  0  0  0  0  0  0  0  0  0  0
  -24.5772    0.4803   29.5696 C   0  0  0  0  0  0  0  0  0  0  0  0
  -23.3007    1.0341   29.9660 C   0  0  0  0  0  0  0  0  0  0  0  0
  -25.3483   -0.2115   30.5373 C   0  0  0  0  0  0  0  0  0  0  0  0
  -26.5435   -0.8197   30.2149 C   0  0  0  0  0  0  0  0  0  0  0  0
  -22.2883    0.9077   29.5111 O   0  0  0  0  0  0  0  0  0  0  0  0
  -23.4078    1.9432   30.9439 O   0  0  0  0  0  0  0  0  0  0  0  0
  -26.7294    0.0831   26.5753 C   0  0  0  0  0  0  0  0  0  0  0  0
  -27.2713    1.1622   26.3932 F   0  0  0  0  0  0  0  0  0  0  0  0
  -27.5835   -0.8730   26.2333 F   0  0  0  0  0  0  0  0  0  0  0  0
  -25.6680   -0.0626   25.7132 F   0  0  0  0  0  0  0  0  0  0  0  0
  1  2  1  0
  5  6  1  0
  6  9  1  0
  6 10  2  0
  3 11  1  0
 11 12  1  0
 11 13  1  0
 11 14  1  0
  2  3  2  0
  3  4  1  0
  4  5  2  0
  5  7  1  0
  7  8  2  0
  8  2  1  0
M  END

$$$$
