No_442-gen_results/8p0m/2024-11-26-14-13-15/
     RDKit          3D

 25 28  0  0  0  0  0  0  0  0999 V2000
  -28.1229   -1.3353   28.4874 O   0  0  0  0  0  0  0  0  0  0  0  0
  -27.4806   -0.4044   28.7094 C   0  0  0  0  0  0  0  0  0  0  0  0
  -26.4599   -0.1104   28.0051 N   0  0  0  0  0  0  0  0  0  0  0  0
  -25.4297    0.8788   28.3572 C   0  0  0  0  0  0  0  0  0  0  0  0
  -24.3600    1.0559   27.5650 C   0  0  0  0  0  0  0  0  0  0  0  0
  -27.7374    0.5007   29.9644 C   0  0  0  0  0  0  0  0  0  0  0  0
  -24.3412    1.6188   26.4311 C   0  0  0  0  0  0  0  0  0  0  0  0
  -23.1172    1.8808   25.6302 C   0  0  0  0  0  0  0  0  0  0  0  0
  -21.9235    1.8536   26.3939 C   0  0  0  0  0  0  0  0  0  0  0  0
  -21.8923    1.4272   27.7108 C   0  0  0  0  0  0  0  0  0  0  0  0
  -23.0562    1.1491   28.3359 C   0  0  0  0  0  0  0  0  0  0  0  0
  -25.6710    1.5334   29.6016 C   0  0  0  0  0  0  0  0  0  0  0  0
  -26.8040    1.3815   30.3989 C   0  0  0  0  0  0  0  0  0  0  0  0
  -24.6436    2.5521   30.0527 C   0  0  0  0  0  0  0  0  0  0  0  0
  -23.3145    2.2678   29.6354 O   0  0  0  0  0  0  0  0  0  0  0  0
  -22.8036   -0.2370   28.9933 C   0  0  0  0  0  0  0  0  0  0  0  0
  -23.4636   -1.1143   29.0670 O   0  0  0  0  0  0  0  0  0  0  0  0
  -21.4965   -0.3384   29.6234 N   0  0  0  0  0  0  0  0  0  0  0  0
  -24.7696    3.6841   30.3311 O   0  0  0  0  0  0  0  0  0  0  0  0
  -28.9056    0.1214   30.7346 C   0  0  0  0  0  0  0  0  0  0  0  0
  -28.7425   -0.5787   31.7965 C   0  0  0  0  0  0  0  0  0  0  0  0
  -29.9012   -0.8881   32.6667 C   0  0  0  0  0  0  0  0  0  0  0  0
  -31.1290   -0.5747   32.2128 C   0  0  0  0  0  0  0  0  0  0  0  0
  -30.1615    0.4866   30.2408 C   0  0  0  0  0  0  0  0  0  0  0  0
  -31.2906    0.1833   31.0215 C   0  0  0  0  0  0  0  0  0  0  0  0
  1  2  2  0
  2  3  1  0
  3  4  1  0
  4  5  1  0
  2  6  1  0
  7  8  1  0
  9 10  1  0
  5 11  1  0
 10 11  1  0
  4 12  1  0
 12 13  1  0
 12 14  1  0
 11 15  1  0
 14 15  1  0
 11 16  1  0
 16 17  2  0
 16 18  1  0
 14 19  2  0
  6 20  1  0
  5  7  1  0
  8  9  1  0
 13  6  1  0
 20 21  2  0
 21 22  1  0
 22 23  2  0
 23 25  1  0
 25 24  2  0
 24 20  1  0
M  END

$$$$
