No_4876-gen_results/8p0m/2024-11-26-14-13-15/
     RDKit          3D

 35 36  0  0  0  0  0  0  0  0999 V2000
  -28.0162   -0.8135   28.8779 C   0  0  0  0  0  0  0  0  0  0  0  0
  -27.0636   -0.1189   28.6079 C   0  0  0  0  0  0  0  0  0  0  0  0
  -26.9287    1.1713   29.0083 C   0  0  0  0  0  0  0  0  0  0  0  0
  -25.7702    2.0341   28.6884 C   0  0  0  0  0  0  0  0  0  0  0  0
  -24.7141    1.4431   27.9188 C   0  0  0  0  0  0  0  0  0  0  0  0
  -24.8590    0.0783   27.5836 C   0  0  0  0  0  0  0  0  0  0  0  0
  -25.9647   -0.6606   27.9164 C   0  0  0  0  0  0  0  0  0  0  0  0
  -28.4941   -0.3233   30.1835 F   0  0  0  0  0  0  0  0  0  0  0  0
  -23.5289    2.1577   27.5490 C   0  0  0  0  0  0  0  0  0  0  0  0
  -22.3673    2.1841   27.9047 N   0  0  0  0  0  0  0  0  0  0  0  0
  -23.7666    2.8880   26.4306 F   0  0  0  0  0  0  0  0  0  0  0  0
  -28.4437   -1.8472   28.5409 F   0  0  0  0  0  0  0  0  0  0  0  0
  -21.9908    1.2786   28.9005 C   0  0  0  0  0  0  0  0  0  0  0  0
  -25.6963    3.1824   28.6731 F   0  0  0  0  0  0  0  0  0  0  0  0
  -20.9481    0.2760   28.4798 C   0  0  0  0  0  0  0  0  0  0  0  0
  -21.4228   -0.8221   28.3995 O   0  0  0  0  0  0  0  0  0  0  0  0
  -21.9298   -1.2618   29.7502 C   0  0  0  0  0  0  0  0  0  0  0  0
  -23.3585   -0.7874   29.8809 C   0  0  0  0  0  0  0  0  0  0  0  0
  -23.7868   -0.9542   30.7932 O   0  0  0  0  0  0  0  0  0  0  0  0
  -25.1839   -0.5833   31.1268 C   0  0  0  0  0  0  0  0  0  0  0  0
  -25.5041   -0.1391   32.2498 C   0  0  0  0  0  0  0  0  0  0  0  0
  -24.9337    0.9024   32.6652 C   0  0  0  0  0  0  0  0  0  0  0  0
  -25.7914    2.0591   32.9460 C   0  0  0  0  0  0  0  0  0  0  0  0
  -26.9872    1.9108   33.6874 C   0  0  0  0  0  0  0  0  0  0  0  0
  -27.8092    2.9150   33.9621 C   0  0  0  0  0  0  0  0  0  0  0  0
  -27.4527    4.2470   33.5527 C   0  0  0  0  0  0  0  0  0  0  0  0
  -26.2435    4.4758   32.8534 C   0  0  0  0  0  0  0  0  0  0  0  0
  -25.4272    3.4211   32.6362 C   0  0  0  0  0  0  0  0  0  0  0  0
  -25.8724   -1.9862   30.9529 O   0  0  0  0  0  0  0  0  0  0  0  0
  -25.8604    5.8658   32.4957 C   0  0  0  0  0  0  0  0  0  0  0  0
  -26.3322    6.7160   32.8767 O   0  0  0  0  0  0  0  0  0  0  0  0
  -24.7876    5.8622   31.6828 O   0  0  0  0  0  0  0  0  0  0  0  0
  -29.1055    2.7554   34.6389 C   0  0  0  0  0  0  0  0  0  0  0  0
  -29.5545    1.8058   34.8493 O   0  0  0  0  0  0  0  0  0  0  0  0
  -29.7497    3.9614   35.0068 N   0  0  0  0  0  0  0  0  0  0  0  0
  1  2  1  0
  1  8  1  0
  5  9  1  0
  9 10  1  0
  9 11  1  0
  1 12  1  0
 10 13  1  0
  4 14  1  0
 13 15  1  0
 15 16  1  0
 16 17  1  0
 17 18  1  0
 18 19  1  0
 19 20  1  0
 20 21  1  0
 21 22  2  3
 22 23  1  0
 20 29  1  0
 27 30  1  0
 30 31  2  0
 30 32  1  0
 25 33  1  0
 33 34  2  0
 33 35  1  0
  2  3  2  0
  3  4  1  0
  4  5  2  0
  5  6  1  0
  6  7  2  0
  7  2  1  0
 23 24  2  0
 24 25  1  0
 25 26  2  0
 26 27  1  0
 27 28  2  0
 28 23  1  0
M  END

$$$$
