No_491-gen_results/8p0m/2024-11-26-14-13-15/
     RDKit          3D

 19 20  0  0  0  0  0  0  0  0999 V2000
  -28.0162   -0.8135   28.8779 C   0  0  0  0  0  0  0  0  0  0  0  0
  -28.4690   -0.7850   29.8287 C   0  0  0  0  0  0  0  0  0  0  0  0
  -28.1960    0.3478   28.0550 C   0  0  0  0  0  0  0  0  0  0  0  0
  -29.0191    1.3501   28.3782 C   0  0  0  0  0  0  0  0  0  0  0  0
  -29.4107    0.1803   30.3782 C   0  0  0  0  0  0  0  0  0  0  0  0
  -29.6059    1.2495   29.6193 C   0  0  0  0  0  0  0  0  0  0  0  0
  -27.5345    0.3378   26.8475 F   0  0  0  0  0  0  0  0  0  0  0  0
  -29.9520   -0.1556   31.9906 Cl  0  0  0  0  0  0  0  0  0  0  0  0
  -30.4739    2.2231   30.0628 O   0  0  0  0  0  0  0  0  0  0  0  0
  -31.4004    2.5794   29.5308 C   0  0  0  0  0  0  0  0  0  0  0  0
  -32.5050    2.5531   30.0824 C   0  0  0  0  0  0  0  0  0  0  0  0
  -33.7568    2.9868   29.3695 C   0  0  0  0  0  0  0  0  0  0  0  0
  -33.5941    3.4823   28.0674 C   0  0  0  0  0  0  0  0  0  0  0  0
  -32.3622    3.5399   27.4811 C   0  0  0  0  0  0  0  0  0  0  0  0
  -31.2623    3.1423   28.1469 C   0  0  0  0  0  0  0  0  0  0  0  0
  -35.2567    2.9875   30.1039 Cl  0  0  0  0  0  0  0  0  0  0  0  0
  -28.2008   -2.2601   30.9858 Cl  0  0  0  0  0  0  0  0  0  0  0  0
  -34.6692    3.9463   27.4990 F   0  0  0  0  0  0  0  0  0  0  0  0
  -32.7527    1.9458   31.6537 Cl  0  0  0  0  0  0  0  0  0  0  0  0
  3  7  1  0
  5  8  1  0
  6  9  1  0
  9 10  1  0
 12 16  1  0
  2 17  1  0
 13 18  1  0
 11 19  1  0
  1  2  2  0
  2  5  1  0
  5  6  2  0
  6  4  1  0
  4  3  2  0
  3  1  1  0
 10 11  2  0
 11 12  1  0
 12 13  2  0
 13 14  1  0
 14 15  2  0
 15 10  1  0
M  END

$$$$
