No_4495-gen_results/8p0m/2024-11-26-14-13-15/
     RDKit          3D

 32 35  0  0  0  0  0  0  0  0999 V2000
  -28.0162   -0.8135   28.8779 C   0  0  0  0  0  0  0  0  0  0  0  0
  -27.0636   -0.1190   28.6079 C   0  0  0  0  0  0  0  0  0  0  0  0
  -25.7647   -0.3897   29.0360 C   0  0  0  0  0  0  0  0  0  0  0  0
  -25.5296   -1.5303   29.9014 C   0  0  0  0  0  0  0  0  0  0  0  0
  -26.6577   -2.2915   30.2035 C   0  0  0  0  0  0  0  0  0  0  0  0
  -27.8548   -1.9555   29.7630 C   0  0  0  0  0  0  0  0  0  0  0  0
  -24.5441    0.4126   28.7379 C   0  0  0  0  0  0  0  0  0  0  0  0
  -24.4731    1.2064   27.7114 C   0  0  0  0  0  0  0  0  0  0  0  0
  -23.2632    1.9110   27.3928 C   0  0  0  0  0  0  0  0  0  0  0  0
  -22.0960    1.7116   28.0459 C   0  0  0  0  0  0  0  0  0  0  0  0
  -23.3012    0.1559   29.4817 C   0  0  0  0  0  0  0  0  0  0  0  0
  -22.1018    0.8312   29.1085 C   0  0  0  0  0  0  0  0  0  0  0  0
  -29.0138   -2.7978   30.1831 C   0  0  0  0  0  0  0  0  0  0  0  0
  -30.0593   -2.4866   29.9938 O   0  0  0  0  0  0  0  0  0  0  0  0
  -28.6847   -3.9823   30.8357 N   0  0  0  0  0  0  0  0  0  0  0  0
  -29.7172   -4.9479   31.2191 C   0  0  0  0  0  0  0  0  0  0  0  0
  -30.5946   -5.3211   30.2840 C   0  0  0  0  0  0  0  0  0  0  0  0
  -31.3489   -6.4283   30.5190 C   0  0  0  0  0  0  0  0  0  0  0  0
  -31.1911   -7.1758   31.7299 C   0  0  0  0  0  0  0  0  0  0  0  0
  -30.2399   -6.7483   32.6745 C   0  0  0  0  0  0  0  0  0  0  0  0
  -29.4203   -5.6713   32.3979 C   0  0  0  0  0  0  0  0  0  0  0  0
  -23.3185    2.7790   26.3494 F   0  0  0  0  0  0  0  0  0  0  0  0
  -32.3507   -6.8718   29.5393 C   0  0  0  0  0  0  0  0  0  0  0  0
  -33.2931   -6.0171   29.1781 C   0  0  0  0  0  0  0  0  0  0  0  0
  -34.1125   -6.3190   28.0944 C   0  0  0  0  0  0  0  0  0  0  0  0
  -32.2230   -8.0929   28.8920 C   0  0  0  0  0  0  0  0  0  0  0  0
  -33.0370   -8.4720   27.8321 C   0  0  0  0  0  0  0  0  0  0  0  0
  -34.0168   -7.5402   27.4635 C   0  0  0  0  0  0  0  0  0  0  0  0
  -34.8424   -7.8957   26.4929 F   0  0  0  0  0  0  0  0  0  0  0  0
  -32.9049   -9.7526   27.1606 C   0  0  0  0  0  0  0  0  0  0  0  0
  -31.8145  -10.3333   27.3716 C   0  0  0  0  0  0  0  0  0  0  0  0
  -30.9523  -10.1228   28.5655 C   0  0  0  0  0  0  0  0  0  0  0  0
  3  7  1  0
  6 13  1  0
 13 14  2  0
 13 15  1  0
 15 16  1  0
  9 22  1  0
 18 23  1  0
 28 29  1  0
 27 30  1  0
 30 31  2  3
 31 32  1  0
  7  8  2  0
  8  9  1  0
  9 10  2  0
 10 12  1  0
 12 11  2  0
 11  7  1  0
  1  2  2  0
  2  3  1  0
  3  4  2  0
  4  5  1  0
  5  6  2  0
  6  1  1  0
 23 24  2  0
 24 25  1  0
 25 28  2  0
 28 27  1  0
 27 26  2  0
 26 23  1  0
 16 17  2  0
 17 18  1  0
 18 19  2  0
 19 20  1  0
 20 21  2  0
 21 16  1  0
M  END

$$$$
