No_4343-gen_results/8p0m/2024-11-26-14-13-15/
     RDKit          3D

 14 14  0  0  0  0  0  0  0  0999 V2000
  -28.0162   -0.8135   28.8779 C   0  0  0  0  0  0  0  0  0  0  0  0
  -28.4690   -0.7850   29.8287 C   0  0  0  0  0  0  0  0  0  0  0  0
  -28.2734    0.1702   27.9725 N   0  0  0  0  0  0  0  0  0  0  0  0
  -27.5323    0.3782   26.8151 C   0  0  0  0  0  0  0  0  0  0  0  0
  -26.4523    1.2057   26.7860 C   0  0  0  0  0  0  0  0  0  0  0  0
  -25.4319    1.1920   25.7933 C   0  0  0  0  0  0  0  0  0  0  0  0
  -25.7497    0.3122   24.7136 C   0  0  0  0  0  0  0  0  0  0  0  0
  -26.8388   -0.4625   24.7351 C   0  0  0  0  0  0  0  0  0  0  0  0
  -27.6464   -0.4577   25.7576 C   0  0  0  0  0  0  0  0  0  0  0  0
  -29.4519    0.8510   28.0591 C   0  0  0  0  0  0  0  0  0  0  0  0
  -29.8868    1.7558   27.1173 C   0  0  0  0  0  0  0  0  0  0  0  0
  -30.2345    0.7702   29.2434 C   0  0  0  0  0  0  0  0  0  0  0  0
  -29.7373   -0.2350   30.2390 C   0  0  0  0  0  0  0  0  0  0  0  0
  -31.3876    1.4966   29.4650 C   0  0  0  0  0  0  0  0  0  0  0  0
  1  2  2  3
  1  3  1  0
  3  4  1  0
  3 10  1  0
 10 11  1  0
 10 12  1  0
  2 13  1  0
 12 14  1  0
  4  5  2  0
  5  6  1  0
  6  7  2  0
  7  8  1  0
  8  9  2  0
  9  4  1  0
M  END

$$$$
