No_4798-gen_results/8p0m/2024-11-26-14-13-15/
     RDKit          3D

 23 25  0  0  0  0  0  0  0  0999 V2000
  -28.0162   -0.8135   28.8779 C   0  0  0  0  0  0  0  0  0  0  0  0
  -27.0636   -0.1189   28.6079 C   0  0  0  0  0  0  0  0  0  0  0  0
  -25.7923   -0.4302   29.0761 C   0  0  0  0  0  0  0  0  0  0  0  0
  -24.5456    0.3494   28.8225 C   0  0  0  0  0  0  0  0  0  0  0  0
  -23.2409    0.0217   29.3323 C   0  0  0  0  0  0  0  0  0  0  0  0
  -27.8820   -1.8995   29.8633 C   0  0  0  0  0  0  0  0  0  0  0  0
  -26.6706   -2.3272   30.3212 C   0  0  0  0  0  0  0  0  0  0  0  0
  -25.5433   -1.5852   29.9316 C   0  0  0  0  0  0  0  0  0  0  0  0
  -22.1918    0.8302   29.0004 C   0  0  0  0  0  0  0  0  0  0  0  0
  -22.1472    1.7783   28.0287 C   0  0  0  0  0  0  0  0  0  0  0  0
  -24.3170    1.1382   27.6172 C   0  0  0  0  0  0  0  0  0  0  0  0
  -23.2808    1.9246   27.3468 C   0  0  0  0  0  0  0  0  0  0  0  0
  -29.0712   -2.7146   30.3011 C   0  0  0  0  0  0  0  0  0  0  0  0
  -30.1328   -2.3214   30.1750 O   0  0  0  0  0  0  0  0  0  0  0  0
  -28.7771   -3.9191   30.9038 N   0  0  0  0  0  0  0  0  0  0  0  0
  -29.8392   -4.8304   31.2786 C   0  0  0  0  0  0  0  0  0  0  0  0
  -23.3767    2.8029   26.3086 O   0  0  0  0  0  0  0  0  0  0  0  0
  -29.5783   -5.4551   32.4350 C   0  0  0  0  0  0  0  0  0  0  0  0
  -30.3834   -6.7229   32.4699 C   0  0  0  0  0  0  0  0  0  0  0  0
  -30.9104   -7.1098   31.2576 C   0  0  0  0  0  0  0  0  0  0  0  0
  -29.9904   -5.9681   30.2461 C   0  0  0  0  0  0  0  0  0  0  0  0
  -29.8197   -4.7268   33.5969 O   0  0  0  0  0  0  0  0  0  0  0  0
  -29.6765   -7.8397   33.0274 F   0  0  0  0  0  0  0  0  0  0  0  0
  3  4  1  0
  6 13  1  0
 13 14  2  0
 13 15  1  0
 15 16  1  0
 12 17  1  0
 16 18  1  0
 18 19  1  0
 19 20  2  0
 16 21  1  0
 20 21  1  0
 18 22  1  0
 19 23  1  0
  1  2  2  0
  2  3  1  0
  3  8  2  0
  8  7  1  0
  7  6  2  0
  6  1  1  0
  4  5  2  0
  5  9  1  0
  9 10  2  0
 10 12  1  0
 12 11  2  0
 11  4  1  0
M  END

$$$$
