No_496-gen_results/8p0m/2024-11-26-14-13-15/
     RDKit          3D

 14 14  0  0  0  0  0  0  0  0999 V2000
  -28.0162   -0.8135   28.8779 C   0  0  0  0  0  0  0  0  0  0  0  0
  -28.4690   -0.7850   29.8287 C   0  0  0  0  0  0  0  0  0  0  0  0
  -27.0871    0.2903   28.6377 C   0  0  0  0  0  0  0  0  0  0  0  0
  -26.0238    0.3644   29.2526 C   0  0  0  0  0  0  0  0  0  0  0  0
  -26.2460    0.4334   30.7986 C   0  0  0  0  0  0  0  0  0  0  0  0
  -28.1805   -0.0692   30.9083 C   0  0  0  0  0  0  0  0  0  0  0  0
  -26.8312    0.1207   31.9725 C   0  0  0  0  0  0  0  0  0  0  0  0
  -24.8947    1.0131   31.3411 C   0  0  0  0  0  0  0  0  0  0  0  0
  -24.9139    1.2073   32.4492 F   0  0  0  0  0  0  0  0  0  0  0  0
  -23.7949    0.2415   30.9626 F   0  0  0  0  0  0  0  0  0  0  0  0
  -24.6910    2.2612   30.6526 F   0  0  0  0  0  0  0  0  0  0  0  0
  -25.9944    0.3161   29.7121 Br  0  0  0  0  0  0  0  0  0  0  0  0
  -27.3570    0.8774   27.2563 C   0  0  0  0  0  0  0  0  0  0  0  0
  -28.5457    1.2666   26.8407 C   0  0  0  0  0  0  0  0  0  0  0  0
  1  2  1  0
  1  3  1  0
  3  4  1  0
  4  5  1  0
  2  6  2  0
  5  7  1  0
  6  7  1  0
  5  8  1  0
  8  9  1  0
  8 10  1  0
  8 11  1  0
  4 12  1  0
  3 13  1  0
 13 14  2  0
M  END

$$$$
