No_4351-gen_results/8p0m/2024-11-26-14-13-15/
     RDKit          3D

 24 27  0  0  0  0  0  0  0  0999 V2000
  -28.0162   -0.8135   28.8779 C   0  0  0  0  0  0  0  0  0  0  0  0
  -27.0636   -0.1190   28.6079 C   0  0  0  0  0  0  0  0  0  0  0  0
  -26.8756    1.1325   28.9134 C   0  0  0  0  0  0  0  0  0  0  0  0
  -27.9014    1.8066   29.6436 C   0  0  0  0  0  0  0  0  0  0  0  0
  -29.0458   -0.2316   29.7181 C   0  0  0  0  0  0  0  0  0  0  0  0
  -28.9402    1.0517   30.0597 C   0  0  0  0  0  0  0  0  0  0  0  0
  -26.0208   -0.6774   27.8774 F   0  0  0  0  0  0  0  0  0  0  0  0
  -30.0213    1.6852   30.8724 C   0  0  0  0  0  0  0  0  0  0  0  0
  -29.6464    2.6297   31.6630 C   0  0  0  0  0  0  0  0  0  0  0  0
  -30.5688    3.3003   32.5760 C   0  0  0  0  0  0  0  0  0  0  0  0
  -30.1465    4.3096   33.4607 C   0  0  0  0  0  0  0  0  0  0  0  0
  -28.7923    4.7122   33.4374 C   0  0  0  0  0  0  0  0  0  0  0  0
  -27.8570    4.0881   32.5905 C   0  0  0  0  0  0  0  0  0  0  0  0
  -28.2654    3.0877   31.7692 C   0  0  0  0  0  0  0  0  0  0  0  0
  -31.1214    2.0722   29.8699 C   0  0  0  0  0  0  0  0  0  0  0  0
  -32.2299    1.2606   29.8043 C   0  0  0  0  0  0  0  0  0  0  0  0
  -33.2536    1.5961   28.9129 C   0  0  0  0  0  0  0  0  0  0  0  0
  -33.0892    2.3427   28.2123 C   0  0  0  0  0  0  0  0  0  0  0  0
  -31.1334    3.0214   28.8955 C   0  0  0  0  0  0  0  0  0  0  0  0
  -32.0283    3.2939   28.0726 C   0  0  0  0  0  0  0  0  0  0  0  0
  -27.3477    2.5875   30.7455 C   0  0  0  0  0  0  0  0  0  0  0  0
  -25.9510    3.1137   30.7792 C   0  0  0  0  0  0  0  0  0  0  0  0
  -25.4070    3.3672   31.7302 O   0  0  0  0  0  0  0  0  0  0  0  0
  -25.6047    3.6744   29.6571 O   0  0  0  0  0  0  0  0  0  0  0  0
  2  7  1  0
  8 15  1  0
 21 22  1  0
 22 23  2  0
 22 24  1  0
 15 16  2  0
 16 17  1  0
 17 18  2  0
 18 20  1  0
 20 19  2  0
 19 15  1  0
  6  8  1  0
  8  9  2  0
 14 21  2  0
 21  4  1  0
  1  2  2  0
  2  3  1  0
  3  4  2  0
  4  6  1  0
  6  5  2  0
  5  1  1  0
  9 10  1  0
 10 11  2  0
 11 12  1  0
 12 13  2  0
 13 14  1  0
 14  9  1  0
M  END

$$$$
