No_4911-gen_results/8p0m/2024-11-26-14-13-15/
     RDKit          3D

 30 31  0  0  0  0  0  0  0  0999 V2000
  -28.0162   -0.8135   28.8779 C   0  0  0  0  0  0  0  0  0  0  0  0
  -27.0636   -0.1189   28.6079 C   0  0  0  0  0  0  0  0  0  0  0  0
  -27.0010    0.6913   27.4910 C   0  0  0  0  0  0  0  0  0  0  0  0
  -28.1373    0.7363   26.6350 C   0  0  0  0  0  0  0  0  0  0  0  0
  -29.2360    0.0765   27.0690 C   0  0  0  0  0  0  0  0  0  0  0  0
  -29.2177   -0.6429   28.1747 C   0  0  0  0  0  0  0  0  0  0  0  0
  -30.4152    0.1590   26.1820 C   0  0  0  0  0  0  0  0  0  0  0  0
  -30.9296    1.2337   26.1560 F   0  0  0  0  0  0  0  0  0  0  0  0
  -31.3488   -0.7383   26.6978 F   0  0  0  0  0  0  0  0  0  0  0  0
  -30.1372   -0.2890   24.9393 F   0  0  0  0  0  0  0  0  0  0  0  0
  -25.7228    1.4091   27.0735 C   0  0  0  0  0  0  0  0  0  0  0  0
  -25.4790    2.2751   26.3665 C   0  0  0  0  0  0  0  0  0  0  0  0
  -24.1747    2.9201   26.1280 C   0  0  0  0  0  0  0  0  0  0  0  0
  -23.0546    2.3790   26.7973 C   0  0  0  0  0  0  0  0  0  0  0  0
  -23.3016    1.2447   27.6028 C   0  0  0  0  0  0  0  0  0  0  0  0
  -24.5770    0.7351   27.8394 C   0  0  0  0  0  0  0  0  0  0  0  0
  -22.1234    0.6988   28.3287 C   0  0  0  0  0  0  0  0  0  0  0  0
  -22.3069   -0.4976   28.9774 N   0  0  0  0  0  0  0  0  0  0  0  0
  -20.9997    1.1729   28.2222 O   0  0  0  0  0  0  0  0  0  0  0  0
  -27.9018   -1.6359   30.1674 C   0  0  0  0  0  0  0  0  0  0  0  0
  -27.1071   -2.5448   30.1457 O   0  0  0  0  0  0  0  0  0  0  0  0
  -28.8784   -1.5834   31.0806 N   0  0  0  0  0  0  0  0  0  0  0  0
  -28.8463   -2.4990   32.2162 C   0  0  0  0  0  0  0  0  0  0  0  0
  -29.7618   -3.6738   31.8070 C   0  0  0  0  0  0  0  0  0  0  0  0
  -29.9232   -4.0098   30.6359 C   0  0  0  0  0  0  0  0  0  0  0  0
  -31.3228   -4.1998   30.3111 C   0  0  0  0  0  0  0  0  0  0  0  0
  -31.5965   -4.3536   28.8987 C   0  0  0  0  0  0  0  0  0  0  0  0
  -32.2467   -5.1024   28.4014 C   0  0  0  0  0  0  0  0  0  0  0  0
  -32.3158   -5.2961   26.9110 C   0  0  0  0  0  0  0  0  0  0  0  0
  -33.0575   -6.2791   26.3444 C   0  0  0  0  0  0  0  0  0  0  0  0
  5  7  1  0
  7  8  1  0
  7  9  1  0
  7 10  1  0
  3 11  1  0
 15 17  1  0
 17 18  1  0
 17 19  2  0
  1 20  1  0
 20 21  1  0
 20 22  2  3
 22 23  1  0
 23 24  1  0
 24 25  1  0
 25 26  2  3
 26 27  1  0
 27 28  2  3
 28 29  1  0
 29 30  1  0
 11 12  2  0
 12 13  1  0
 13 14  2  0
 14 15  1  0
 15 16  2  0
 16 11  1  0
  1  2  2  0
  2  3  1  0
  3  4  2  0
  4  5  1  0
  5  6  2  0
  6  1  1  0
M  END

$$$$
