No_490-gen_results/8p0m/2024-11-26-14-13-15/
     RDKit          3D

 22 25  0  0  0  0  0  0  0  0999 V2000
  -28.0162   -0.8135   28.8779 C   0  0  0  0  0  0  0  0  0  0  0  0
  -27.0636   -0.1189   28.6079 C   0  0  0  0  0  0  0  0  0  0  0  0
  -25.7923   -0.4302   29.0761 C   0  0  0  0  0  0  0  0  0  0  0  0
  -25.5756   -1.5654   29.9363 C   0  0  0  0  0  0  0  0  0  0  0  0
  -26.7354   -2.3004   30.2173 C   0  0  0  0  0  0  0  0  0  0  0  0
  -27.9184   -1.9537   29.7629 C   0  0  0  0  0  0  0  0  0  0  0  0
  -27.3243    1.0850   27.8190 C   0  0  0  0  0  0  0  0  0  0  0  0
  -26.2674    1.9087   27.5697 C   0  0  0  0  0  0  0  0  0  0  0  0
  -24.8868    1.5477   28.0393 C   0  0  0  0  0  0  0  0  0  0  0  0
  -24.6633    0.4445   28.8042 C   0  0  0  0  0  0  0  0  0  0  0  0
  -23.2951    0.1642   29.2504 C   0  0  0  0  0  0  0  0  0  0  0  0
  -22.9939   -0.0274   30.4982 C   0  0  0  0  0  0  0  0  0  0  0  0
  -22.1932    1.0277   28.6248 C   0  0  0  0  0  0  0  0  0  0  0  0
  -22.3488    1.8604   27.7012 N   0  0  0  0  0  0  0  0  0  0  0  0
  -23.7066    2.1815   27.2443 C   0  0  0  0  0  0  0  0  0  0  0  0
  -23.8344    3.0560   26.3849 O   0  0  0  0  0  0  0  0  0  0  0  0
  -28.5820    1.4662   27.3418 C   0  0  0  0  0  0  0  0  0  0  0  0
  -29.4253    2.1875   28.1219 C   0  0  0  0  0  0  0  0  0  0  0  0
  -30.7185    2.3490   27.7393 C   0  0  0  0  0  0  0  0  0  0  0  0
  -29.0061    0.9778   26.1242 C   0  0  0  0  0  0  0  0  0  0  0  0
  -30.2805    1.2069   25.6568 C   0  0  0  0  0  0  0  0  0  0  0  0
  -31.1424    1.9685   26.4600 C   0  0  0  0  0  0  0  0  0  0  0  0
 10 11  1  0
 11 12  1  0
 11 13  1  0
 13 14  1  0
  9 15  1  0
 14 15  1  0
 15 16  2  0
  7 17  1  0
  1  2  2  0
  3  4  2  0
  4  5  1  0
  5  6  2  0
  6  1  1  0
 17 18  2  0
 18 19  1  0
 19 22  2  0
 22 21  1  0
 21 20  2  0
 20 17  1  0
  2  3  1  0
  3 10  1  0
 10  9  2  0
  9  8  1  0
  8  7  2  0
  7  2  1  0
M  END

$$$$
