No_4286-gen_results/8p0m/2024-11-26-14-13-15/
     RDKit          3D

 15 15  0  0  0  0  0  0  0  0999 V2000
  -28.0162   -0.8135   28.8779 C   0  0  0  0  0  0  0  0  0  0  0  0
  -28.4690   -0.7850   29.8287 C   0  0  0  0  0  0  0  0  0  0  0  0
  -28.1816    0.4277   28.1134 C   0  0  0  0  0  0  0  0  0  0  0  0
  -28.9841    1.4155   28.5154 C   0  0  0  0  0  0  0  0  0  0  0  0
  -29.3802    0.1384   30.4612 C   0  0  0  0  0  0  0  0  0  0  0  0
  -29.5415    1.2736   29.7242 C   0  0  0  0  0  0  0  0  0  0  0  0
  -27.4452    0.4872   26.7726 C   0  0  0  0  0  0  0  0  0  0  0  0
  -27.8631    0.8051   25.7558 C   0  0  0  0  0  0  0  0  0  0  0  0
  -29.2708    1.1430   25.6694 C   0  0  0  0  0  0  0  0  0  0  0  0
  -25.9673    0.0353   26.9219 C   0  0  0  0  0  0  0  0  0  0  0  0
  -25.3239   -0.2010   28.1330 C   0  0  0  0  0  0  0  0  0  0  0  0
  -23.9364   -0.3308   28.1513 C   0  0  0  0  0  0  0  0  0  0  0  0
  -23.2668   -0.8157   29.3301 C   0  0  0  0  0  0  0  0  0  0  0  0
  -23.9767   -0.9639   30.4920 C   0  0  0  0  0  0  0  0  0  0  0  0
  -25.3248   -0.7955   30.5558 C   0  0  0  0  0  0  0  0  0  0  0  0
  3  7  1  0
  7  8  2  3
  8  9  1  0
  7 10  1  0
 10 11  2  3
 11 12  1  0
 12 13  2  3
 13 14  1  0
 14 15  2  0
  1  2  2  0
  2  5  1  0
  5  6  2  0
  6  4  1  0
  4  3  2  0
  3  1  1  0
M  END

$$$$
