No_4426-gen_results/8p0m/2024-11-26-14-13-15/
     RDKit          3D

 27 29  0  0  0  0  0  0  0  0999 V2000
  -28.0162   -0.8135   28.8779 C   0  0  0  0  0  0  0  0  0  0  0  0
  -28.4690   -0.7850   29.8287 C   0  0  0  0  0  0  0  0  0  0  0  0
  -26.5455   -0.8762   28.8500 C   0  0  0  0  0  0  0  0  0  0  0  0
  -25.8041   -1.0324   30.0571 C   0  0  0  0  0  0  0  0  0  0  0  0
  -27.9437   -0.9869   31.2075 C   0  0  0  0  0  0  0  0  0  0  0  0
  -26.5825   -1.0386   31.2231 C   0  0  0  0  0  0  0  0  0  0  0  0
  -30.0606   -0.7371   29.9024 C   0  0  0  0  0  0  0  0  0  0  0  0
  -30.6052    0.0855   30.7066 O   0  0  0  0  0  0  0  0  0  0  0  0
  -30.6701   -1.4594   29.0728 O   0  0  0  0  0  0  0  0  0  0  0  0
  -24.3711   -1.0948   30.0783 C   0  0  0  0  0  0  0  0  0  0  0  0
  -23.5788   -0.5891   29.1099 C   0  0  0  0  0  0  0  0  0  0  0  0
  -22.9080    0.5743   29.2134 C   0  0  0  0  0  0  0  0  0  0  0  0
  -22.0692    1.0825   28.1604 C   0  0  0  0  0  0  0  0  0  0  0  0
  -22.7226    1.5722   27.0441 C   0  0  0  0  0  0  0  0  0  0  0  0
  -24.0547    1.0914   26.7710 C   0  0  0  0  0  0  0  0  0  0  0  0
  -24.2855   -0.1682   27.5165 C   0  0  0  0  0  0  0  0  0  0  0  0
  -24.6948    1.3419   25.5948 C   0  0  0  0  0  0  0  0  0  0  0  0
  -25.7651    1.0302   25.2989 C   0  0  0  0  0  0  0  0  0  0  0  0
  -26.9111    1.7521   25.5853 C   0  0  0  0  0  0  0  0  0  0  0  0
  -28.2437    1.3452   25.2306 C   0  0  0  0  0  0  0  0  0  0  0  0
  -29.3800    2.0008   25.6694 C   0  0  0  0  0  0  0  0  0  0  0  0
  -29.1770    3.2182   26.4031 C   0  0  0  0  0  0  0  0  0  0  0  0
  -27.9294    3.7024   26.6943 C   0  0  0  0  0  0  0  0  0  0  0  0
  -26.8260    2.9627   26.3389 C   0  0  0  0  0  0  0  0  0  0  0  0
  -26.0144   -0.3065   24.6785 C   0  0  0  0  0  0  0  0  0  0  0  0
  -23.9595   -2.5805   30.3180 C   0  0  0  0  0  0  0  0  0  0  0  0
  -23.9218   -0.3030   31.4130 C   0  0  0  0  0  0  0  0  0  0  0  0
  2  7  1  0
  7  8  2  0
  7  9  1  0
  4 10  1  0
 10 11  1  0
 15 17  1  0
 17 18  1  0
 18 25  1  0
 10 26  1  0
 10 27  1  0
 18 19  1  0
 11 12  2  0
 12 13  1  0
 13 14  2  0
 14 15  1  0
 15 16  2  0
 16 11  1  0
  1  2  2  0
  2  5  1  0
  5  6  2  0
  6  4  1  0
  4  3  2  0
  3  1  1  0
 19 20  2  0
 20 21  1  0
 21 22  2  0
 22 23  1  0
 23 24  2  0
 24 19  1  0
M  END

$$$$
