No_4210-gen_results/8p0m/2024-11-26-14-13-15/
     RDKit          3D

 27 29  0  0  0  0  0  0  0  0999 V2000
  -28.0162   -0.8135   28.8779 C   0  0  0  0  0  0  0  0  0  0  0  0
  -28.4690   -0.7850   29.8287 C   0  0  0  0  0  0  0  0  0  0  0  0
  -27.1356    0.2359   28.5352 C   0  0  0  0  0  0  0  0  0  0  0  0
  -26.8745    1.2825   29.3982 C   0  0  0  0  0  0  0  0  0  0  0  0
  -28.3613    0.1987   30.9244 C   0  0  0  0  0  0  0  0  0  0  0  0
  -27.5277    1.2234   30.6356 C   0  0  0  0  0  0  0  0  0  0  0  0
  -26.3987    0.2949   27.2279 C   0  0  0  0  0  0  0  0  0  0  0  0
  -25.1481    0.1287   27.3793 N   0  0  0  0  0  0  0  0  0  0  0  0
  -26.9676    0.3869   26.1430 O   0  0  0  0  0  0  0  0  0  0  0  0
  -24.2586    0.2550   26.1730 C   0  0  0  0  0  0  0  0  0  0  0  0
  -23.3759    1.3824   26.5159 C   0  0  0  0  0  0  0  0  0  0  0  0
  -22.3974    1.2258   27.4811 C   0  0  0  0  0  0  0  0  0  0  0  0
  -21.4698    2.2780   27.6619 C   0  0  0  0  0  0  0  0  0  0  0  0
  -22.5153    0.1869   28.4187 C   0  0  0  0  0  0  0  0  0  0  0  0
  -21.4361   -0.0562   29.3235 C   0  0  0  0  0  0  0  0  0  0  0  0
  -20.3506    1.8245   28.5094 C   0  0  0  0  0  0  0  0  0  0  0  0
  -20.4186    0.7876   29.3659 C   0  0  0  0  0  0  0  0  0  0  0  0
  -23.9502    2.7639   26.4007 C   0  0  0  0  0  0  0  0  0  0  0  0
  -29.4194   -1.9792   30.3428 C   0  0  0  0  0  0  0  0  0  0  0  0
  -29.9974   -1.8473   31.3859 O   0  0  0  0  0  0  0  0  0  0  0  0
  -29.3656   -3.0218   29.7091 O   0  0  0  0  0  0  0  0  0  0  0  0
  -27.3085    2.3454   31.6080 C   0  0  0  0  0  0  0  0  0  0  0  0
  -27.5688    3.5347   31.4651 C   0  0  0  0  0  0  0  0  0  0  0  0
  -27.2343    4.5649   32.3496 C   0  0  0  0  0  0  0  0  0  0  0  0
  -26.5588    4.2232   33.5644 C   0  0  0  0  0  0  0  0  0  0  0  0
  -26.1941    2.9180   33.7647 C   0  0  0  0  0  0  0  0  0  0  0  0
  -26.4913    1.9352   32.8066 C   0  0  0  0  0  0  0  0  0  0  0  0
  3  7  1  0
  7  8  1  0
  7  9  2  0
  8 10  1  0
 10 11  1  0
 11 18  1  0
  2 19  1  0
 19 20  1  0
 19 21  2  0
  6 22  1  0
 11 12  1  0
 22 23  2  0
 23 24  1  0
 24 25  2  0
 25 26  1  0
 26 27  2  0
 27 22  1  0
  1  2  2  0
  2  5  1  0
  5  6  2  0
  6  4  1  0
  4  3  2  0
  3  1  1  0
 12 13  2  0
 13 16  1  0
 16 17  2  0
 17 15  1  0
 15 14  2  0
 14 12  1  0
M  END

$$$$
