No_424-gen_results/8p0m/2024-11-26-14-13-15/
     RDKit          3D

 16 18  0  0  0  0  0  0  0  0999 V2000
  -28.0162   -0.8135   28.8779 C   0  0  0  0  0  0  0  0  0  0  0  0
  -27.0636   -0.1189   28.6079 C   0  0  0  0  0  0  0  0  0  0  0  0
  -26.9716    0.7139   27.5060 C   0  0  0  0  0  0  0  0  0  0  0  0
  -28.1053    0.7744   26.6421 C   0  0  0  0  0  0  0  0  0  0  0  0
  -29.2041    0.1179   27.0477 C   0  0  0  0  0  0  0  0  0  0  0  0
  -29.2127   -0.6088   28.1281 C   0  0  0  0  0  0  0  0  0  0  0  0
  -25.7106    1.4519   27.1380 C   0  0  0  0  0  0  0  0  0  0  0  0
  -24.6052    0.9253   27.6902 C   0  0  0  0  0  0  0  0  0  0  0  0
  -24.5938    0.0936   28.8218 C   0  0  0  0  0  0  0  0  0  0  0  0
  -25.7077   -0.4530   29.2468 C   0  0  0  0  0  0  0  0  0  0  0  0
  -23.2701    1.6921   27.4122 C   0  0  0  0  0  0  0  0  0  0  0  0
  -23.2737    2.8188   26.6554 C   0  0  0  0  0  0  0  0  0  0  0  0
  -24.5501    3.2071   25.9779 C   0  0  0  0  0  0  0  0  0  0  0  0
  -25.7268    2.5015   26.2821 C   0  0  0  0  0  0  0  0  0  0  0  0
  -22.0064    1.3302   28.0742 C   0  0  0  0  0  0  0  0  0  0  0  0
  -21.9654    0.2548   28.8862 N   0  0  0  0  0  0  0  0  0  0  0  0
 11 15  1  0
 15 16  2  0
  1  2  2  0
  3  4  2  0
  4  5  1  0
  5  6  2  0
  6  1  1  0
  8 11  2  0
 11 12  1  0
 12 13  2  0
 13 14  1  0
 14  7  2  0
  2  3  1  0
  3  7  1  0
  7  8  1  0
  8  9  1  0
  9 10  2  0
 10  2  1  0
M  END

$$$$
