No_4176-gen_results/8p0m/2024-11-26-14-13-15/
     RDKit          3D

 19 21  0  0  0  0  0  0  0  0999 V2000
  -28.0162   -0.8135   28.8779 C   0  0  0  0  0  0  0  0  0  0  0  0
  -27.0636   -0.1189   28.6079 C   0  0  0  0  0  0  0  0  0  0  0  0
  -25.7923   -0.4302   29.0761 C   0  0  0  0  0  0  0  0  0  0  0  0
  -24.5456    0.3494   28.8225 C   0  0  0  0  0  0  0  0  0  0  0  0
  -23.2409    0.0217   29.3323 C   0  0  0  0  0  0  0  0  0  0  0  0
  -27.8820   -1.8995   29.8633 C   0  0  0  0  0  0  0  0  0  0  0  0
  -26.6706   -2.3272   30.3212 C   0  0  0  0  0  0  0  0  0  0  0  0
  -25.5433   -1.5852   29.9316 C   0  0  0  0  0  0  0  0  0  0  0  0
  -22.1918    0.8302   29.0004 C   0  0  0  0  0  0  0  0  0  0  0  0
  -22.1472    1.7783   28.0287 C   0  0  0  0  0  0  0  0  0  0  0  0
  -24.5322    1.3987   27.8163 C   0  0  0  0  0  0  0  0  0  0  0  0
  -25.7399    1.6952   27.1553 C   0  0  0  0  0  0  0  0  0  0  0  0
  -23.3709    2.0781   27.4138 C   0  0  0  0  0  0  0  0  0  0  0  0
  -27.0657    0.9903   27.5858 C   0  0  0  0  0  0  0  0  0  0  0  0
  -28.1164    1.9603   27.9623 C   0  0  0  0  0  0  0  0  0  0  0  0
  -25.8787    2.6627   26.1483 C   0  0  0  0  0  0  0  0  0  0  0  0
  -29.2409    1.7575   28.1962 C   0  0  0  0  0  0  0  0  0  0  0  0
  -30.2226    2.7521   28.4958 C   0  0  0  0  0  0  0  0  0  0  0  0
  -31.4857    2.5342   28.9320 C   0  0  0  0  0  0  0  0  0  0  0  0
 14 15  1  0
 12 16  1  0
 15 17  2  3
 17 18  1  0
 18 19  2  0
  4  5  2  0
  5  9  1  0
  9 10  2  0
 10 13  1  0
 13 11  2  0
  1  2  2  0
  3  8  2  0
  8  7  1  0
  7  6  2  0
  6  1  1  0
  2  3  1  0
  3  4  1  0
  4 11  1  0
 11 12  1  0
 12 14  2  0
 14  2  1  0
M  END

$$$$
