No_4543-gen_results/8p0m/2024-11-26-14-13-15/
     RDKit          3D

 14 15  0  0  0  0  0  0  0  0999 V2000
  -28.0162   -0.8135   28.8779 C   0  0  0  0  0  0  0  0  0  0  0  0
  -27.0636   -0.1190   28.6079 C   0  0  0  0  0  0  0  0  0  0  0  0
  -27.0010    0.6913   27.4910 C   0  0  0  0  0  0  0  0  0  0  0  0
  -28.1373    0.7363   26.6350 C   0  0  0  0  0  0  0  0  0  0  0  0
  -29.2360    0.0765   27.0690 C   0  0  0  0  0  0  0  0  0  0  0  0
  -29.2177   -0.6429   28.1747 C   0  0  0  0  0  0  0  0  0  0  0  0
  -30.3222    0.1455   26.3092 F   0  0  0  0  0  0  0  0  0  0  0  0
  -25.7269   -0.1942   29.4070 C   0  0  0  0  0  0  0  0  0  0  0  0
  -25.4574   -0.9692   30.1187 C   0  0  0  0  0  0  0  0  0  0  0  0
  -26.3704   -2.1240   30.3548 C   0  0  0  0  0  0  0  0  0  0  0  0
  -27.6783   -1.9655   29.8247 C   0  0  0  0  0  0  0  0  0  0  0  0
  -28.7097   -2.9556   30.2640 C   0  0  0  0  0  0  0  0  0  0  0  0
  -28.4099   -4.1578   30.2448 O   0  0  0  0  0  0  0  0  0  0  0  0
  -29.8451   -2.5602   30.6728 O   0  0  0  0  0  0  0  0  0  0  0  0
  5  7  1  0
 11 12  1  0
 12 13  2  0
 12 14  1  0
  2  3  2  0
  3  4  1  0
  4  5  2  0
  5  6  1  0
  6  1  2  0
  1  2  1  0
  2  8  1  0
  8  9  2  0
  9 10  1  0
 10 11  2  0
 11  1  1  0
M  END

$$$$
