No_4469-gen_results/8p0m/2024-11-26-14-13-15/
     RDKit          3D

 19 21  0  0  0  0  0  0  0  0999 V2000
  -28.0162   -0.8135   28.8779 C   0  0  0  0  0  0  0  0  0  0  0  0
  -28.4690   -0.7850   29.8287 C   0  0  0  0  0  0  0  0  0  0  0  0
  -26.5455   -0.8762   28.8500 C   0  0  0  0  0  0  0  0  0  0  0  0
  -25.8041   -1.0324   30.0571 C   0  0  0  0  0  0  0  0  0  0  0  0
  -26.5373   -1.0386   31.2171 C   0  0  0  0  0  0  0  0  0  0  0  0
  -27.8843   -0.9532   31.1862 C   0  0  0  0  0  0  0  0  0  0  0  0
  -24.3655   -1.1134   30.0483 C   0  0  0  0  0  0  0  0  0  0  0  0
  -23.6925    0.1188   29.9185 C   0  0  0  0  0  0  0  0  0  0  0  0
  -22.3936    0.1820   29.3480 C   0  0  0  0  0  0  0  0  0  0  0  0
  -21.7683    1.3866   29.0594 C   0  0  0  0  0  0  0  0  0  0  0  0
  -23.8369    1.1990   30.9619 C   0  0  0  0  0  0  0  0  0  0  0  0
  -25.0683    1.2299   31.7149 C   0  0  0  0  0  0  0  0  0  0  0  0
  -25.3604    2.5437   32.3298 C   0  0  0  0  0  0  0  0  0  0  0  0
  -26.4907    2.6325   33.2069 C   0  0  0  0  0  0  0  0  0  0  0  0
  -27.1691    1.4709   33.4596 C   0  0  0  0  0  0  0  0  0  0  0  0
  -26.7382    0.2689   33.0774 C   0  0  0  0  0  0  0  0  0  0  0  0
  -25.6549    0.1693   32.2796 C   0  0  0  0  0  0  0  0  0  0  0  0
  -25.7710   -0.8163   27.5808 C   0  0  0  0  0  0  0  0  0  0  0  0
  -20.9188    1.3285   27.8682 C   0  0  0  0  0  0  0  0  0  0  0  0
  4  7  1  0
  7  8  1  0
  8  9  2  3
  9 10  1  0
  8 11  1  0
 11 12  1  0
  5 17  1  0
  3 18  1  0
 10 19  1  0
 12 13  2  0
 13 14  1  0
 14 15  2  0
 15 16  1  0
 16 17  2  0
 17 12  1  0
  1  2  2  0
  2  6  1  0
  6  5  2  0
  5  4  1  0
  4  3  2  0
  3  1  1  0
M  END

$$$$
