No_4668-gen_results/8p0m/2024-11-26-14-13-15/
     RDKit          3D

 35 38  0  0  0  0  0  0  0  0999 V2000
  -28.0162   -0.8135   28.8779 C   0  0  0  0  0  0  0  0  0  0  0  0
  -28.4690   -0.7850   29.8287 C   0  0  0  0  0  0  0  0  0  0  0  0
  -27.0871    0.2903   28.6377 C   0  0  0  0  0  0  0  0  0  0  0  0
  -26.8317    1.2487   29.5869 C   0  0  0  0  0  0  0  0  0  0  0  0
  -28.3914    0.0801   31.0065 C   0  0  0  0  0  0  0  0  0  0  0  0
  -27.4940    1.1521   30.7841 C   0  0  0  0  0  0  0  0  0  0  0  0
  -26.3172    0.3994   27.3653 C   0  0  0  0  0  0  0  0  0  0  0  0
  -26.8815    0.9711   26.3721 C   0  0  0  0  0  0  0  0  0  0  0  0
  -28.2026    1.4637   26.4214 C   0  0  0  0  0  0  0  0  0  0  0  0
  -28.7510    1.9527   25.1515 C   0  0  0  0  0  0  0  0  0  0  0  0
  -27.9992    1.7656   23.9940 C   0  0  0  0  0  0  0  0  0  0  0  0
  -26.8200    1.1311   23.9824 C   0  0  0  0  0  0  0  0  0  0  0  0
  -26.1901    0.7119   25.1051 C   0  0  0  0  0  0  0  0  0  0  0  0
  -25.4338   -0.8168   27.2308 C   0  0  0  0  0  0  0  0  0  0  0  0
  -24.2733   -0.7138   28.3053 C   0  0  0  0  0  0  0  0  0  0  0  0
  -23.4620    0.3578   28.3670 C   0  0  0  0  0  0  0  0  0  0  0  0
  -22.3965    0.3316   29.2448 C   0  0  0  0  0  0  0  0  0  0  0  0
  -24.2525   -1.6583   29.3749 C   0  0  0  0  0  0  0  0  0  0  0  0
  -23.2241   -1.6249   30.3041 C   0  0  0  0  0  0  0  0  0  0  0  0
  -22.3120   -0.5456   30.2837 C   0  0  0  0  0  0  0  0  0  0  0  0
  -25.9577    2.4051   29.3811 C   0  0  0  0  0  0  0  0  0  0  0  0
  -26.0671    3.3152   28.5739 C   0  0  0  0  0  0  0  0  0  0  0  0
  -27.1190    4.2718   28.6388 C   0  0  0  0  0  0  0  0  0  0  0  0
  -25.1455    3.4740   27.4512 C   0  0  0  0  0  0  0  0  0  0  0  0
  -25.3505    4.4046   26.3764 C   0  0  0  0  0  0  0  0  0  0  0  0
  -27.2839    5.2600   27.5484 C   0  0  0  0  0  0  0  0  0  0  0  0
  -26.4103    5.2847   26.5232 C   0  0  0  0  0  0  0  0  0  0  0  0
  -24.8403    2.4888   30.4132 C   0  0  0  0  0  0  0  0  0  0  0  0
  -23.8566    2.9803   30.3357 O   0  0  0  0  0  0  0  0  0  0  0  0
  -25.0724    1.7388   31.5994 O   0  0  0  0  0  0  0  0  0  0  0  0
  -30.0081    2.7158   25.1239 C   0  0  0  0  0  0  0  0  0  0  0  0
  -30.3176    3.5918   26.0410 C   0  0  0  0  0  0  0  0  0  0  0  0
  -31.5464    4.3384   26.0127 C   0  0  0  0  0  0  0  0  0  0  0  0
  -32.3945    4.1308   24.9053 C   0  0  0  0  0  0  0  0  0  0  0  0
  -30.8371    2.5660   24.0356 C   0  0  0  0  0  0  0  0  0  0  0  0
  3  7  1  0
  7 14  1  0
 14 15  1  0
  4 21  1  0
 21 22  1  0
 21 28  1  0
 28 29  2  0
 28 30  1  0
 10 31  1  0
 31 32  2  3
 32 33  1  0
 33 34  2  0
 31 35  1  0
  7  8  1  0
 15 16  2  0
 16 17  1  0
 17 20  2  0
 20 19  1  0
 19 18  2  0
 18 15  1  0
  8  9  2  0
  9 10  1  0
 10 11  2  0
 11 12  1  0
 12 13  2  0
 13  8  1  0
  1  2  2  0
  2  5  1  0
  5  6  2  0
  6  4  1  0
  4  3  2  0
  3  1  1  0
 22 23  2  0
 23 26  1  0
 26 27  2  0
 27 25  1  0
 25 24  2  0
 24 22  1  0
M  END

$$$$
