No_488-gen_results/8p0m/2024-11-26-14-13-15/
     RDKit          3D

 20 21  0  0  0  0  0  0  0  0999 V2000
  -28.0162   -0.8135   28.8779 C   0  0  0  0  0  0  0  0  0  0  0  0
  -27.0636   -0.1189   28.6079 C   0  0  0  0  0  0  0  0  0  0  0  0
  -25.7923   -0.4302   29.0761 C   0  0  0  0  0  0  0  0  0  0  0  0
  -24.5456    0.3494   28.8225 C   0  0  0  0  0  0  0  0  0  0  0  0
  -24.6586    1.4196   27.8878 C   0  0  0  0  0  0  0  0  0  0  0  0
  -25.9471    1.6811   27.3792 C   0  0  0  0  0  0  0  0  0  0  0  0
  -27.0439    0.9739   27.6871 C   0  0  0  0  0  0  0  0  0  0  0  0
  -29.1882   -0.1472   29.0918 N   0  0  0  0  0  0  0  0  0  0  0  0
  -29.6010    0.1626   30.3267 C   0  0  0  0  0  0  0  0  0  0  0  0
  -30.0469    0.0268   27.9837 C   0  0  0  0  0  0  0  0  0  0  0  0
  -23.6041    2.1048   27.6567 F   0  0  0  0  0  0  0  0  0  0  0  0
  -31.3967   -0.2987   28.1928 C   0  0  0  0  0  0  0  0  0  0  0  0
  -31.8323   -1.3867   28.1775 C   0  0  0  0  0  0  0  0  0  0  0  0
  -33.2216   -1.7803   28.3716 C   0  0  0  0  0  0  0  0  0  0  0  0
  -33.6475   -3.1044   28.2737 C   0  0  0  0  0  0  0  0  0  0  0  0
  -32.7180   -4.0860   27.9408 C   0  0  0  0  0  0  0  0  0  0  0  0
  -31.4231   -3.8799   27.7672 C   0  0  0  0  0  0  0  0  0  0  0  0
  -30.9512   -2.5557   27.8996 C   0  0  0  0  0  0  0  0  0  0  0  0
  -29.9887    1.4136   30.5840 C   0  0  0  0  0  0  0  0  0  0  0  0
  -30.3848    1.7569   31.9028 C   0  0  0  0  0  0  0  0  0  0  0  0
  1  2  1  0
  1  8  1  0
  8  9  1  0
  8 10  1  0
  5 11  1  0
 10 12  1  0
  9 19  2  3
 19 20  1  0
 12 13  1  0
  2  3  2  0
  3  4  1  0
  4  5  2  0
  5  6  1  0
  6  7  2  0
  7  2  1  0
 13 14  2  0
 14 15  1  0
 15 16  2  0
 16 17  1  0
 17 18  2  0
 18 13  1  0
M  END

$$$$
