No_4991-gen_results/8p0m/2024-11-26-14-13-15/
     RDKit          3D

 18 19  0  0  0  0  0  0  0  0999 V2000
  -28.1229   -1.3353   28.4874 O   0  0  0  0  0  0  0  0  0  0  0  0
  -27.0637   -0.8242   28.8687 C   0  0  0  0  0  0  0  0  0  0  0  0
  -25.9464   -1.0396   28.8492 C   0  0  0  0  0  0  0  0  0  0  0  0
  -24.7602   -0.1562   29.1644 C   0  0  0  0  0  0  0  0  0  0  0  0
  -23.3890   -0.4551   29.0162 C   0  0  0  0  0  0  0  0  0  0  0  0
  -27.3395    0.3833   29.7633 N   0  0  0  0  0  0  0  0  0  0  0  0
  -26.4205    1.2770   30.1889 C   0  0  0  0  0  0  0  0  0  0  0  0
  -25.0644    1.0553   29.9319 C   0  0  0  0  0  0  0  0  0  0  0  0
  -22.7456   -1.5426   29.5224 C   0  0  0  0  0  0  0  0  0  0  0  0
  -22.5780    0.5851   28.3459 C   0  0  0  0  0  0  0  0  0  0  0  0
  -21.1410    0.3923   28.2591 C   0  0  0  0  0  0  0  0  0  0  0  0
  -20.5945   -0.7681   28.8102 C   0  0  0  0  0  0  0  0  0  0  0  0
  -21.3561   -1.7338   29.3807 C   0  0  0  0  0  0  0  0  0  0  0  0
  -26.8422    2.2834   30.8565 F   0  0  0  0  0  0  0  0  0  0  0  0
  -23.1419    1.7935   27.8142 C   0  0  0  0  0  0  0  0  0  0  0  0
  -23.6810    2.6634   28.3737 O   0  0  0  0  0  0  0  0  0  0  0  0
  -23.0661    1.8407   26.4044 N   0  0  0  0  0  0  0  0  0  0  0  0
  -23.6024    2.8929   25.5831 C   0  0  0  0  0  0  0  0  0  0  0  0
  1  2  2  0
  2  3  1  0
  3  4  1  0
  4  5  1  0
  2  6  1  0
  4  8  1  0
  7  8  1  0
  7 14  1  0
 10 15  1  0
 15 16  2  0
 15 17  1  0
 17 18  1  0
  7  6  1  0
  5  9  2  0
  9 13  1  0
 13 12  2  0
 12 11  1  0
 11 10  2  0
 10  5  1  0
M  END

$$$$
