No_4790-gen_results/8p0m/2024-11-26-14-13-15/
     RDKit          3D

 15 15  0  0  0  0  0  0  0  0999 V2000
  -28.0162   -0.8135   28.8779 C   0  0  0  0  0  0  0  0  0  0  0  0
  -27.0636   -0.1190   28.6079 C   0  0  0  0  0  0  0  0  0  0  0  0
  -26.9716    0.7139   27.5060 C   0  0  0  0  0  0  0  0  0  0  0  0
  -28.1053    0.7744   26.6421 C   0  0  0  0  0  0  0  0  0  0  0  0
  -29.2008    0.1044   27.0527 C   0  0  0  0  0  0  0  0  0  0  0  0
  -29.2096   -0.6029   28.1853 C   0  0  0  0  0  0  0  0  0  0  0  0
  -30.3702    0.2264   26.1604 C   0  0  0  0  0  0  0  0  0  0  0  0
  -31.2210   -0.4630   26.3096 O   0  0  0  0  0  0  0  0  0  0  0  0
  -30.3688    1.0652   25.1324 O   0  0  0  0  0  0  0  0  0  0  0  0
  -25.8667   -0.3076   29.6044 C   0  0  0  0  0  0  0  0  0  0  0  0
  -25.4472   -1.3211   30.1003 N   0  0  0  0  0  0  0  0  0  0  0  0
  -24.6565   -2.0551   29.5992 C   0  0  0  0  0  0  0  0  0  0  0  0
  -23.3022   -1.5712   29.3509 C   0  0  0  0  0  0  0  0  0  0  0  0
  -24.8995   -3.4336   29.2007 C   0  0  0  0  0  0  0  0  0  0  0  0
  -26.0681   -3.9355   29.4938 N   0  0  0  0  0  0  0  0  0  0  0  0
  5  7  1  0
  7  8  1  0
  7  9  2  0
  2 10  1  0
 10 11  1  0
 11 12  1  0
 12 13  1  0
 12 14  1  0
 14 15  1  0
  1  2  2  0
  2  3  1  0
  3  4  2  0
  4  5  1  0
  5  6  2  0
  6  1  1  0
M  END

$$$$
