No_4134-gen_results/8p0m/2024-11-26-14-13-15/
     RDKit          3D

 23 25  0  0  0  0  0  0  0  0999 V2000
  -28.0162   -0.8135   28.8779 C   0  0  0  0  0  0  0  0  0  0  0  0
  -27.0636   -0.1189   28.6079 C   0  0  0  0  0  0  0  0  0  0  0  0
  -26.9716    0.7139   27.5060 C   0  0  0  0  0  0  0  0  0  0  0  0
  -28.1053    0.7744   26.6421 C   0  0  0  0  0  0  0  0  0  0  0  0
  -29.2041    0.1179   27.0477 C   0  0  0  0  0  0  0  0  0  0  0  0
  -29.2127   -0.6088   28.1281 C   0  0  0  0  0  0  0  0  0  0  0  0
  -25.7106    1.4519   27.1380 C   0  0  0  0  0  0  0  0  0  0  0  0
  -24.6052    0.9253   27.6902 C   0  0  0  0  0  0  0  0  0  0  0  0
  -23.3376    1.6509   27.5495 C   0  0  0  0  0  0  0  0  0  0  0  0
  -22.1760    1.2278   28.2868 C   0  0  0  0  0  0  0  0  0  0  0  0
  -22.2853    0.0475   28.9235 C   0  0  0  0  0  0  0  0  0  0  0  0
  -23.4057   -0.7271   29.0250 C   0  0  0  0  0  0  0  0  0  0  0  0
  -24.5572   -0.2605   28.4178 C   0  0  0  0  0  0  0  0  0  0  0  0
  -25.7696   -0.6074   29.0802 N   0  0  0  0  0  0  0  0  0  0  0  0
  -25.7432   -1.5659   30.1322 C   0  0  0  0  0  0  0  0  0  0  0  0
  -25.7604    2.3785   26.2955 O   0  0  0  0  0  0  0  0  0  0  0  0
  -30.4317    0.3214   26.2612 C   0  0  0  0  0  0  0  0  0  0  0  0
  -31.1301   -0.6227   25.9527 O   0  0  0  0  0  0  0  0  0  0  0  0
  -30.7505    1.4848   25.7726 O   0  0  0  0  0  0  0  0  0  0  0  0
  -26.0151   -1.0883   31.3964 C   0  0  0  0  0  0  0  0  0  0  0  0
  -25.6889   -2.9177   29.7633 C   0  0  0  0  0  0  0  0  0  0  0  0
  -26.6531   -3.6979   30.2091 F   0  0  0  0  0  0  0  0  0  0  0  0
  -24.5446   -3.4778   30.3723 F   0  0  0  0  0  0  0  0  0  0  0  0
  3  7  1  0
  7  8  1  0
  2 14  1  0
 13 14  1  0
 14 15  1  0
  7 16  2  0
  5 17  1  0
 17 18  2  0
 17 19  1  0
 15 20  1  0
 15 21  1  0
 21 22  1  0
 21 23  1  0
  1  2  2  0
  2  3  1  0
  3  4  2  0
  4  5  1  0
  5  6  2  0
  6  1  1  0
  8  9  2  0
  9 10  1  0
 10 11  2  0
 11 12  1  0
 12 13  2  0
 13  8  1  0
M  END

$$$$
