No_4664-gen_results/8p0m/2024-11-26-14-13-15/
     RDKit          3D

  7  7  0  0  0  0  0  0  0  0999 V2000
  -28.0544   -1.0498   28.7246 N   0  0  0  0  0  0  0  0  0  0  0  0
  -28.6544   -0.5669   29.5076 C   0  0  0  0  0  0  0  0  0  0  0  0
  -28.1376    0.1595   30.5233 C   0  0  0  0  0  0  0  0  0  0  0  0
  -26.7189    0.4201   30.5561 C   0  0  0  0  0  0  0  0  0  0  0  0
  -26.6229   -0.8743   28.6706 C   0  0  0  0  0  0  0  0  0  0  0  0
  -25.9531   -0.1349   29.6090 C   0  0  0  0  0  0  0  0  0  0  0  0
  -29.9497   -0.8214   29.5273 F   0  0  0  0  0  0  0  0  0  0  0  0
  2  7  1  0
  1  2  2  0
  2  3  1  0
  3  4  2  0
  4  6  1  0
  6  5  2  0
  5  1  1  0
M  END

$$$$
