No_4508-gen_results/8p0m/2024-11-26-14-13-15/
     RDKit          3D

 16 17  0  0  0  0  0  0  0  0999 V2000
  -28.0162   -0.8135   28.8779 C   0  0  0  0  0  0  0  0  0  0  0  0
  -28.4690   -0.7850   29.8287 C   0  0  0  0  0  0  0  0  0  0  0  0
  -26.5042   -0.7777   28.8766 C   0  0  0  0  0  0  0  0  0  0  0  0
  -25.6540   -0.6597   27.7191 C   0  0  0  0  0  0  0  0  0  0  0  0
  -27.9180   -0.9374   31.1824 C   0  0  0  0  0  0  0  0  0  0  0  0
  -26.5423   -0.9399   31.2606 C   0  0  0  0  0  0  0  0  0  0  0  0
  -25.7832   -0.8935   30.1201 C   0  0  0  0  0  0  0  0  0  0  0  0
  -25.2134    0.6923   27.3830 C   0  0  0  0  0  0  0  0  0  0  0  0
  -23.9202    0.9215   27.7698 C   0  0  0  0  0  0  0  0  0  0  0  0
  -23.1557    0.4097   28.7608 C   0  0  0  0  0  0  0  0  0  0  0  0
  -21.7692    0.5555   28.9093 C   0  0  0  0  0  0  0  0  0  0  0  0
  -21.1018    1.3844   28.0179 C   0  0  0  0  0  0  0  0  0  0  0  0
  -23.1591    1.8039   26.7780 C   0  0  0  0  0  0  0  0  0  0  0  0
  -21.7844    1.9960   26.9527 C   0  0  0  0  0  0  0  0  0  0  0  0
  -26.0183    1.5594   26.7076 C   0  0  0  0  0  0  0  0  0  0  0  0
  -26.4507    2.7182   27.2772 C   0  0  0  0  0  0  0  0  0  0  0  0
  3  4  1  0
  4  8  1  0
  8  9  1  0
  8 15  1  0
 15 16  1  0
  1  2  2  0
  2  5  1  0
  5  6  2  0
  6  7  1  0
  7  3  2  0
  3  1  1  0
  9 10  2  0
 10 11  1  0
 11 12  2  0
 12 14  1  0
 14 13  2  0
 13  9  1  0
M  END

$$$$
