No_406-gen_results/8p0m/2024-11-26-14-13-15/
     RDKit          3D

  7  7  0  0  0  0  0  0  0  0999 V2000
  -28.0162   -0.8135   28.8779 C   0  0  0  0  0  0  0  0  0  0  0  0
  -27.0636   -0.1189   28.6079 C   0  0  0  0  0  0  0  0  0  0  0  0
  -25.7923   -0.4302   29.0761 C   0  0  0  0  0  0  0  0  0  0  0  0
  -25.5314   -1.5875   29.6105 C   0  0  0  0  0  0  0  0  0  0  0  0
  -26.6366   -2.4336   29.9654 C   0  0  0  0  0  0  0  0  0  0  0  0
  -27.8411   -2.0285   29.6196 C   0  0  0  0  0  0  0  0  0  0  0  0
  -27.2250    1.4339   27.8343 Cl  0  0  0  0  0  0  0  0  0  0  0  0
  2  7  1  0
  1  2  2  0
  2  3  1  0
  3  4  2  0
  4  5  1  0
  5  6  2  0
  6  1  1  0
M  END

$$$$
