No_40-gen_results/8p0m/2024-11-26-14-13-15/
     RDKit          3D

 14 15  0  0  0  0  0  0  0  0999 V2000
  -28.0162   -0.8135   28.8779 C   0  0  0  0  0  0  0  0  0  0  0  0
  -28.4690   -0.7850   29.8287 C   0  0  0  0  0  0  0  0  0  0  0  0
  -27.2166   -0.0832   27.9639 C   0  0  0  0  0  0  0  0  0  0  0  0
  -26.5094   -0.3500   26.9456 C   0  0  0  0  0  0  0  0  0  0  0  0
  -25.8221    0.6874   26.0575 C   0  0  0  0  0  0  0  0  0  0  0  0
  -25.4640    1.5136   26.5058 C   0  0  0  0  0  0  0  0  0  0  0  0
  -25.8991    2.1115   27.7469 C   0  0  0  0  0  0  0  0  0  0  0  0
  -26.6964    1.2230   28.4855 C   0  0  0  0  0  0  0  0  0  0  0  0
  -29.2312   -1.2793   30.6845 C   0  0  0  0  0  0  0  0  0  0  0  0
  -29.6835   -2.5773   30.3745 C   0  0  0  0  0  0  0  0  0  0  0  0
  -30.7410   -3.1651   30.9921 C   0  0  0  0  0  0  0  0  0  0  0  0
  -31.2777   -2.5813   32.0999 C   0  0  0  0  0  0  0  0  0  0  0  0
  -30.8855   -1.3617   32.5405 C   0  0  0  0  0  0  0  0  0  0  0  0
  -29.9145   -0.6710   31.7987 C   0  0  0  0  0  0  0  0  0  0  0  0
  1  2  3  0
  1  3  1  0
  2  9  1  0
  3  4  2  0
  4  5  1  0
  5  6  2  0
  6  7  1  0
  7  8  2  0
  8  3  1  0
  9 10  2  0
 10 11  1  0
 11 12  2  0
 12 13  1  0
 13 14  2  0
 14  9  1  0
M  END

$$$$
