No_4357-gen_results/8p0m/2024-11-26-14-13-15/
     RDKit          3D

 16 16  0  0  0  0  0  0  0  0999 V2000
  -28.0162   -0.8135   28.8779 C   0  0  0  0  0  0  0  0  0  0  0  0
  -27.0636   -0.1190   28.6079 C   0  0  0  0  0  0  0  0  0  0  0  0
  -26.9287    1.1713   29.0083 C   0  0  0  0  0  0  0  0  0  0  0  0
  -27.9560    1.7411   29.7840 C   0  0  0  0  0  0  0  0  0  0  0  0
  -29.0569   -0.3271   29.7466 C   0  0  0  0  0  0  0  0  0  0  0  0
  -28.9828    0.9722   30.1516 C   0  0  0  0  0  0  0  0  0  0  0  0
  -25.8815   -0.6260   27.7945 C   0  0  0  0  0  0  0  0  0  0  0  0
  -25.4215    0.1302   26.7096 C   0  0  0  0  0  0  0  0  0  0  0  0
  -25.0332   -1.6821   28.2396 C   0  0  0  0  0  0  0  0  0  0  0  0
  -24.3977   -1.7439   29.4802 C   0  0  0  0  0  0  0  0  0  0  0  0
  -24.0215   -0.5559   30.1742 C   0  0  0  0  0  0  0  0  0  0  0  0
  -23.8324   -0.7433   31.5816 C   0  0  0  0  0  0  0  0  0  0  0  0
  -23.7157    0.6077   29.6024 C   0  0  0  0  0  0  0  0  0  0  0  0
  -22.4962    0.7047   28.8169 C   0  0  0  0  0  0  0  0  0  0  0  0
  -22.2939    1.7593   27.8704 C   0  0  0  0  0  0  0  0  0  0  0  0
  -23.2788    2.5950   27.7376 N   0  0  0  0  0  0  0  0  0  0  0  0
  2  7  1  0
  7  8  1  0
  7  9  1  0
  9 10  1  0
 10 11  1  0
 11 12  1  0
 11 13  1  0
 13 14  1  0
 14 15  2  3
 15 16  1  0
  1  2  2  0
  2  3  1  0
  3  4  2  0
  4  6  1  0
  6  5  2  0
  5  1  1  0
M  END

$$$$
