No_4875-gen_results/8p0m/2024-11-26-14-13-15/
     RDKit          3D

 14 15  0  0  0  0  0  0  0  0999 V2000
  -28.0162   -0.8135   28.8779 C   0  0  0  0  0  0  0  0  0  0  0  0
  -28.4690   -0.7850   29.8287 C   0  0  0  0  0  0  0  0  0  0  0  0
  -26.5042   -0.7777   28.8766 C   0  0  0  0  0  0  0  0  0  0  0  0
  -25.8103   -0.8531   30.1028 C   0  0  0  0  0  0  0  0  0  0  0  0
  -27.9906   -0.8916   31.2257 C   0  0  0  0  0  0  0  0  0  0  0  0
  -26.6042   -0.8676   31.2652 C   0  0  0  0  0  0  0  0  0  0  0  0
  -24.4452   -0.9530   30.3506 C   0  0  0  0  0  0  0  0  0  0  0  0
  -23.8019   -0.3041   31.2734 C   0  0  0  0  0  0  0  0  0  0  0  0
  -24.5768   -0.1731   32.5372 C   0  0  0  0  0  0  0  0  0  0  0  0
  -25.9505   -0.4771   32.5244 C   0  0  0  0  0  0  0  0  0  0  0  0
  -25.7459   -0.8360   27.7864 F   0  0  0  0  0  0  0  0  0  0  0  0
  -30.1059   -0.8930   29.8050 C   0  0  0  0  0  0  0  0  0  0  0  0
  -30.7516   -0.0392   30.4770 O   0  0  0  0  0  0  0  0  0  0  0  0
  -30.6366   -1.6915   29.0670 O   0  0  0  0  0  0  0  0  0  0  0  0
  3 11  1  0
  2 12  1  0
 12 13  1  0
 12 14  2  0
  6 10  1  0
 10  9  2  0
  9  8  1  0
  8  7  2  0
  7  4  1  0
  1  2  2  0
  2  5  1  0
  5  6  2  0
  6  4  1  0
  4  3  2  0
  3  1  1  0
M  END

$$$$
