No_4065-gen_results/8p0m/2024-11-26-14-13-15/
     RDKit          3D

 35 38  0  0  0  0  0  0  0  0999 V2000
  -28.0162   -0.8135   28.8779 C   0  0  0  0  0  0  0  0  0  0  0  0
  -28.4690   -0.7850   29.8287 C   0  0  0  0  0  0  0  0  0  0  0  0
  -27.1356    0.2359   28.5352 C   0  0  0  0  0  0  0  0  0  0  0  0
  -26.8745    1.2825   29.3982 C   0  0  0  0  0  0  0  0  0  0  0  0
  -28.3613    0.1987   30.9244 C   0  0  0  0  0  0  0  0  0  0  0  0
  -27.5277    1.2234   30.6356 C   0  0  0  0  0  0  0  0  0  0  0  0
  -26.3987    0.2949   27.2279 C   0  0  0  0  0  0  0  0  0  0  0  0
  -25.0392    0.2356   27.3538 C   0  0  0  0  0  0  0  0  0  0  0  0
  -24.4371    0.0057   28.5832 C   0  0  0  0  0  0  0  0  0  0  0  0
  -22.9453    0.2644   28.6076 C   0  0  0  0  0  0  0  0  0  0  0  0
  -22.1225   -0.3189   29.5575 C   0  0  0  0  0  0  0  0  0  0  0  0
  -22.7751   -0.9744   30.6212 C   0  0  0  0  0  0  0  0  0  0  0  0
  -24.6992   -0.8579   29.6834 C   0  0  0  0  0  0  0  0  0  0  0  0
  -23.9190   -1.3319   30.6284 C   0  0  0  0  0  0  0  0  0  0  0  0
  -27.1143    0.4688   26.0672 C   0  0  0  0  0  0  0  0  0  0  0  0
  -28.2684    0.7206   25.9138 N   0  0  0  0  0  0  0  0  0  0  0  0
  -29.0395    1.1667   26.8951 C   0  0  0  0  0  0  0  0  0  0  0  0
  -30.5596    1.3775   26.4603 C   0  0  0  0  0  0  0  0  0  0  0  0
  -28.9585    0.4016   24.6904 C   0  0  0  0  0  0  0  0  0  0  0  0
  -26.3217    0.2987   25.0144 O   0  0  0  0  0  0  0  0  0  0  0  0
  -30.2722    0.5540   24.3899 C   0  0  0  0  0  0  0  0  0  0  0  0
  -31.4333    1.9154   27.5371 C   0  0  0  0  0  0  0  0  0  0  0  0
  -30.9910    1.0529   25.2739 C   0  0  0  0  0  0  0  0  0  0  0  0
  -32.4418    1.6651   27.7588 O   0  0  0  0  0  0  0  0  0  0  0  0
  -30.8261    2.9994   28.1818 O   0  0  0  0  0  0  0  0  0  0  0  0
  -29.5212   -1.8995   30.3019 C   0  0  0  0  0  0  0  0  0  0  0  0
  -29.3145   -2.9277   30.6822 O   0  0  0  0  0  0  0  0  0  0  0  0
  -30.8485   -1.6492   29.8891 O   0  0  0  0  0  0  0  0  0  0  0  0
  -31.0909    3.2091   29.5353 C   0  0  0  0  0  0  0  0  0  0  0  0
  -31.6355    2.5596   30.2559 C   0  0  0  0  0  0  0  0  0  0  0  0
  -31.8025    2.8187   31.6852 C   0  0  0  0  0  0  0  0  0  0  0  0
  -31.2449    4.0104   32.1407 C   0  0  0  0  0  0  0  0  0  0  0  0
  -30.3286    4.4587   29.9598 C   0  0  0  0  0  0  0  0  0  0  0  0
  -30.5112    4.8193   31.3022 C   0  0  0  0  0  0  0  0  0  0  0  0
  -29.8895    6.0834   31.8049 C   0  0  0  0  0  0  0  0  0  0  0  0
  3  7  1  0
  7  8  2  3
  8  9  1  0
  7 15  1  0
 15 16  1  0
 16 17  1  0
 16 19  1  0
 15 20  2  0
 19 21  1  0
 18 22  1  0
 18 23  1  0
 22 24  2  0
 22 25  1  0
  2 26  1  0
 26 27  2  0
 26 28  1  0
 25 29  1  0
 34 35  1  0
 17 18  1  0
 23 21  1  0
 29 30  2  0
 30 31  1  0
 31 32  2  0
 32 34  1  0
 34 33  2  0
 33 29  1  0
  1  2  2  0
  2  5  1  0
  5  6  2  0
  6  4  1  0
  4  3  2  0
  3  1  1  0
  9 10  2  0
 10 11  1  0
 11 12  2  0
 12 14  1  0
 14 13  2  0
 13  9  1  0
M  END

$$$$
