No_4670-gen_results/8p0m/2024-11-26-14-13-15/
     RDKit          3D

 11 11  0  0  0  0  0  0  0  0999 V2000
  -28.1493   -0.8198   28.9079 Cl  0  0  0  0  0  0  0  0  0  0  0  0
  -28.5324   -0.0471   29.7727 C   0  0  0  0  0  0  0  0  0  0  0  0
  -27.6515    0.7172   30.3086 F   0  0  0  0  0  0  0  0  0  0  0  0
  -29.8669    0.1151   30.2289 C   0  0  0  0  0  0  0  0  0  0  0  0
  -30.9892   -0.7148   30.0131 Cl  0  0  0  0  0  0  0  0  0  0  0  0
  -30.0847    1.1274   31.3530 C   0  0  0  0  0  0  0  0  0  0  0  0
  -30.2315    0.7415   32.5564 C   0  0  0  0  0  0  0  0  0  0  0  0
  -30.4398    1.7257   33.6028 C   0  0  0  0  0  0  0  0  0  0  0  0
  -30.4035    3.0859   33.2248 C   0  0  0  0  0  0  0  0  0  0  0  0
  -30.1780    3.4134   31.9031 C   0  0  0  0  0  0  0  0  0  0  0  0
  -29.9442    2.4539   30.9075 C   0  0  0  0  0  0  0  0  0  0  0  0
  1  2  1  0
  2  3  1  0
  2  4  1  0
  4  5  1  0
  4  6  1  0
  6  7  2  0
  7  8  1  0
  8  9  2  0
  9 10  1  0
 10 11  2  0
 11  6  1  0
M  END

$$$$
