No_4536-gen_results/8p0m/2024-11-26-14-13-15/
     RDKit          3D

 13 14  0  0  0  0  0  0  0  0999 V2000
  -28.0162   -0.8135   28.8779 C   0  0  0  0  0  0  0  0  0  0  0  0
  -27.0636   -0.1190   28.6079 C   0  0  0  0  0  0  0  0  0  0  0  0
  -26.9716    0.7139   27.5060 C   0  0  0  0  0  0  0  0  0  0  0  0
  -25.8205    1.4909   27.1160 C   0  0  0  0  0  0  0  0  0  0  0  0
  -24.8579    1.3421   27.6008 C   0  0  0  0  0  0  0  0  0  0  0  0
  -23.5687    2.1107   27.3209 C   0  0  0  0  0  0  0  0  0  0  0  0
  -22.3866    1.9588   28.0825 C   0  0  0  0  0  0  0  0  0  0  0  0
  -22.4117    0.9982   29.1111 C   0  0  0  0  0  0  0  0  0  0  0  0
  -23.5355    0.3332   29.4614 C   0  0  0  0  0  0  0  0  0  0  0  0
  -24.6529    0.4503   28.7643 C   0  0  0  0  0  0  0  0  0  0  0  0
  -25.7524   -0.2793   29.2070 C   0  0  0  0  0  0  0  0  0  0  0  0
  -29.2750   -0.1271   29.1728 C   0  0  0  0  0  0  0  0  0  0  0  0
  -30.2021   -0.5039   28.4882 O   0  0  0  0  0  0  0  0  0  0  0  0
  1  2  2  3
  2  3  1  0
  3  4  1  0
  4  5  1  0
  2 11  1  0
 10 11  1  0
  1 12  1  0
 12 13  2  0
  5  6  2  0
  6  7  1  0
  7  8  2  0
  8  9  1  0
  9 10  2  0
 10  5  1  0
M  END

$$$$
