No_4805-gen_results/8p0m/2024-11-26-14-13-15/
     RDKit          3D

 17 18  0  0  0  0  0  0  0  0999 V2000
  -28.0162   -0.8135   28.8779 C   0  0  0  0  0  0  0  0  0  0  0  0
  -27.0636   -0.1189   28.6079 C   0  0  0  0  0  0  0  0  0  0  0  0
  -26.9287    1.1713   29.0083 C   0  0  0  0  0  0  0  0  0  0  0  0
  -27.9560    1.7411   29.7840 C   0  0  0  0  0  0  0  0  0  0  0  0
  -29.0569   -0.3271   29.7466 C   0  0  0  0  0  0  0  0  0  0  0  0
  -28.9828    0.9722   30.1516 C   0  0  0  0  0  0  0  0  0  0  0  0
  -25.9663   -0.5923   27.8447 N   0  0  0  0  0  0  0  0  0  0  0  0
  -25.3293    0.0812   26.8669 C   0  0  0  0  0  0  0  0  0  0  0  0
  -25.1772   -1.7279   28.2922 C   0  0  0  0  0  0  0  0  0  0  0  0
  -24.4941   -1.6397   29.5531 C   0  0  0  0  0  0  0  0  0  0  0  0
  -23.5531   -0.8095   29.6678 C   0  0  0  0  0  0  0  0  0  0  0  0
  -22.8034   -0.6507   30.9098 C   0  0  0  0  0  0  0  0  0  0  0  0
  -23.4047   -1.2709   32.0225 C   0  0  0  0  0  0  0  0  0  0  0  0
  -24.6042   -1.9040   31.9579 C   0  0  0  0  0  0  0  0  0  0  0  0
  -25.1480   -2.1483   30.6749 C   0  0  0  0  0  0  0  0  0  0  0  0
  -24.5927    1.2378   27.0973 C   0  0  0  0  0  0  0  0  0  0  0  0
  -23.9812    1.9674   26.0228 C   0  0  0  0  0  0  0  0  0  0  0  0
  2  7  1  0
  7  8  1  0
  7  9  1  0
  9 10  1  0
  8 16  2  3
 16 17  1  0
  1  2  2  0
  2  3  1  0
  3  4  2  0
  4  6  1  0
  6  5  2  0
  5  1  1  0
 10 11  2  0
 11 12  1  0
 12 13  2  0
 13 14  1  0
 14 15  2  0
 15 10  1  0
M  END

$$$$
