No_4326-gen_results/8p0m/2024-11-26-14-13-15/
     RDKit          3D

 15 15  0  0  0  0  0  0  0  0999 V2000
  -28.1493   -0.8198   28.9079 Cl  0  0  0  0  0  0  0  0  0  0  0  0
  -26.9116   -0.0797   28.9452 C   0  0  0  0  0  0  0  0  0  0  0  0
  -25.9665   -0.2123   29.6235 C   0  0  0  0  0  0  0  0  0  0  0  0
  -24.7620    0.6059   29.6315 C   0  0  0  0  0  0  0  0  0  0  0  0
  -23.5363    0.5029   30.3901 C   0  0  0  0  0  0  0  0  0  0  0  0
  -26.4369    0.7538   27.7144 C   0  0  0  0  0  0  0  0  0  0  0  0
  -25.4227    1.4752   27.4932 C   0  0  0  0  0  0  0  0  0  0  0  0
  -24.4234    1.4375   28.4648 C   0  0  0  0  0  0  0  0  0  0  0  0
  -23.2586    2.0516   28.3604 N   0  0  0  0  0  0  0  0  0  0  0  0
  -22.8387   -0.2256   30.4550 O   0  0  0  0  0  0  0  0  0  0  0  0
  -23.5932    1.5281   31.4448 O   0  0  0  0  0  0  0  0  0  0  0  0
  -22.5924    2.2041   27.0250 C   0  0  0  0  0  0  0  0  0  0  0  0
  -27.5104    0.7599   26.7038 F   0  0  0  0  0  0  0  0  0  0  0  0
  -23.3000    2.6218   26.0292 C   0  0  0  0  0  0  0  0  0  0  0  0
  -24.6325    2.1467   25.6401 C   0  0  0  0  0  0  0  0  0  0  0  0
  1  2  1  0
  4  5  1  0
  8  9  1  0
  5 10  2  0
  5 11  1  0
  9 12  1  0
  6 13  1  0
 12 14  1  0
 14 15  2  0
  2  3  2  0
  3  4  1  0
  4  8  2  0
  8  7  1  0
  7  6  2  0
  6  2  1  0
M  END

$$$$
