No_4617-gen_results/8p0m/2024-11-26-14-13-15/
     RDKit          3D

 24 27  0  0  0  0  0  0  0  0999 V2000
  -28.0162   -0.8135   28.8779 C   0  0  0  0  0  0  0  0  0  0  0  0
  -28.4690   -0.7850   29.8287 C   0  0  0  0  0  0  0  0  0  0  0  0
  -26.5042   -0.7777   28.8766 C   0  0  0  0  0  0  0  0  0  0  0  0
  -25.8103   -0.8531   30.1028 C   0  0  0  0  0  0  0  0  0  0  0  0
  -27.9906   -0.8916   31.2257 C   0  0  0  0  0  0  0  0  0  0  0  0
  -26.6042   -0.8676   31.2652 C   0  0  0  0  0  0  0  0  0  0  0  0
  -30.3284   -0.8332   29.8584 S   0  0  0  0  0  0  0  0  0  0  0  0
  -30.8651    0.0372   30.8149 O   0  0  0  0  0  0  0  0  0  0  0  0
  -30.6897   -2.2198   30.0620 O   0  0  0  0  0  0  0  0  0  0  0  0
  -30.6977   -0.3868   28.4072 N   0  0  0  0  0  0  0  0  0  0  0  0
  -25.6383   -0.7072   27.6884 C   0  0  0  0  0  0  0  0  0  0  0  0
  -25.2969    0.6616   27.3185 C   0  0  0  0  0  0  0  0  0  0  0  0
  -23.9763    0.9320   27.6604 C   0  0  0  0  0  0  0  0  0  0  0  0
  -23.2931    2.0254   27.0265 C   0  0  0  0  0  0  0  0  0  0  0  0
  -23.9708    2.8406   26.1730 C   0  0  0  0  0  0  0  0  0  0  0  0
  -25.9394    1.3271   26.2910 C   0  0  0  0  0  0  0  0  0  0  0  0
  -25.2895    2.4814   25.7922 C   0  0  0  0  0  0  0  0  0  0  0  0
  -30.3208    0.6391   27.8000 C   0  0  0  0  0  0  0  0  0  0  0  0
  -31.3334    1.4249   27.1365 C   0  0  0  0  0  0  0  0  0  0  0  0
  -30.9225    2.5531   26.4479 C   0  0  0  0  0  0  0  0  0  0  0  0
  -29.5461    2.9299   26.2728 C   0  0  0  0  0  0  0  0  0  0  0  0
  -28.6472    2.1356   26.9539 C   0  0  0  0  0  0  0  0  0  0  0  0
  -28.9466    1.0909   27.6498 C   0  0  0  0  0  0  0  0  0  0  0  0
  -28.1117    0.7175   28.5310 O   0  0  0  0  0  0  0  0  0  0  0  0
  2  7  1  0
  7  8  2  0
  7  9  2  0
  7 10  1  0
  3 11  1  0
 11 12  1  0
 10 18  1  0
  1 24  1  0
 23 24  1  0
 12 13  2  0
 13 14  1  0
 14 15  2  0
 15 17  1  0
 17 16  2  0
 16 12  1  0
 18 19  2  0
 19 20  1  0
 20 21  2  0
 21 22  1  0
 22 23  2  0
 23 18  1  0
  1  2  1  0
  2  5  2  0
  5  6  1  0
  6  4  2  0
  4  3  1  0
  3  1  2  0
M  END

$$$$
