No_4726-gen_results/8p0m/2024-11-26-14-13-15/
     RDKit          3D

 17 18  0  0  0  0  0  0  0  0999 V2000
  -28.0162   -0.8135   28.8779 C   0  0  0  0  0  0  0  0  0  0  0  0
  -28.4690   -0.7850   29.8287 C   0  0  0  0  0  0  0  0  0  0  0  0
  -27.0871    0.2903   28.6377 C   0  0  0  0  0  0  0  0  0  0  0  0
  -26.8317    1.2487   29.5869 C   0  0  0  0  0  0  0  0  0  0  0  0
  -28.3914    0.0801   31.0065 C   0  0  0  0  0  0  0  0  0  0  0  0
  -29.0884   -0.0323   32.2295 C   0  0  0  0  0  0  0  0  0  0  0  0
  -27.4751    1.1274   30.7658 C   0  0  0  0  0  0  0  0  0  0  0  0
  -26.3167    0.3795   27.3095 C   0  0  0  0  0  0  0  0  0  0  0  0
  -24.9563    0.2723   27.4846 C   0  0  0  0  0  0  0  0  0  0  0  0
  -24.1338    1.2276   26.7477 C   0  0  0  0  0  0  0  0  0  0  0  0
  -23.4513    2.1766   27.2806 C   0  0  0  0  0  0  0  0  0  0  0  0
  -22.7170    1.8350   28.4900 C   0  0  0  0  0  0  0  0  0  0  0  0
  -23.1493    0.6546   29.1401 C   0  0  0  0  0  0  0  0  0  0  0  0
  -24.3744   -0.0865   28.7377 C   0  0  0  0  0  0  0  0  0  0  0  0
  -26.9277    0.2776   26.0988 C   0  0  0  0  0  0  0  0  0  0  0  0
  -27.0055    1.2366   25.5521 F   0  0  0  0  0  0  0  0  0  0  0  0
  -28.1424   -0.3303   26.1572 F   0  0  0  0  0  0  0  0  0  0  0  0
  5  6  1  0
  3  8  1  0
  8  9  1  0
  8 15  1  0
 15 16  1  0
 15 17  1  0
  9 10  2  0
 10 11  1  0
 11 12  2  0
 12 13  1  0
 13 14  2  0
 14  9  1  0
  1  2  2  0
  2  5  1  0
  5  7  2  0
  7  4  1  0
  4  3  2  0
  3  1  1  0
M  END

$$$$
