No_4799-gen_results/8p0m/2024-11-26-14-13-15/
     RDKit          3D

 13 13  0  0  0  0  0  0  0  0999 V2000
  -28.1229   -1.3353   28.4874 O   0  0  0  0  0  0  0  0  0  0  0  0
  -27.4806   -0.4044   28.7094 C   0  0  0  0  0  0  0  0  0  0  0  0
  -26.3804   -0.0867   27.9394 C   0  0  0  0  0  0  0  0  0  0  0  0
  -27.7306    0.3455   29.8481 F   0  0  0  0  0  0  0  0  0  0  0  0
  -26.5062    0.7764   26.8083 C   0  0  0  0  0  0  0  0  0  0  0  0
  -25.3148    1.0991   26.0539 C   0  0  0  0  0  0  0  0  0  0  0  0
  -24.0577    0.8290   26.5651 C   0  0  0  0  0  0  0  0  0  0  0  0
  -23.9569    0.1737   27.7860 C   0  0  0  0  0  0  0  0  0  0  0  0
  -25.0447   -0.2619   28.4722 C   0  0  0  0  0  0  0  0  0  0  0  0
  -22.7007   -0.0122   28.3094 O   0  0  0  0  0  0  0  0  0  0  0  0
  -22.2754    0.6654   29.4896 C   0  0  0  0  0  0  0  0  0  0  0  0
  -27.6358    0.8320   26.2094 F   0  0  0  0  0  0  0  0  0  0  0  0
  -24.8598   -0.9878   29.5542 F   0  0  0  0  0  0  0  0  0  0  0  0
  1  2  2  0
  2  3  1  0
  2  4  1  0
  8 10  1  0
 10 11  1  0
  5 12  1  0
  9 13  1  0
  3  5  2  0
  5  6  1  0
  6  7  2  0
  7  8  1  0
  8  9  2  0
  9  3  1  0
M  END

$$$$
