No_484-gen_results/8p0m/2024-11-26-14-13-15/
     RDKit          3D

 18 20  0  0  0  0  0  0  0  0999 V2000
  -28.0162   -0.8135   28.8779 C   0  0  0  0  0  0  0  0  0  0  0  0
  -27.0636   -0.1189   28.6079 C   0  0  0  0  0  0  0  0  0  0  0  0
  -25.7923   -0.4302   29.0761 C   0  0  0  0  0  0  0  0  0  0  0  0
  -25.5756   -1.5654   29.9363 C   0  0  0  0  0  0  0  0  0  0  0  0
  -26.7354   -2.3004   30.2173 C   0  0  0  0  0  0  0  0  0  0  0  0
  -27.9184   -1.9537   29.7629 C   0  0  0  0  0  0  0  0  0  0  0  0
  -27.1057    1.1023   27.7593 C   0  0  0  0  0  0  0  0  0  0  0  0
  -26.7157    2.2350   27.9945 C   0  0  0  0  0  0  0  0  0  0  0  0
  -27.6806    0.8547   26.4259 C   0  0  0  0  0  0  0  0  0  0  0  0
  -26.0318    2.5935   29.1910 C   0  0  0  0  0  0  0  0  0  0  0  0
  -26.8615    3.3798   27.0755 C   0  0  0  0  0  0  0  0  0  0  0  0
  -27.4568    3.2690   25.8921 C   0  0  0  0  0  0  0  0  0  0  0  0
  -27.8759    1.9029   25.5140 C   0  0  0  0  0  0  0  0  0  0  0  0
  -24.6288    2.4459   29.3090 C   0  0  0  0  0  0  0  0  0  0  0  0
  -26.7758    2.8501   30.4049 C   0  0  0  0  0  0  0  0  0  0  0  0
  -26.2388    2.6327   31.6617 C   0  0  0  0  0  0  0  0  0  0  0  0
  -23.9762    2.4936   30.6348 C   0  0  0  0  0  0  0  0  0  0  0  0
  -24.7937    2.6144   31.7993 C   0  0  0  0  0  0  0  0  0  0  0  0
  2  7  1  0
  8 10  1  0
  1  2  2  0
  2  3  1  0
  3  4  2  0
  4  5  1  0
  5  6  2  0
  6  1  1  0
  7  8  2  0
  8 11  1  0
 11 12  2  0
 12 13  1  0
 13  9  2  0
  9  7  1  0
 10 14  2  0
 14 17  1  0
 17 18  2  0
 18 16  1  0
 16 15  2  0
 15 10  1  0
M  END

$$$$
