No_4136-gen_results/8p0m/2024-11-26-14-13-15/
     RDKit          3D

 22 24  0  0  0  0  0  0  0  0999 V2000
  -28.0162   -0.8135   28.8779 C   0  0  0  0  0  0  0  0  0  0  0  0
  -28.4690   -0.7850   29.8287 C   0  0  0  0  0  0  0  0  0  0  0  0
  -26.5042   -0.7777   28.8766 C   0  0  0  0  0  0  0  0  0  0  0  0
  -25.8103   -0.8531   30.1028 C   0  0  0  0  0  0  0  0  0  0  0  0
  -27.9906   -0.8916   31.2257 C   0  0  0  0  0  0  0  0  0  0  0  0
  -26.6042   -0.8676   31.2652 C   0  0  0  0  0  0  0  0  0  0  0  0
  -30.0739   -0.8360   29.8615 C   0  0  0  0  0  0  0  0  0  0  0  0
  -30.6891   -1.6554   30.2229 O   0  0  0  0  0  0  0  0  0  0  0  0
  -30.6022    0.4333   29.5984 N   0  0  0  0  0  0  0  0  0  0  0  0
  -29.9094    1.5925   29.2464 C   0  0  0  0  0  0  0  0  0  0  0  0
  -29.9877    2.2437   28.2672 C   0  0  0  0  0  0  0  0  0  0  0  0
  -29.2304    3.4780   27.9526 C   0  0  0  0  0  0  0  0  0  0  0  0
  -28.3436    3.6549   28.4977 C   0  0  0  0  0  0  0  0  0  0  0  0
  -28.6792    1.8987   30.0052 C   0  0  0  0  0  0  0  0  0  0  0  0
  -27.9520    3.0465   29.7374 C   0  0  0  0  0  0  0  0  0  0  0  0
  -25.6798   -0.6625   27.6608 C   0  0  0  0  0  0  0  0  0  0  0  0
  -25.3269    0.6924   27.3206 C   0  0  0  0  0  0  0  0  0  0  0  0
  -25.4533    1.1026   26.0282 C   0  0  0  0  0  0  0  0  0  0  0  0
  -25.0844    2.4530   25.7600 C   0  0  0  0  0  0  0  0  0  0  0  0
  -24.3290    3.2479   26.6685 C   0  0  0  0  0  0  0  0  0  0  0  0
  -24.6433    1.5250   28.2575 C   0  0  0  0  0  0  0  0  0  0  0  0
  -24.2196    2.8116   27.9357 C   0  0  0  0  0  0  0  0  0  0  0  0
  2  7  1  0
  7  8  2  0
  7  9  1  0
  9 10  1  0
  3 16  1  0
 16 17  1  0
 10 11  2  0
 11 12  1  0
 12 13  2  0
 13 15  1  0
 15 14  2  0
 14 10  1  0
 17 18  2  0
 18 19  1  0
 19 20  2  0
 20 22  1  0
 22 21  2  0
 21 17  1  0
  1  2  2  0
  2  5  1  0
  5  6  2  0
  6  4  1  0
  4  3  2  0
  3  1  1  0
M  END

$$$$
