No_425-gen_results/8p0m/2024-11-26-14-13-15/
     RDKit          3D

 15 15  0  0  0  0  0  0  0  0999 V2000
  -28.0162   -0.8135   28.8779 C   0  0  0  0  0  0  0  0  0  0  0  0
  -28.4690   -0.7850   29.8287 C   0  0  0  0  0  0  0  0  0  0  0  0
  -28.1960    0.3478   28.0550 C   0  0  0  0  0  0  0  0  0  0  0  0
  -29.0191    1.3501   28.3782 C   0  0  0  0  0  0  0  0  0  0  0  0
  -29.6249    1.2683   29.6012 C   0  0  0  0  0  0  0  0  0  0  0  0
  -29.3821    0.1816   30.4004 C   0  0  0  0  0  0  0  0  0  0  0  0
  -27.4497    0.3750   26.7070 C   0  0  0  0  0  0  0  0  0  0  0  0
  -26.4574    0.2602   26.6417 O   0  0  0  0  0  0  0  0  0  0  0  0
  -28.3104    0.3005   25.5503 N   0  0  0  0  0  0  0  0  0  0  0  0
  -29.6990    0.4348   25.5765 C   0  0  0  0  0  0  0  0  0  0  0  0
  -27.6466    0.2404   24.2878 C   0  0  0  0  0  0  0  0  0  0  0  0
  -30.4305    2.2656   30.0055 O   0  0  0  0  0  0  0  0  0  0  0  0
  -30.1791    2.9260   31.0864 C   0  0  0  0  0  0  0  0  0  0  0  0
  -30.3726    4.1885   31.1738 C   0  0  0  0  0  0  0  0  0  0  0  0
  -30.0784    4.9339   32.3664 C   0  0  0  0  0  0  0  0  0  0  0  0
  3  7  1  0
  7  8  2  0
  7  9  1  0
  9 10  1  0
  9 11  1  0
  5 12  1  0
 12 13  1  0
 13 14  2  3
 14 15  1  0
  1  2  2  0
  2  6  1  0
  6  5  2  0
  5  4  1  0
  4  3  2  0
  3  1  1  0
M  END

$$$$
