No_4636-gen_results/8p0m/2024-11-26-14-13-15/
     RDKit          3D

 18 19  0  0  0  0  0  0  0  0999 V2000
  -28.1229   -1.3353   28.4874 O   0  0  0  0  0  0  0  0  0  0  0  0
  -27.4806   -0.4044   28.7094 C   0  0  0  0  0  0  0  0  0  0  0  0
  -26.3804   -0.0867   27.9394 C   0  0  0  0  0  0  0  0  0  0  0  0
  -27.7306    0.3455   29.8481 F   0  0  0  0  0  0  0  0  0  0  0  0
  -26.5062    0.7764   26.8083 C   0  0  0  0  0  0  0  0  0  0  0  0
  -25.0418   -0.5004   28.2767 C   0  0  0  0  0  0  0  0  0  0  0  0
  -25.3567    1.0257   25.9728 C   0  0  0  0  0  0  0  0  0  0  0  0
  -23.8743   -0.1058   27.5371 C   0  0  0  0  0  0  0  0  0  0  0  0
  -24.0847    0.7224   26.3910 C   0  0  0  0  0  0  0  0  0  0  0  0
  -27.5631    1.0959   26.1939 O   0  0  0  0  0  0  0  0  0  0  0  0
  -28.1016    2.2571   26.5420 C   0  0  0  0  0  0  0  0  0  0  0  0
  -24.7821   -1.3682   29.4449 C   0  0  0  0  0  0  0  0  0  0  0  0
  -23.6112   -1.5560   29.9988 C   0  0  0  0  0  0  0  0  0  0  0  0
  -23.6349   -2.1740   31.2638 C   0  0  0  0  0  0  0  0  0  0  0  0
  -24.8273   -2.0129   31.9680 C   0  0  0  0  0  0  0  0  0  0  0  0
  -25.7566   -1.1902   31.3702 C   0  0  0  0  0  0  0  0  0  0  0  0
  -25.9453   -1.5386   30.0752 N   0  0  0  0  0  0  0  0  0  0  0  0
  -25.8714   -3.0441   30.5519 C   0  0  0  0  0  0  0  0  0  0  0  0
  1  2  2  0
  2  3  1  0
  2  4  1  0
  5 10  1  0
 10 11  1  0
  6 12  1  0
 13 14  1  0
 15 16  1  0
 12 17  1  0
 16 17  1  0
 17 18  1  0
 12 13  1  0
 14 15  1  0
  3  5  2  0
  5  7  1  0
  7  9  2  0
  9  8  1  0
  8  6  2  0
  6  3  1  0
M  END

$$$$
