No_4015-gen_results/8p0m/2024-11-26-14-13-15/
     RDKit          3D

 18 18  0  0  0  0  0  0  0  0999 V2000
  -28.0162   -0.8135   28.8779 C   0  0  0  0  0  0  0  0  0  0  0  0
  -28.4690   -0.7850   29.8287 C   0  0  0  0  0  0  0  0  0  0  0  0
  -26.5042   -0.7777   28.8766 C   0  0  0  0  0  0  0  0  0  0  0  0
  -25.8103   -0.8531   30.1028 C   0  0  0  0  0  0  0  0  0  0  0  0
  -27.9864   -0.8420   31.0657 C   0  0  0  0  0  0  0  0  0  0  0  0
  -26.6147   -0.8427   31.2304 C   0  0  0  0  0  0  0  0  0  0  0  0
  -24.1671   -0.7803   30.1705 Cl  0  0  0  0  0  0  0  0  0  0  0  0
  -30.0940   -0.8408   29.7899 C   0  0  0  0  0  0  0  0  0  0  0  0
  -30.6654   -0.1848   28.9764 O   0  0  0  0  0  0  0  0  0  0  0  0
  -30.7579   -1.5660   30.6420 O   0  0  0  0  0  0  0  0  0  0  0  0
  -25.7206   -0.7524   27.7663 F   0  0  0  0  0  0  0  0  0  0  0  0
  -30.5465    0.8417   28.5478 C   0  0  0  0  0  0  0  0  0  0  0  0
  -30.7733    1.9545   29.2613 C   0  0  0  0  0  0  0  0  0  0  0  0
  -31.5961    1.9342   30.3113 C   0  0  0  0  0  0  0  0  0  0  0  0
  -32.4764    0.9956   30.5783 C   0  0  0  0  0  0  0  0  0  0  0  0
  -33.4004    1.1107   31.6957 C   0  0  0  0  0  0  0  0  0  0  0  0
  -33.2637    2.2761   32.4862 C   0  0  0  0  0  0  0  0  0  0  0  0
  -34.1416    2.4448   33.6353 C   0  0  0  0  0  0  0  0  0  0  0  0
  4  7  1  0
  2  8  1  0
  8  9  1  0
  8 10  2  0
  3 11  1  0
  9 12  1  0
 12 13  2  3
 13 14  1  0
 14 15  2  3
 15 16  1  0
 16 17  2  3
 17 18  1  0
  1  2  2  0
  2  5  1  0
  5  6  2  0
  6  4  1  0
  4  3  2  0
  3  1  1  0
M  END

$$$$
