No_4791-gen_results/8p0m/2024-11-26-14-13-15/
     RDKit          3D

  6  5  0  0  0  0  0  0  0  0999 V2000
  -28.0162   -0.8135   28.8779 C   0  0  0  0  0  0  0  0  0  0  0  0
  -27.0636   -0.1189   28.6079 C   0  0  0  0  0  0  0  0  0  0  0  0
  -26.7751    0.5580   27.4144 C   0  0  0  0  0  0  0  0  0  0  0  0
  -25.5784    1.2379   27.0887 C   0  0  0  0  0  0  0  0  0  0  0  0
  -24.5214    1.2423   28.0467 C   0  0  0  0  0  0  0  0  0  0  0  0
  -24.7440    0.5657   29.2646 C   0  0  0  0  0  0  0  0  0  0  0  0
  1  2  3  0
  2  3  1  0
  3  4  2  3
  4  5  1  0
  5  6  2  0
M  END

$$$$
