No_4552-gen_results/8p0m/2024-11-26-14-13-15/
     RDKit          3D

 26 28  0  0  0  0  0  0  0  0999 V2000
  -28.0162   -0.8135   28.8779 C   0  0  0  0  0  0  0  0  0  0  0  0
  -27.0636   -0.1190   28.6079 C   0  0  0  0  0  0  0  0  0  0  0  0
  -26.9716    0.7139   27.5060 C   0  0  0  0  0  0  0  0  0  0  0  0
  -28.1053    0.7744   26.6421 C   0  0  0  0  0  0  0  0  0  0  0  0
  -29.2041    0.1179   27.0477 C   0  0  0  0  0  0  0  0  0  0  0  0
  -29.2127   -0.6088   28.1281 C   0  0  0  0  0  0  0  0  0  0  0  0
  -30.3709    0.2326   26.1381 C   0  0  0  0  0  0  0  0  0  0  0  0
  -31.3573   -0.3781   26.3731 N   0  0  0  0  0  0  0  0  0  0  0  0
  -30.1260    0.5621   24.8954 O   0  0  0  0  0  0  0  0  0  0  0  0
  -32.2654   -0.6557   25.9751 C   0  0  0  0  0  0  0  0  0  0  0  0
  -25.6676    1.4015   27.1252 C   0  0  0  0  0  0  0  0  0  0  0  0
  -24.9433    2.0104   28.2324 C   0  0  0  0  0  0  0  0  0  0  0  0
  -23.5518    2.2466   27.9437 C   0  0  0  0  0  0  0  0  0  0  0  0
  -23.0412    2.2073   26.6651 C   0  0  0  0  0  0  0  0  0  0  0  0
  -25.0000    1.2096   25.9061 C   0  0  0  0  0  0  0  0  0  0  0  0
  -23.7512    1.5632   25.7018 C   0  0  0  0  0  0  0  0  0  0  0  0
  -28.0977   -1.6286   30.1257 C   0  0  0  0  0  0  0  0  0  0  0  0
  -28.7894   -1.6717   30.9219 O   0  0  0  0  0  0  0  0  0  0  0  0
  -27.0153   -2.4988   30.0914 O   0  0  0  0  0  0  0  0  0  0  0  0
  -33.3302   -1.4729   26.4841 C   0  0  0  0  0  0  0  0  0  0  0  0
  -33.0947   -2.0580   27.6511 C   0  0  0  0  0  0  0  0  0  0  0  0
  -34.0188   -2.9015   28.2422 C   0  0  0  0  0  0  0  0  0  0  0  0
  -33.7539   -3.4919   29.5373 C   0  0  0  0  0  0  0  0  0  0  0  0
  -32.5153   -3.2164   30.1788 C   0  0  0  0  0  0  0  0  0  0  0  0
  -31.6137   -2.4010   29.5348 C   0  0  0  0  0  0  0  0  0  0  0  0
  -31.8554   -1.8614   28.3119 C   0  0  0  0  0  0  0  0  0  0  0  0
  5  7  1  0
  7  8  1  0
  7  9  2  0
  8 10  2  3
  3 11  1  0
  1 17  1  0
 17 18  1  0
 17 19  2  0
 10 20  1  0
 20 21  1  0
  1  2  2  0
  2  3  1  0
  3  4  2  0
  4  5  1  0
  5  6  2  0
  6  1  1  0
 11 12  2  0
 12 13  1  0
 13 14  2  0
 14 16  1  0
 16 15  2  0
 15 11  1  0
 21 22  2  0
 22 23  1  0
 23 24  2  0
 24 25  1  0
 25 26  2  0
 26 21  1  0
M  END

$$$$
