No_4753-gen_results/8p0m/2024-11-26-14-13-15/
     RDKit          3D

 35 38  0  0  0  0  0  0  0  0999 V2000
  -28.0162   -0.8135   28.8779 C   0  0  0  0  0  0  0  0  0  0  0  0
  -28.4690   -0.7850   29.8287 C   0  0  0  0  0  0  0  0  0  0  0  0
  -27.0871    0.2903   28.6377 C   0  0  0  0  0  0  0  0  0  0  0  0
  -26.8317    1.2487   29.5869 C   0  0  0  0  0  0  0  0  0  0  0  0
  -28.3914    0.0801   31.0065 C   0  0  0  0  0  0  0  0  0  0  0  0
  -27.4940    1.1521   30.7841 C   0  0  0  0  0  0  0  0  0  0  0  0
  -26.3819    0.3661   27.4556 O   0  0  0  0  0  0  0  0  0  0  0  0
  -25.7824    1.5446   27.0764 C   0  0  0  0  0  0  0  0  0  0  0  0
  -26.1067    2.4959   26.6537 C   0  0  0  0  0  0  0  0  0  0  0  0
  -24.2121    1.3565   27.2771 C   0  0  0  0  0  0  0  0  0  0  0  0
  -23.4150    2.4533   26.8773 C   0  0  0  0  0  0  0  0  0  0  0  0
  -25.3546    3.6798   26.2737 C   0  0  0  0  0  0  0  0  0  0  0  0
  -23.9552    3.5930   26.3594 C   0  0  0  0  0  0  0  0  0  0  0  0
  -23.6277    0.1688   27.8184 C   0  0  0  0  0  0  0  0  0  0  0  0
  -22.5059    0.3220   28.7367 C   0  0  0  0  0  0  0  0  0  0  0  0
  -21.8308   -0.2135   29.2674 C   0  0  0  0  0  0  0  0  0  0  0  0
  -29.6052   -2.1854   30.2738 Cl  0  0  0  0  0  0  0  0  0  0  0  0
  -22.2461   -1.4988   29.6218 C   0  0  0  0  0  0  0  0  0  0  0  0
  -23.5160   -1.9377   29.0278 C   0  0  0  0  0  0  0  0  0  0  0  0
  -24.2422   -1.0127   28.2072 C   0  0  0  0  0  0  0  0  0  0  0  0
  -23.9735   -3.1142   29.2514 F   0  0  0  0  0  0  0  0  0  0  0  0
  -27.6314    2.7469   26.4424 C   0  0  0  0  0  0  0  0  0  0  0  0
  -28.2340    3.6941   27.0182 N   0  0  0  0  0  0  0  0  0  0  0  0
  -29.1148    4.1838   27.2255 C   0  0  0  0  0  0  0  0  0  0  0  0
  -30.3047    3.5670   26.7447 C   0  0  0  0  0  0  0  0  0  0  0  0
  -28.3248    1.9583   25.5597 C   0  0  0  0  0  0  0  0  0  0  0  0
  -29.6580    1.8598   25.4036 C   0  0  0  0  0  0  0  0  0  0  0  0
  -30.5749    2.6784   25.8441 C   0  0  0  0  0  0  0  0  0  0  0  0
  -27.3233    2.1834   31.8958 C   0  0  0  0  0  0  0  0  0  0  0  0
  -27.4352    3.1689   31.6611 O   0  0  0  0  0  0  0  0  0  0  0  0
  -27.0211    1.6459   33.0521 O   0  0  0  0  0  0  0  0  0  0  0  0
  -27.1428    4.5503   27.8419 C   0  0  0  0  0  0  0  0  0  0  0  0
  -27.3087    4.6290   28.9550 C   0  0  0  0  0  0  0  0  0  0  0  0
  -26.3510    5.6132   29.6950 C   0  0  0  0  0  0  0  0  0  0  0  0
  -25.4547    6.1333   28.8357 N   0  0  0  0  0  0  0  0  0  0  0  0
  3  7  1  0
  7  8  1  0
 10 14  1  0
  2 17  1  0
 19 21  1  0
  9 22  1  0
 22 23  1  0
 23 24  1  0
 24 25  2  0
 22 26  1  0
 26 27  2  0
 25 28  1  0
 27 28  1  0
  6 29  1  0
 29 30  2  0
 29 31  1  0
 23 32  1  0
 32 33  2  3
 33 34  1  0
 34 35  2  0
 14 15  2  0
 15 16  1  0
 16 18  2  0
 18 19  1  0
 19 20  2  0
 20 14  1  0
  8  9  1  0
  9 12  2  0
 12 13  1  0
 13 11  2  0
 11 10  1  0
 10  8  2  0
  1  2  2  0
  2  5  1  0
  5  6  2  0
  6  4  1  0
  4  3  2  0
  3  1  1  0
M  END

$$$$
