No_409-gen_results/8p0m/2024-11-26-14-13-15/
     RDKit          3D

 11 11  0  0  0  0  0  0  0  0999 V2000
  -28.0727   -1.2542   28.5316 F   0  0  0  0  0  0  0  0  0  0  0  0
  -27.0607   -0.6291   28.8721 C   0  0  0  0  0  0  0  0  0  0  0  0
  -27.1759    0.6153   29.3693 C   0  0  0  0  0  0  0  0  0  0  0  0
  -25.7305   -1.2692   28.7241 C   0  0  0  0  0  0  0  0  0  0  0  0
  -24.5526   -0.5078   29.0132 C   0  0  0  0  0  0  0  0  0  0  0  0
  -25.9465    1.3753   29.6814 C   0  0  0  0  0  0  0  0  0  0  0  0
  -24.6746    0.8198   29.5066 C   0  0  0  0  0  0  0  0  0  0  0  0
  -23.4703    1.5605   29.7756 C   0  0  0  0  0  0  0  0  0  0  0  0
  -22.9719    2.1612   28.8638 F   0  0  0  0  0  0  0  0  0  0  0  0
  -23.8260    2.5767   30.7484 F   0  0  0  0  0  0  0  0  0  0  0  0
  -22.5587    0.8124   30.3868 F   0  0  0  0  0  0  0  0  0  0  0  0
  1  2  1  0
  7  8  1  0
  8  9  1  0
  8 10  1  0
  8 11  1  0
  2  3  2  0
  3  6  1  0
  6  7  2  0
  7  5  1  0
  5  4  2  0
  4  2  1  0
M  END

$$$$
