No_4808-gen_results/8p0m/2024-11-26-14-13-15/
     RDKit          3D

 13 14  0  0  0  0  0  0  0  0999 V2000
  -28.0162   -0.8135   28.8779 C   0  0  0  0  0  0  0  0  0  0  0  0
  -27.0636   -0.1189   28.6079 C   0  0  0  0  0  0  0  0  0  0  0  0
  -26.9716    0.7139   27.5060 C   0  0  0  0  0  0  0  0  0  0  0  0
  -28.1053    0.7744   26.6421 C   0  0  0  0  0  0  0  0  0  0  0  0
  -29.2041    0.1179   27.0477 C   0  0  0  0  0  0  0  0  0  0  0  0
  -30.3488    0.2568   26.2203 C   0  0  0  0  0  0  0  0  0  0  0  0
  -29.1817   -0.6758   28.1173 C   0  0  0  0  0  0  0  0  0  0  0  0
  -30.3285   -0.0553   25.0162 O   0  0  0  0  0  0  0  0  0  0  0  0
  -31.5920    0.4926   26.7622 N   0  0  0  0  0  0  0  0  0  0  0  0
  -31.7619    0.8337   28.1498 C   0  0  0  0  0  0  0  0  0  0  0  0
  -33.1056    0.8821   28.4426 C   0  0  0  0  0  0  0  0  0  0  0  0
  -32.7645    0.3935   25.9752 C   0  0  0  0  0  0  0  0  0  0  0  0
  -33.7688    0.7270   27.1990 C   0  0  0  0  0  0  0  0  0  0  0  0
  5  6  1  0
  6  8  2  0
  6  9  1  0
  9 10  1  0
 10 11  2  0
  9 12  1  0
 11 13  1  0
 12 13  1  0
  1  2  2  0
  2  3  1  0
  3  4  2  0
  4  5  1  0
  5  7  2  0
  7  1  1  0
M  END

$$$$
