No_4074-gen_results/8p0m/2024-11-26-14-13-15/
     RDKit          3D

 17 18  0  0  0  0  0  0  0  0999 V2000
  -28.0162   -0.8135   28.8779 C   0  0  0  0  0  0  0  0  0  0  0  0
  -27.0636   -0.1189   28.6079 C   0  0  0  0  0  0  0  0  0  0  0  0
  -26.8756    1.1325   28.9134 C   0  0  0  0  0  0  0  0  0  0  0  0
  -25.6883    1.9515   28.5672 C   0  0  0  0  0  0  0  0  0  0  0  0
  -25.5093    3.3042   28.8859 C   0  0  0  0  0  0  0  0  0  0  0  0
  -29.0972   -0.2347   29.6994 C   0  0  0  0  0  0  0  0  0  0  0  0
  -29.0303    1.0730   30.0324 C   0  0  0  0  0  0  0  0  0  0  0  0
  -27.8550    1.8594   29.6796 C   0  0  0  0  0  0  0  0  0  0  0  0
  -24.6654    1.3370   27.7414 C   0  0  0  0  0  0  0  0  0  0  0  0
  -23.5581    2.0464   27.2906 C   0  0  0  0  0  0  0  0  0  0  0  0
  -26.3100    3.9567   29.6991 N   0  0  0  0  0  0  0  0  0  0  0  0
  -25.9839    5.2678   30.0990 C   0  0  0  0  0  0  0  0  0  0  0  0
  -22.4015    1.3302   27.0283 C   0  0  0  0  0  0  0  0  0  0  0  0
  -26.3207    5.6435   31.3978 C   0  0  0  0  0  0  0  0  0  0  0  0
  -21.1771    2.1018   27.1940 C   0  0  0  0  0  0  0  0  0  0  0  0
  -27.6085    3.2717   30.0950 C   0  0  0  0  0  0  0  0  0  0  0  0
  -26.8806    6.5567   31.6844 C   0  0  0  0  0  0  0  0  0  0  0  0
  3  4  1  0
  4  5  1  0
  4  9  1  0
  9 10  1  0
  5 11  1  0
 11 12  1  0
 10 13  2  3
 12 14  2  3
 13 15  1  0
  8 16  1  0
 11 16  1  0
 14 17  1  0
  1  2  2  0
  2  3  1  0
  3  8  2  0
  8  7  1  0
  7  6  2  0
  6  1  1  0
M  END

$$$$
