No_4692-gen_results/8p0m/2024-11-26-14-13-15/
     RDKit          3D

 28 32  0  0  0  0  0  0  0  0999 V2000
  -28.0162   -0.8135   28.8779 C   0  0  0  0  0  0  0  0  0  0  0  0
  -28.4690   -0.7850   29.8287 C   0  0  0  0  0  0  0  0  0  0  0  0
  -27.1356    0.2359   28.5352 C   0  0  0  0  0  0  0  0  0  0  0  0
  -26.3351    0.2900   27.2835 C   0  0  0  0  0  0  0  0  0  0  0  0
  -28.3692    0.1957   30.9236 C   0  0  0  0  0  0  0  0  0  0  0  0
  -27.5158    1.2655   30.6540 C   0  0  0  0  0  0  0  0  0  0  0  0
  -26.8411    1.2942   29.4761 C   0  0  0  0  0  0  0  0  0  0  0  0
  -25.6774    1.5199   26.9774 C   0  0  0  0  0  0  0  0  0  0  0  0
  -24.6512    1.5543   26.2096 C   0  0  0  0  0  0  0  0  0  0  0  0
  -23.8549    0.5222   25.7619 C   0  0  0  0  0  0  0  0  0  0  0  0
  -25.2254   -0.7227   27.1780 C   0  0  0  0  0  0  0  0  0  0  0  0
  -24.2037   -0.6337   26.2739 C   0  0  0  0  0  0  0  0  0  0  0  0
  -27.3044    0.0947   26.0491 C   0  0  0  0  0  0  0  0  0  0  0  0
  -27.0016    0.1949   24.8072 C   0  0  0  0  0  0  0  0  0  0  0  0
  -28.7248    0.0904   26.3740 C   0  0  0  0  0  0  0  0  0  0  0  0
  -29.5158    0.7951   25.6405 C   0  0  0  0  0  0  0  0  0  0  0  0
  -30.9040    0.8830   26.0226 C   0  0  0  0  0  0  0  0  0  0  0  0
  -29.1435    1.4718   24.4598 C   0  0  0  0  0  0  0  0  0  0  0  0
  -27.8193    1.1398   23.9613 C   0  0  0  0  0  0  0  0  0  0  0  0
  -31.3781    1.7984   26.3770 O   0  0  0  0  0  0  0  0  0  0  0  0
  -31.5431   -0.2939   25.9429 O   0  0  0  0  0  0  0  0  0  0  0  0
  -26.3378    2.8266   27.4378 C   0  0  0  0  0  0  0  0  0  0  0  0
  -25.6870    4.0998   27.0388 C   0  0  0  0  0  0  0  0  0  0  0  0
  -26.4419    2.7954   29.0311 C   0  0  0  0  0  0  0  0  0  0  0  0
  -27.7602    2.9844   26.8511 C   0  0  0  0  0  0  0  0  0  0  0  0
  -27.8336    4.2942   26.0540 C   0  0  0  0  0  0  0  0  0  0  0  0
  -24.7554    4.4720   27.2280 C   0  0  0  0  0  0  0  0  0  0  0  0
  -26.7035    4.7703   26.2149 N   0  0  0  0  0  0  0  0  0  0  0  0
  3  4  1  0
  4  8  1  0
  9 10  1  0
  4 11  1  0
 11 12  1  0
  4 13  1  0
 16 17  1  0
 17 20  2  0
 17 21  1  0
  8 22  1  0
 22 23  1  0
  7 24  1  0
 22 24  1  0
 22 25  1  0
 25 26  1  0
 23 27  2  0
 23 28  1  0
 26 28  1  0
  8  9  1  0
 10 12  1  0
 13 14  2  0
 14 19  1  0
 19 18  2  0
 18 16  1  0
 16 15  2  0
 15 13  1  0
  1  2  2  0
  2  5  1  0
  5  6  2  0
  6  7  1  0
  7  3  2  0
  3  1  1  0
M  END

$$$$
