No_4694-gen_results/8p0m/2024-11-26-14-13-15/
     RDKit          3D

 21 22  0  0  0  0  0  0  0  0999 V2000
  -28.0162   -0.8135   28.8779 C   0  0  0  0  0  0  0  0  0  0  0  0
  -28.4690   -0.7850   29.8287 C   0  0  0  0  0  0  0  0  0  0  0  0
  -26.5042   -0.7777   28.8766 C   0  0  0  0  0  0  0  0  0  0  0  0
  -25.7623   -0.0022   27.9705 C   0  0  0  0  0  0  0  0  0  0  0  0
  -25.2031    1.1747   28.5115 C   0  0  0  0  0  0  0  0  0  0  0  0
  -27.9874   -1.5007   31.0834 C   0  0  0  0  0  0  0  0  0  0  0  0
  -26.5998   -1.6117   31.1253 C   0  0  0  0  0  0  0  0  0  0  0  0
  -25.7883   -1.2892   30.0241 C   0  0  0  0  0  0  0  0  0  0  0  0
  -24.5477    1.9163   27.9816 C   0  0  0  0  0  0  0  0  0  0  0  0
  -24.5352    2.2251   26.6757 C   0  0  0  0  0  0  0  0  0  0  0  0
  -25.1751    1.1530   25.8902 C   0  0  0  0  0  0  0  0  0  0  0  0
  -25.8616    0.0443   26.5341 C   0  0  0  0  0  0  0  0  0  0  0  0
  -24.3706   -1.4207   29.9841 C   0  0  0  0  0  0  0  0  0  0  0  0
  -30.0502   -0.6006   29.8768 C   0  0  0  0  0  0  0  0  0  0  0  0
  -30.6079   -0.4503   28.9116 O   0  0  0  0  0  0  0  0  0  0  0  0
  -30.6373   -0.4983   31.0621 O   0  0  0  0  0  0  0  0  0  0  0  0
  -23.9217   -2.4314   29.3679 O   0  0  0  0  0  0  0  0  0  0  0  0
  -23.7098   -1.0831   31.1300 O   0  0  0  0  0  0  0  0  0  0  0  0
  -23.6497    3.3720   25.7908 S   0  0  0  0  0  0  0  0  0  0  0  0
  -24.5346    4.4223   25.7240 O   0  0  0  0  0  0  0  0  0  0  0  0
  -22.6824    3.6664   26.8060 O   0  0  0  0  0  0  0  0  0  0  0  0
  1  2  1  0
  1  3  1  0
  3  4  1  0
  2  6  1  0
  6  7  1  0
  3  8  1  0
  7  8  1  0
  8 13  1  0
  2 14  1  0
 14 15  2  0
 14 16  1  0
 13 17  2  0
 13 18  1  0
 10 19  1  0
 19 20  2  0
 19 21  2  0
  4  5  2  0
  5  9  1  0
  9 10  2  0
 10 11  1  0
 11 12  2  0
 12  4  1  0
M  END

$$$$
