No_4702-gen_results/8p0m/2024-11-26-14-13-15/
     RDKit          3D

 20 21  0  0  0  0  0  0  0  0999 V2000
  -28.0162   -0.8135   28.8779 C   0  0  0  0  0  0  0  0  0  0  0  0
  -28.4690   -0.7850   29.8287 C   0  0  0  0  0  0  0  0  0  0  0  0
  -27.1356    0.2359   28.5352 C   0  0  0  0  0  0  0  0  0  0  0  0
  -26.3351    0.2900   27.2835 C   0  0  0  0  0  0  0  0  0  0  0  0
  -28.3692    0.1957   30.9236 C   0  0  0  0  0  0  0  0  0  0  0  0
  -27.5158    1.2655   30.6540 C   0  0  0  0  0  0  0  0  0  0  0  0
  -26.8411    1.2942   29.4761 C   0  0  0  0  0  0  0  0  0  0  0  0
  -25.3613    0.7751   26.9673 C   0  0  0  0  0  0  0  0  0  0  0  0
  -24.8302    1.7669   28.0168 C   0  0  0  0  0  0  0  0  0  0  0  0
  -25.5666    2.0015   29.2021 C   0  0  0  0  0  0  0  0  0  0  0  0
  -23.6194    2.6086   27.6652 C   0  0  0  0  0  0  0  0  0  0  0  0
  -22.4977    2.1146   27.5781 N   0  0  0  0  0  0  0  0  0  0  0  0
  -23.8416    3.7793   27.2164 O   0  0  0  0  0  0  0  0  0  0  0  0
  -21.9705    0.9737   28.2714 C   0  0  0  0  0  0  0  0  0  0  0  0
  -20.6648    0.5676   28.2577 C   0  0  0  0  0  0  0  0  0  0  0  0
  -22.8700    0.2295   29.1348 C   0  0  0  0  0  0  0  0  0  0  0  0
  -22.3276   -0.9027   29.8410 C   0  0  0  0  0  0  0  0  0  0  0  0
  -23.3048   -1.4681   30.6634 C   0  0  0  0  0  0  0  0  0  0  0  0
  -24.7290   -1.3765   30.3670 C   0  0  0  0  0  0  0  0  0  0  0  0
  -25.4904   -1.8514   31.5554 C   0  0  0  0  0  0  0  0  0  0  0  0
  9 11  1  0
 11 12  1  0
 11 13  2  0
 12 14  1  0
 14 15  2  0
 14 16  1  0
 16 17  1  0
 17 18  1  0
 18 19  1  0
 19 20  1  0
  1  2  2  0
  2  5  1  0
  5  6  2  0
  6  7  1  0
  3  1  1  0
  3  4  2  0
  4  8  1  0
  8  9  2  0
  9 10  1  0
 10  7  2  0
  7  3  1  0
M  END

$$$$
