No_4894-gen_results/8p0m/2024-11-26-14-13-15/
     RDKit          3D

 27 30  0  0  0  0  0  0  0  0999 V2000
  -28.0162   -0.8135   28.8779 C   0  0  0  0  0  0  0  0  0  0  0  0
  -27.0636   -0.1189   28.6079 C   0  0  0  0  0  0  0  0  0  0  0  0
  -25.7647   -0.3897   29.0360 C   0  0  0  0  0  0  0  0  0  0  0  0
  -24.5516    0.4058   28.7646 C   0  0  0  0  0  0  0  0  0  0  0  0
  -24.6957    1.4480   27.7988 C   0  0  0  0  0  0  0  0  0  0  0  0
  -25.9755    1.7250   27.3077 C   0  0  0  0  0  0  0  0  0  0  0  0
  -27.0718    1.0134   27.6535 C   0  0  0  0  0  0  0  0  0  0  0  0
  -28.6247   -0.5797   30.0969 N   0  0  0  0  0  0  0  0  0  0  0  0
  -23.4943    2.1676   27.4757 C   0  0  0  0  0  0  0  0  0  0  0  0
  -22.6133    1.3572   26.4680 C   0  0  0  0  0  0  0  0  0  0  0  0
  -28.2750    0.2266   30.8463 C   0  0  0  0  0  0  0  0  0  0  0  0
  -27.7633    1.2123   30.7948 C   0  0  0  0  0  0  0  0  0  0  0  0
  -27.4380    2.1352   31.9431 C   0  0  0  0  0  0  0  0  0  0  0  0
  -26.7738    3.4109   31.7738 C   0  0  0  0  0  0  0  0  0  0  0  0
  -26.3560    3.7297   30.4478 C   0  0  0  0  0  0  0  0  0  0  0  0
  -26.6714    2.8845   29.3945 C   0  0  0  0  0  0  0  0  0  0  0  0
  -27.3516    1.7719   29.6322 C   0  0  0  0  0  0  0  0  0  0  0  0
  -28.5547    2.2066   29.2391 C   0  0  0  0  0  0  0  0  0  0  0  0
  -27.2842    3.8620   28.3845 C   0  0  0  0  0  0  0  0  0  0  0  0
  -28.9890    3.2380   29.1327 C   0  0  0  0  0  0  0  0  0  0  0  0
  -28.3442    3.9644   28.0443 C   0  0  0  0  0  0  0  0  0  0  0  0
  -29.6222    1.2018   28.7478 C   0  0  0  0  0  0  0  0  0  0  0  0
  -27.3404   -0.0027   26.3074 C   0  0  0  0  0  0  0  0  0  0  0  0
  -30.9451    1.9163   28.5738 C   0  0  0  0  0  0  0  0  0  0  0  0
  -31.8312    1.3160   28.2697 C   0  0  0  0  0  0  0  0  0  0  0  0
  -33.1836    1.8911   28.0457 C   0  0  0  0  0  0  0  0  0  0  0  0
  -30.4710    3.3200   29.0169 N   0  0  0  0  0  0  0  0  0  0  0  0
  1  8  1  0
  5  9  1  0
  9 10  1  0
  8 11  1  0
 18 22  1  0
  7 23  1  0
 22 24  2  0
 24 25  1  0
 25 26  2  0
 20 27  1  0
 24 27  1  0
 11 12  1  0
  1  2  1  0
 12 13  2  0
 13 14  1  0
 14 15  2  0
 15 16  1  0
 17 12  1  0
  2  3  2  0
  3  4  1  0
  4  5  2  0
  5  6  1  0
  6  7  2  0
  7  2  1  0
 16 17  2  0
 17 18  1  0
 18 20  2  0
 20 21  1  0
 21 19  2  0
 19 16  1  0
M  END

$$$$
