No_4280-gen_results/8p0m/2024-11-26-14-13-15/
     RDKit          3D

 16 17  0  0  0  0  0  0  0  0999 V2000
  -28.0162   -0.8135   28.8779 C   0  0  0  0  0  0  0  0  0  0  0  0
  -27.0636   -0.1189   28.6079 C   0  0  0  0  0  0  0  0  0  0  0  0
  -25.7923   -0.4302   29.0761 C   0  0  0  0  0  0  0  0  0  0  0  0
  -25.5756   -1.5654   29.9363 C   0  0  0  0  0  0  0  0  0  0  0  0
  -26.7354   -2.3004   30.2173 C   0  0  0  0  0  0  0  0  0  0  0  0
  -27.9184   -1.9537   29.7629 C   0  0  0  0  0  0  0  0  0  0  0  0
  -28.9649   -2.6957   30.0722 F   0  0  0  0  0  0  0  0  0  0  0  0
  -24.5349    0.3596   28.8024 C   0  0  0  0  0  0  0  0  0  0  0  0
  -24.1089    1.3457   29.6681 C   0  0  0  0  0  0  0  0  0  0  0  0
  -23.3669    2.1343   29.4681 C   0  0  0  0  0  0  0  0  0  0  0  0
  -22.4903    2.1114   28.2319 C   0  0  0  0  0  0  0  0  0  0  0  0
  -22.8842    1.1755   27.2600 C   0  0  0  0  0  0  0  0  0  0  0  0
  -23.9007    0.3526   27.5369 C   0  0  0  0  0  0  0  0  0  0  0  0
  -27.1612    1.0316   27.6441 C   0  0  0  0  0  0  0  0  0  0  0  0
  -27.7908    0.8336   26.4706 C   0  0  0  0  0  0  0  0  0  0  0  0
  -27.9561    1.8726   25.5755 C   0  0  0  0  0  0  0  0  0  0  0  0
  6  7  1  0
  3  8  1  0
  2 14  1  0
 14 15  2  3
 15 16  1  0
  1  2  2  0
  2  3  1  0
  3  4  2  0
  4  5  1  0
  5  6  2  0
  6  1  1  0
  8  9  2  0
  9 10  1  0
 10 11  2  0
 11 12  1  0
 12 13  2  0
 13  8  1  0
M  END

$$$$
