No_4705-gen_results/8p0m/2024-11-26-14-13-15/
     RDKit          3D

 21 22  0  0  0  0  0  0  0  0999 V2000
  -28.0162   -0.8135   28.8779 C   0  0  0  0  0  0  0  0  0  0  0  0
  -28.4690   -0.7850   29.8287 C   0  0  0  0  0  0  0  0  0  0  0  0
  -27.1356    0.2359   28.5352 C   0  0  0  0  0  0  0  0  0  0  0  0
  -26.8745    1.2825   29.3982 C   0  0  0  0  0  0  0  0  0  0  0  0
  -28.3613    0.1987   30.9244 C   0  0  0  0  0  0  0  0  0  0  0  0
  -27.5277    1.2234   30.6356 C   0  0  0  0  0  0  0  0  0  0  0  0
  -26.3987    0.2949   27.2279 C   0  0  0  0  0  0  0  0  0  0  0  0
  -26.8982    0.0442   25.8959 Cl  0  0  0  0  0  0  0  0  0  0  0  0
  -25.2576    1.1992   27.2815 C   0  0  0  0  0  0  0  0  0  0  0  0
  -23.9711    0.5581   27.1546 C   0  0  0  0  0  0  0  0  0  0  0  0
  -22.8290    1.4776   27.1582 C   0  0  0  0  0  0  0  0  0  0  0  0
  -23.1665    2.8512   26.9806 C   0  0  0  0  0  0  0  0  0  0  0  0
  -25.0485    2.6074   27.0839 C   0  0  0  0  0  0  0  0  0  0  0  0
  -25.8306    3.7101   26.9208 C   0  0  0  0  0  0  0  0  0  0  0  0
  -27.1380    3.5190   26.6428 C   0  0  0  0  0  0  0  0  0  0  0  0
  -25.3077    5.0504   27.2109 C   0  0  0  0  0  0  0  0  0  0  0  0
  -25.7302    5.8545   28.2891 C   0  0  0  0  0  0  0  0  0  0  0  0
  -25.8789    5.2741   29.4244 N   0  0  0  0  0  0  0  0  0  0  0  0
  -25.4906    5.8559   30.5742 C   0  0  0  0  0  0  0  0  0  0  0  0
  -25.5209    5.0763   31.8019 C   0  0  0  0  0  0  0  0  0  0  0  0
  -25.0354    5.5041   32.7453 O   0  0  0  0  0  0  0  0  0  0  0  0
  3  7  1  0
  7  8  1  0
  7  9  1  0
  9 10  1  0
 10 11  2  0
 11 12  1  0
  9 13  1  0
 12 13  1  0
 13 14  1  0
 14 15  1  0
 14 16  1  0
 16 17  1  0
 17 18  1  0
 18 19  1  0
 19 20  2  0
 20 21  2  0
  1  2  2  0
  2  5  1  0
  5  6  2  0
  6  4  1  0
  4  3  2  0
  3  1  1  0
M  END

$$$$
