No_418-gen_results/8p0m/2024-11-26-14-13-15/
     RDKit          3D

 25 27  0  0  0  0  0  0  0  0999 V2000
  -28.0162   -0.8135   28.8779 C   0  0  0  0  0  0  0  0  0  0  0  0
  -28.4690   -0.7850   29.8287 C   0  0  0  0  0  0  0  0  0  0  0  0
  -26.5042   -0.7777   28.8766 C   0  0  0  0  0  0  0  0  0  0  0  0
  -25.8103   -0.8531   30.1028 C   0  0  0  0  0  0  0  0  0  0  0  0
  -27.9906   -0.8916   31.2257 C   0  0  0  0  0  0  0  0  0  0  0  0
  -26.6042   -0.8676   31.2652 C   0  0  0  0  0  0  0  0  0  0  0  0
  -30.0739   -0.8360   29.8615 C   0  0  0  0  0  0  0  0  0  0  0  0
  -30.5916   -1.8281   30.0957 F   0  0  0  0  0  0  0  0  0  0  0  0
  -30.4130   -0.3874   28.6120 F   0  0  0  0  0  0  0  0  0  0  0  0
  -30.5351    0.1554   30.6423 F   0  0  0  0  0  0  0  0  0  0  0  0
  -25.6286   -0.7158   27.6753 C   0  0  0  0  0  0  0  0  0  0  0  0
  -25.2380    0.6549   27.3319 C   0  0  0  0  0  0  0  0  0  0  0  0
  -25.5444    1.1810   26.1306 C   0  0  0  0  0  0  0  0  0  0  0  0
  -24.4084    1.4416   28.1903 C   0  0  0  0  0  0  0  0  0  0  0  0
  -23.8188    2.5841   27.6948 C   0  0  0  0  0  0  0  0  0  0  0  0
  -25.0178    2.3409   25.6299 C   0  0  0  0  0  0  0  0  0  0  0  0
  -24.1342    3.1075   26.4750 C   0  0  0  0  0  0  0  0  0  0  0  0
  -26.4294    0.4761   25.2131 C   0  0  0  0  0  0  0  0  0  0  0  0
  -27.7442    0.4298   25.2737 N   0  0  0  0  0  0  0  0  0  0  0  0
  -28.5649   -0.1380   24.4276 C   0  0  0  0  0  0  0  0  0  0  0  0
  -29.9173    0.1928   24.4928 C   0  0  0  0  0  0  0  0  0  0  0  0
  -28.4369    1.5770   25.9302 C   0  0  0  0  0  0  0  0  0  0  0  0
  -29.7537    1.5908   25.8920 C   0  0  0  0  0  0  0  0  0  0  0  0
  -30.5381    1.0351   25.2172 C   0  0  0  0  0  0  0  0  0  0  0  0
  -25.8558   -0.3793   24.4283 O   0  0  0  0  0  0  0  0  0  0  0  0
  2  7  1  0
  7  8  1  0
  7  9  1  0
  7 10  1  0
  3 11  1  0
 11 12  1  0
 13 18  1  0
 18 19  1  0
 19 20  1  0
 19 22  1  0
 21 24  1  0
 23 24  1  0
 18 25  2  0
 20 21  1  0
 23 22  1  0
  1  2  2  0
  2  5  1  0
  5  6  2  0
  6  4  1  0
  4  3  2  0
  3  1  1  0
 12 13  2  0
 13 16  1  0
 16 17  2  0
 17 15  1  0
 15 14  2  0
 14 12  1  0
M  END

$$$$
