No_4893-gen_results/8p0m/2024-11-26-14-13-15/
     RDKit          3D

 19 21  0  0  0  0  0  0  0  0999 V2000
  -28.0162   -0.8135   28.8779 C   0  0  0  0  0  0  0  0  0  0  0  0
  -27.0636   -0.1189   28.6079 C   0  0  0  0  0  0  0  0  0  0  0  0
  -27.0010    0.6913   27.4910 C   0  0  0  0  0  0  0  0  0  0  0  0
  -25.8548    1.4825   27.0830 C   0  0  0  0  0  0  0  0  0  0  0  0
  -24.6901    1.4526   27.8807 C   0  0  0  0  0  0  0  0  0  0  0  0
  -24.7379    0.6010   29.0416 C   0  0  0  0  0  0  0  0  0  0  0  0
  -25.8234   -0.1688   29.3887 C   0  0  0  0  0  0  0  0  0  0  0  0
  -29.2252   -0.0469   29.2805 C   0  0  0  0  0  0  0  0  0  0  0  0
  -30.3126   -0.8267   29.7606 C   0  0  0  0  0  0  0  0  0  0  0  0
  -30.1069   -2.1236   30.1761 C   0  0  0  0  0  0  0  0  0  0  0  0
  -28.8868   -2.7526   30.1404 C   0  0  0  0  0  0  0  0  0  0  0  0
  -27.8215   -2.0683   29.6216 C   0  0  0  0  0  0  0  0  0  0  0  0
  -26.5538   -2.5706   29.7010 N   0  0  0  0  0  0  0  0  0  0  0  0
  -25.4639   -1.6463   29.6397 C   0  0  0  0  0  0  0  0  0  0  0  0
  -24.3413   -2.0377   30.0135 O   0  0  0  0  0  0  0  0  0  0  0  0
  -23.5173    2.2607   27.5985 C   0  0  0  0  0  0  0  0  0  0  0  0
  -22.6594    2.3464   28.4697 O   0  0  0  0  0  0  0  0  0  0  0  0
  -23.2374    2.6034   26.3884 O   0  0  0  0  0  0  0  0  0  0  0  0
  -31.5383   -0.2744   29.8175 O   0  0  0  0  0  0  0  0  0  0  0  0
  1  2  1  0
  7 14  1  0
 13 14  1  0
 14 15  2  0
  5 16  1  0
 16 17  1  0
 16 18  2  0
  9 19  1  0
 12 13  1  0
  2  3  2  0
  3  4  1  0
  4  5  2  0
  5  6  1  0
  6  7  2  0
  7  2  1  0
  1  8  2  0
  8  9  1  0
  9 10  2  0
 10 11  1  0
 11 12  2  0
 12  1  1  0
M  END

$$$$
