No_4824-gen_results/8p0m/2024-11-26-14-13-15/
     RDKit          3D

 25 26  0  0  0  0  0  0  0  0999 V2000
  -28.0162   -0.8135   28.8779 C   0  0  0  0  0  0  0  0  0  0  0  0
  -28.4690   -0.7850   29.8287 C   0  0  0  0  0  0  0  0  0  0  0  0
  -27.1356    0.2359   28.5352 C   0  0  0  0  0  0  0  0  0  0  0  0
  -26.8745    1.2825   29.3982 C   0  0  0  0  0  0  0  0  0  0  0  0
  -28.3613    0.1987   30.9244 C   0  0  0  0  0  0  0  0  0  0  0  0
  -25.9723    2.3852   29.1040 C   0  0  0  0  0  0  0  0  0  0  0  0
  -27.5118    1.2316   30.6323 C   0  0  0  0  0  0  0  0  0  0  0  0
  -25.4925    3.0751   29.8094 C   0  0  0  0  0  0  0  0  0  0  0  0
  -25.7569    2.5727   27.6354 C   0  0  0  0  0  0  0  0  0  0  0  0
  -24.7898    3.4591   27.2105 C   0  0  0  0  0  0  0  0  0  0  0  0
  -24.6091    4.2803   29.4971 C   0  0  0  0  0  0  0  0  0  0  0  0
  -24.2924    4.4195   28.1199 C   0  0  0  0  0  0  0  0  0  0  0  0
  -26.3398    0.1748   26.9767 Cl  0  0  0  0  0  0  0  0  0  0  0  0
  -29.3593   -2.0813   30.1509 C   0  0  0  0  0  0  0  0  0  0  0  0
  -29.0212   -3.2573   30.4099 O   0  0  0  0  0  0  0  0  0  0  0  0
  -30.5560   -1.8463   30.7319 O   0  0  0  0  0  0  0  0  0  0  0  0
  -31.4889   -2.7939   30.7040 C   0  0  0  0  0  0  0  0  0  0  0  0
  -32.6378   -2.5287   31.1489 C   0  0  0  0  0  0  0  0  0  0  0  0
  -32.9861   -1.4943   31.5267 O   0  0  0  0  0  0  0  0  0  0  0  0
  -33.6519   -3.5524   31.1382 N   0  0  0  0  0  0  0  0  0  0  0  0
  -33.3923   -4.8581   30.7675 C   0  0  0  0  0  0  0  0  0  0  0  0
  -31.2241   -4.1660   30.2821 C   0  0  0  0  0  0  0  0  0  0  0  0
  -29.9816   -4.5003   29.6993 C   0  0  0  0  0  0  0  0  0  0  0  0
  -29.3930   -5.2993   29.1609 O   0  0  0  0  0  0  0  0  0  0  0  0
  -29.9486   -3.8322   28.8921 O   0  0  0  0  0  0  0  0  0  0  0  0
  4  6  1  0
  3 13  1  0
  2 14  1  0
 14 15  2  0
 14 16  1  0
 16 17  1  0
 17 18  1  0
 18 19  2  0
 18 20  1  0
 20 21  1  0
 17 22  1  0
 22 23  1  0
 23 24  2  0
 23 25  1  0
  6  8  2  0
  8 11  1  0
 11 12  2  0
 12 10  1  0
 10  9  2  0
  9  6  1  0
  1  2  2  0
  2  5  1  0
  5  7  2  0
  7  4  1  0
  4  3  2  0
  3  1  1  0
M  END

$$$$
