No_4075-gen_results/8p0m/2024-11-26-14-13-15/
     RDKit          3D

  8  7  0  0  0  0  0  0  0  0999 V2000
  -28.1493   -0.8198   28.9079 Cl  0  0  0  0  0  0  0  0  0  0  0  0
  -28.5324   -0.0471   29.7727 C   0  0  0  0  0  0  0  0  0  0  0  0
  -27.6515    0.7172   30.3086 F   0  0  0  0  0  0  0  0  0  0  0  0
  -29.2530   -0.6893   30.9723 C   0  0  0  0  0  0  0  0  0  0  0  0
  -29.4537    0.8274   29.2449 F   0  0  0  0  0  0  0  0  0  0  0  0
  -28.7370   -0.3157   32.3568 Cl  0  0  0  0  0  0  0  0  0  0  0  0
  -30.5991   -0.4767   30.9543 F   0  0  0  0  0  0  0  0  0  0  0  0
  -28.9154   -1.9646   31.0971 F   0  0  0  0  0  0  0  0  0  0  0  0
  1  2  1  0
  2  3  1  0
  2  4  1  0
  2  5  1  0
  4  6  1  0
  4  7  1  0
  4  8  1  0
M  END

$$$$
