No_429-gen_results/8p0m/2024-11-26-14-13-15/
     RDKit          3D

 21 23  0  0  0  0  0  0  0  0999 V2000
  -28.0162   -0.8135   28.8779 C   0  0  0  0  0  0  0  0  0  0  0  0
  -27.0636   -0.1190   28.6079 C   0  0  0  0  0  0  0  0  0  0  0  0
  -26.9287    1.1713   29.0083 C   0  0  0  0  0  0  0  0  0  0  0  0
  -25.7702    2.0341   28.6884 C   0  0  0  0  0  0  0  0  0  0  0  0
  -25.6189    3.3482   29.0918 C   0  0  0  0  0  0  0  0  0  0  0  0
  -29.0712   -0.3338   29.7689 C   0  0  0  0  0  0  0  0  0  0  0  0
  -29.0128    0.9333   30.1718 C   0  0  0  0  0  0  0  0  0  0  0  0
  -27.8993    1.7759   29.8587 C   0  0  0  0  0  0  0  0  0  0  0  0
  -24.7637    1.5278   27.7799 C   0  0  0  0  0  0  0  0  0  0  0  0
  -23.6558    2.3377   27.4155 C   0  0  0  0  0  0  0  0  0  0  0  0
  -24.6190    4.2235   28.5229 C   0  0  0  0  0  0  0  0  0  0  0  0
  -23.6236    3.6589   27.7229 C   0  0  0  0  0  0  0  0  0  0  0  0
  -30.1478   -1.2680   30.0875 C   0  0  0  0  0  0  0  0  0  0  0  0
  -29.9348   -2.4224   30.3738 O   0  0  0  0  0  0  0  0  0  0  0  0
  -31.3920   -0.8002   30.2006 N   0  0  0  0  0  0  0  0  0  0  0  0
  -32.4875   -1.6450   30.5462 C   0  0  0  0  0  0  0  0  0  0  0  0
  -32.5283   -2.4928   31.3319 C   0  0  0  0  0  0  0  0  0  0  0  0
  -33.6392   -1.2647   29.7099 C   0  0  0  0  0  0  0  0  0  0  0  0
  -33.7215   -3.2550   31.6090 C   0  0  0  0  0  0  0  0  0  0  0  0
  -34.8075   -2.0183   29.9700 C   0  0  0  0  0  0  0  0  0  0  0  0
  -34.8349   -2.9577   30.9022 C   0  0  0  0  0  0  0  0  0  0  0  0
  3  4  1  0
  6 13  1  0
 13 14  2  0
 13 15  1  0
 15 16  1  0
  1  2  2  0
  2  3  1  0
  3  8  2  0
  8  7  1  0
  7  6  2  0
  6  1  1  0
  4  5  2  0
  5 11  1  0
 11 12  2  0
 12 10  1  0
 10  9  2  0
  9  4  1  0
 16 17  2  0
 17 19  1  0
 19 21  2  0
 21 20  1  0
 20 18  2  0
 18 16  1  0
M  END

$$$$
