No_4202-gen_results/8p0m/2024-11-26-14-13-15/
     RDKit          3D

 10 10  0  0  0  0  0  0  0  0999 V2000
  -28.1229   -1.3353   28.4874 O   0  0  0  0  0  0  0  0  0  0  0  0
  -27.0637   -0.8242   28.8687 C   0  0  0  0  0  0  0  0  0  0  0  0
  -25.9464   -1.0396   28.8492 C   0  0  0  0  0  0  0  0  0  0  0  0
  -25.3522   -2.2524   28.5471 C   0  0  0  0  0  0  0  0  0  0  0  0
  -27.2898    0.4084   29.7412 N   0  0  0  0  0  0  0  0  0  0  0  0
  -26.3317    1.2563   30.1238 C   0  0  0  0  0  0  0  0  0  0  0  0
  -24.9948    0.8121   30.0126 C   0  0  0  0  0  0  0  0  0  0  0  0
  -24.7074   -0.3271   29.5111 C   0  0  0  0  0  0  0  0  0  0  0  0
  -24.0261   -2.7523   28.8671 C   0  0  0  0  0  0  0  0  0  0  0  0
  -23.0188   -1.9817   29.2964 C   0  0  0  0  0  0  0  0  0  0  0  0
  1  2  2  0
  2  3  1  0
  3  4  1  0
  2  5  1  0
  6  7  1  0
  3  8  1  0
  4  9  2  3
  9 10  1  0
  8  7  1  0
  6  5  1  0
M  END

$$$$
