No_4525-gen_results/8p0m/2024-11-26-14-13-15/
     RDKit          3D

 14 15  0  0  0  0  0  0  0  0999 V2000
  -28.0162   -0.8135   28.8779 C   0  0  0  0  0  0  0  0  0  0  0  0
  -27.0636   -0.1189   28.6079 C   0  0  0  0  0  0  0  0  0  0  0  0
  -27.0010    0.6913   27.4910 C   0  0  0  0  0  0  0  0  0  0  0  0
  -25.8548    1.4825   27.0830 C   0  0  0  0  0  0  0  0  0  0  0  0
  -24.6901    1.4526   27.8807 C   0  0  0  0  0  0  0  0  0  0  0  0
  -24.7379    0.6010   29.0416 C   0  0  0  0  0  0  0  0  0  0  0  0
  -25.8234   -0.1688   29.3887 C   0  0  0  0  0  0  0  0  0  0  0  0
  -29.2075   -0.1514   29.0660 N   0  0  0  0  0  0  0  0  0  0  0  0
  -29.7474    0.5548   28.4314 C   0  0  0  0  0  0  0  0  0  0  0  0
  -29.3636    1.2036   27.2583 C   0  0  0  0  0  0  0  0  0  0  0  0
  -28.0469    1.7546   27.1666 C   0  0  0  0  0  0  0  0  0  0  0  0
  -23.4302    2.1053   27.5513 C   0  0  0  0  0  0  0  0  0  0  0  0
  -23.4302    3.0487   26.8266 O   0  0  0  0  0  0  0  0  0  0  0  0
  -22.3250    1.8877   28.3344 N   0  0  0  0  0  0  0  0  0  0  0  0
  1  2  1  0
  1  8  1  0
  8  9  2  0
  9 10  1  0
  3 11  1  0
 10 11  1  0
  5 12  1  0
 12 13  2  0
 12 14  1  0
  2  3  2  0
  3  4  1  0
  4  5  2  0
  5  6  1  0
  6  7  2  0
  7  2  1  0
M  END

$$$$
