No_4-gen_results/8p0m/2024-11-26-14-13-15/
     RDKit          3D

 14 15  0  0  0  0  0  0  0  0999 V2000
  -28.1229   -1.3353   28.4874 O   0  0  0  0  0  0  0  0  0  0  0  0
  -27.0637   -0.8242   28.8687 C   0  0  0  0  0  0  0  0  0  0  0  0
  -26.4017   -0.0623   28.6224 C   0  0  0  0  0  0  0  0  0  0  0  0
  -26.3805   -1.7991   29.9619 N   0  0  0  0  0  0  0  0  0  0  0  0
  -26.7771    1.0571   27.7896 C   0  0  0  0  0  0  0  0  0  0  0  0
  -27.7401    1.4787   27.6544 C   0  0  0  0  0  0  0  0  0  0  0  0
  -28.0869    2.5845   26.6424 C   0  0  0  0  0  0  0  0  0  0  0  0
  -27.0174    3.1086   25.9247 C   0  0  0  0  0  0  0  0  0  0  0  0
  -25.7358    2.6082   26.0838 C   0  0  0  0  0  0  0  0  0  0  0  0
  -25.5045    1.6396   27.0051 C   0  0  0  0  0  0  0  0  0  0  0  0
  -25.2135   -1.8324   30.1087 C   0  0  0  0  0  0  0  0  0  0  0  0
  -24.3411   -0.8343   29.7910 C   0  0  0  0  0  0  0  0  0  0  0  0
  -24.8204    0.0967   28.9968 C   0  0  0  0  0  0  0  0  0  0  0  0
  -24.1857    1.2296   27.2581 C   0  0  0  0  0  0  0  0  0  0  0  0
  1  2  2  0
  2  3  1  0
  2  4  1  0
  3  5  1  0
 11 12  1  0
  3 13  1  0
 10 14  1  0
 13 12  1  0
 11  4  1  0
  5  6  2  0
  6  7  1  0
  7  8  2  0
  8  9  1  0
  9 10  2  0
 10  5  1  0
M  END

$$$$
