No_4470-gen_results/8p0m/2024-11-26-14-13-15/
     RDKit          3D

 13 13  0  0  0  0  0  0  0  0999 V2000
  -28.0162   -0.8135   28.8779 C   0  0  0  0  0  0  0  0  0  0  0  0
  -27.0636   -0.1190   28.6079 C   0  0  0  0  0  0  0  0  0  0  0  0
  -27.0010    0.6913   27.4910 C   0  0  0  0  0  0  0  0  0  0  0  0
  -25.7770    1.0214   26.9135 C   0  0  0  0  0  0  0  0  0  0  0  0
  -24.5088    0.7364   27.5686 C   0  0  0  0  0  0  0  0  0  0  0  0
  -24.5930   -0.0361   28.7390 C   0  0  0  0  0  0  0  0  0  0  0  0
  -25.8114   -0.4771   29.1584 C   0  0  0  0  0  0  0  0  0  0  0  0
  -28.6573   -0.5181   30.0595 N   0  0  0  0  0  0  0  0  0  0  0  0
  -28.5990    0.4409   30.6248 C   0  0  0  0  0  0  0  0  0  0  0  0
  -28.7864    1.1060   31.4781 C   0  0  0  0  0  0  0  0  0  0  0  0
  -28.9855    2.2977   32.1795 C   0  0  0  0  0  0  0  0  0  0  0  0
  -28.9021    3.3501   32.6360 C   0  0  0  0  0  0  0  0  0  0  0  0
  -28.7089    4.4735   33.0837 C   0  0  0  0  0  0  0  0  0  0  0  0
  1  2  1  0
  1  8  1  0
  8  9  1  0
  9 10  2  3
 10 11  1  0
 11 12  1  0
 12 13  2  0
  2  3  2  0
  3  4  1  0
  4  5  2  0
  5  6  1  0
  6  7  2  0
  7  2  1  0
M  END

$$$$
