No_4580-gen_results/8p0m/2024-11-26-14-13-15/
     RDKit          3D

 17 17  0  0  0  0  0  0  0  0999 V2000
  -28.0162   -0.8135   28.8779 C   0  0  0  0  0  0  0  0  0  0  0  0
  -27.0636   -0.1189   28.6079 C   0  0  0  0  0  0  0  0  0  0  0  0
  -25.7647   -0.3897   29.0360 C   0  0  0  0  0  0  0  0  0  0  0  0
  -25.5296   -1.5302   29.9014 C   0  0  0  0  0  0  0  0  0  0  0  0
  -26.6888   -2.2893   30.1810 C   0  0  0  0  0  0  0  0  0  0  0  0
  -27.8727   -1.9508   29.7373 C   0  0  0  0  0  0  0  0  0  0  0  0
  -24.6993    0.3604   28.7753 F   0  0  0  0  0  0  0  0  0  0  0  0
  -29.0333   -2.8145   30.1506 C   0  0  0  0  0  0  0  0  0  0  0  0
  -30.2066   -2.2497   30.2766 N   0  0  0  0  0  0  0  0  0  0  0  0
  -28.8825   -4.0248   30.3981 O   0  0  0  0  0  0  0  0  0  0  0  0
  -30.5213   -0.9137   30.1926 C   0  0  0  0  0  0  0  0  0  0  0  0
  -31.0990   -3.0990   31.1598 C   0  0  0  0  0  0  0  0  0  0  0  0
  -30.9175   -0.2605   31.4111 C   0  0  0  0  0  0  0  0  0  0  0  0
  -30.2925    0.2079   32.1271 C   0  0  0  0  0  0  0  0  0  0  0  0
  -30.7037    0.7667   33.4547 C   0  0  0  0  0  0  0  0  0  0  0  0
  -32.0272    0.7450   33.6995 C   0  0  0  0  0  0  0  0  0  0  0  0
  -32.8445    0.1753   32.7880 C   0  0  0  0  0  0  0  0  0  0  0  0
  3  7  1  0
  6  8  1  0
  8  9  1  0
  8 10  2  0
  9 11  1  0
  9 12  1  0
 11 13  2  3
 13 14  1  0
 14 15  1  0
 15 16  2  3
 16 17  1  0
  1  2  2  0
  2  3  1  0
  3  4  2  0
  4  5  1  0
  5  6  2  0
  6  1  1  0
M  END

$$$$
