No_4707-gen_results/8p0m/2024-11-26-14-13-15/
     RDKit          3D

 15 16  0  0  0  0  0  0  0  0999 V2000
  -28.0162   -0.8135   28.8779 C   0  0  0  0  0  0  0  0  0  0  0  0
  -28.4690   -0.7850   29.8287 C   0  0  0  0  0  0  0  0  0  0  0  0
  -26.5042   -0.7777   28.8766 C   0  0  0  0  0  0  0  0  0  0  0  0
  -25.8103   -0.8531   30.1028 C   0  0  0  0  0  0  0  0  0  0  0  0
  -27.9906   -0.8916   31.2257 C   0  0  0  0  0  0  0  0  0  0  0  0
  -26.6042   -0.8676   31.2652 C   0  0  0  0  0  0  0  0  0  0  0  0
  -30.0739   -0.8360   29.8615 C   0  0  0  0  0  0  0  0  0  0  0  0
  -30.5608   -0.4417   28.9417 O   0  0  0  0  0  0  0  0  0  0  0  0
  -30.7042   -1.7423   30.7732 N   0  0  0  0  0  0  0  0  0  0  0  0
  -32.1088   -1.8935   30.6670 C   0  0  0  0  0  0  0  0  0  0  0  0
  -32.6295   -2.5861   31.2074 C   0  0  0  0  0  0  0  0  0  0  0  0
  -34.0858   -2.8589   31.0794 C   0  0  0  0  0  0  0  0  0  0  0  0
  -34.7505   -2.0354   30.1456 C   0  0  0  0  0  0  0  0  0  0  0  0
  -34.0151   -1.1446   29.4173 C   0  0  0  0  0  0  0  0  0  0  0  0
  -32.6916   -0.9989   29.6195 C   0  0  0  0  0  0  0  0  0  0  0  0
  2  7  1  0
  7  8  2  0
  7  9  1  0
  9 10  1  0
  1  2  2  0
  2  5  1  0
  5  6  2  0
  6  4  1  0
  4  3  2  0
  3  1  1  0
 10 11  2  0
 11 12  1  0
 12 13  2  0
 13 14  1  0
 14 15  2  0
 15 10  1  0
M  END

$$$$
