No_4951-gen_results/8p0m/2024-11-26-14-13-15/
     RDKit          3D

 34 37  0  0  0  0  0  0  0  0999 V2000
  -28.0162   -0.8135   28.8779 C   0  0  0  0  0  0  0  0  0  0  0  0
  -28.4690   -0.7850   29.8287 C   0  0  0  0  0  0  0  0  0  0  0  0
  -26.5455   -0.8762   28.8500 C   0  0  0  0  0  0  0  0  0  0  0  0
  -25.8041   -1.0324   30.0571 C   0  0  0  0  0  0  0  0  0  0  0  0
  -27.9437   -0.9869   31.2075 C   0  0  0  0  0  0  0  0  0  0  0  0
  -26.5825   -1.0386   31.2231 C   0  0  0  0  0  0  0  0  0  0  0  0
  -24.3810   -1.1082   30.0855 C   0  0  0  0  0  0  0  0  0  0  0  0
  -23.7397    0.0683   29.8430 N   0  0  0  0  0  0  0  0  0  0  0  0
  -22.5879    0.1899   29.0935 C   0  0  0  0  0  0  0  0  0  0  0  0
  -24.1939    1.2701   30.4138 C   0  0  0  0  0  0  0  0  0  0  0  0
  -22.2069    1.2974   28.3426 C   0  0  0  0  0  0  0  0  0  0  0  0
  -23.9483    2.5072   29.7577 C   0  0  0  0  0  0  0  0  0  0  0  0
  -22.8189    2.5585   28.8554 C   0  0  0  0  0  0  0  0  0  0  0  0
  -25.7669   -0.6667   27.3267 Cl  0  0  0  0  0  0  0  0  0  0  0  0
  -30.0967   -0.7527   29.8727 C   0  0  0  0  0  0  0  0  0  0  0  0
  -30.7544   -1.5815   30.2938 O   0  0  0  0  0  0  0  0  0  0  0  0
  -30.6148    0.3475   29.2853 N   0  0  0  0  0  0  0  0  0  0  0  0
  -32.0259    0.5180   29.1552 C   0  0  0  0  0  0  0  0  0  0  0  0
  -32.3624    1.2418   28.1627 C   0  0  0  0  0  0  0  0  0  0  0  0
  -33.4546    1.4666   27.6805 C   0  0  0  0  0  0  0  0  0  0  0  0
  -31.3229    2.2555   27.6487 C   0  0  0  0  0  0  0  0  0  0  0  0
  -31.5705    3.1109   26.5566 C   0  0  0  0  0  0  0  0  0  0  0  0
  -33.8331    2.3204   26.5522 C   0  0  0  0  0  0  0  0  0  0  0  0
  -32.8569    3.1799   26.0630 C   0  0  0  0  0  0  0  0  0  0  0  0
  -32.7426   -0.0657   29.8764 O   0  0  0  0  0  0  0  0  0  0  0  0
  -23.8286   -2.1557   30.2940 O   0  0  0  0  0  0  0  0  0  0  0  0
  -30.5138    4.0053   26.0784 C   0  0  0  0  0  0  0  0  0  0  0  0
  -29.2066    3.6840   26.3888 C   0  0  0  0  0  0  0  0  0  0  0  0
  -28.4070    3.3597   25.4363 C   0  0  0  0  0  0  0  0  0  0  0  0
  -27.0706    2.8519   25.7602 C   0  0  0  0  0  0  0  0  0  0  0  0
  -26.4796    3.0319   26.5775 C   0  0  0  0  0  0  0  0  0  0  0  0
  -26.8817    3.6516   27.6664 C   0  0  0  0  0  0  0  0  0  0  0  0
  -28.5480    4.0080   27.6515 C   0  0  0  0  0  0  0  0  0  0  0  0
  -30.8060    5.0666   25.4764 O   0  0  0  0  0  0  0  0  0  0  0  0
  4  7  1  0
  7  8  1  0
  8  9  1  0
  8 10  1  0
 11 13  1  0
 12 13  1  0
  3 14  1  0
  2 15  1  0
 15 16  2  0
 15 17  1  0
 17 18  1  0
 18 19  1  0
 18 25  2  0
  7 26  2  0
 22 27  1  0
 27 28  1  0
 27 34  2  0
  9 11  1  0
 12 10  1  0
 28 29  2  0
 29 30  1  0
 30 31  2  0
 31 32  1  0
 32 33  2  0
 33 28  1  0
  1  2  2  0
  2  5  1  0
  5  6  2  0
  6  4  1  0
  4  3  2  0
  3  1  1  0
 19 20  2  0
 20 23  1  0
 23 24  2  0
 24 22  1  0
 22 21  2  0
 21 19  1  0
M  END

$$$$
