No_4749-gen_results/8p0m/2024-11-26-14-13-15/
     RDKit          3D

  6  6  0  0  0  0  0  0  0  0999 V2000
  -28.0162   -0.8135   28.8779 C   0  0  0  0  0  0  0  0  0  0  0  0
  -28.4690   -0.7850   29.8287 C   0  0  0  0  0  0  0  0  0  0  0  0
  -27.0871    0.2903   28.6377 C   0  0  0  0  0  0  0  0  0  0  0  0
  -26.7676    1.0274   29.4716 C   0  0  0  0  0  0  0  0  0  0  0  0
  -28.2764    0.0268   31.0145 C   0  0  0  0  0  0  0  0  0  0  0  0
  -27.3287    1.0538   30.7535 C   0  0  0  0  0  0  0  0  0  0  0  0
  1  2  2  0
  2  5  1  0
  5  6  2  0
  6  4  1  0
  4  3  2  0
  3  1  1  0
M  END

$$$$
