No_4230-gen_results/8p0m/2024-11-26-14-13-15/
     RDKit          3D

 35 38  0  0  0  0  0  0  0  0999 V2000
  -28.0162   -0.8135   28.8779 C   0  0  0  0  0  0  0  0  0  0  0  0
  -27.0636   -0.1190   28.6079 C   0  0  0  0  0  0  0  0  0  0  0  0
  -25.7923   -0.4302   29.0761 C   0  0  0  0  0  0  0  0  0  0  0  0
  -24.5456    0.3494   28.8225 C   0  0  0  0  0  0  0  0  0  0  0  0
  -23.2409    0.0217   29.3323 C   0  0  0  0  0  0  0  0  0  0  0  0
  -27.8820   -1.8995   29.8633 C   0  0  0  0  0  0  0  0  0  0  0  0
  -26.6526   -2.3142   30.3138 C   0  0  0  0  0  0  0  0  0  0  0  0
  -25.5153   -1.5607   29.9787 C   0  0  0  0  0  0  0  0  0  0  0  0
  -23.2072   -1.2289   30.0311 C   0  0  0  0  0  0  0  0  0  0  0  0
  -24.2434   -1.9361   30.3879 C   0  0  0  0  0  0  0  0  0  0  0  0
  -24.5886    1.5613   27.9544 C   0  0  0  0  0  0  0  0  0  0  0  0
  -24.8729    1.4209   26.6656 C   0  0  0  0  0  0  0  0  0  0  0  0
  -23.2341    2.3346   28.0747 C   0  0  0  0  0  0  0  0  0  0  0  0
  -25.5891    2.5601   28.6509 C   0  0  0  0  0  0  0  0  0  0  0  0
  -26.2900    3.3995   27.8043 C   0  0  0  0  0  0  0  0  0  0  0  0
  -25.7334    2.6877   30.0494 C   0  0  0  0  0  0  0  0  0  0  0  0
  -26.8411    3.3258   30.6057 C   0  0  0  0  0  0  0  0  0  0  0  0
  -27.4690    4.2376   29.8304 C   0  0  0  0  0  0  0  0  0  0  0  0
  -27.3381    4.1912   28.4117 C   0  0  0  0  0  0  0  0  0  0  0  0
  -29.0127   -2.6260   30.1641 O   0  0  0  0  0  0  0  0  0  0  0  0
  -30.0801   -2.0356   30.7147 C   0  0  0  0  0  0  0  0  0  0  0  0
  -30.6517   -2.8033   31.6746 C   0  0  0  0  0  0  0  0  0  0  0  0
  -31.7531   -2.2743   32.2665 C   0  0  0  0  0  0  0  0  0  0  0  0
  -30.2526   -4.1027   32.0849 C   0  0  0  0  0  0  0  0  0  0  0  0
  -32.2236   -0.9826   32.0211 C   0  0  0  0  0  0  0  0  0  0  0  0
  -31.5486   -0.2730   30.9969 C   0  0  0  0  0  0  0  0  0  0  0  0
  -30.4483   -0.7638   30.3796 C   0  0  0  0  0  0  0  0  0  0  0  0
  -29.1802   -4.5140   31.9236 O   0  0  0  0  0  0  0  0  0  0  0  0
  -31.1640   -4.8832   32.5309 O   0  0  0  0  0  0  0  0  0  0  0  0
  -26.9852    3.2820   32.0658 C   0  0  0  0  0  0  0  0  0  0  0  0
  -26.4667    3.9830   32.8282 N   0  0  0  0  0  0  0  0  0  0  0  0
  -27.7586    2.2905   32.4877 O   0  0  0  0  0  0  0  0  0  0  0  0
  -26.3698    4.2144   33.8673 C   0  0  0  0  0  0  0  0  0  0  0  0
  -26.9962    3.6169   34.8191 C   0  0  0  0  0  0  0  0  0  0  0  0
  -28.2731    4.0908   35.1273 C   0  0  0  0  0  0  0  0  0  0  0  0
  4 11  1  0
 11 12  1  0
 11 13  1  0
 11 14  1  0
  6 20  1  0
 20 21  1  0
 22 24  1  0
 24 28  2  0
 24 29  1  0
 17 30  1  0
 30 31  1  0
 30 32  2  0
 31 33  1  0
 33 34  2  3
 34 35  1  0
  1  2  2  0
  2  3  1  0
  8  7  1  0
  7  6  2  0
  6  1  1  0
 21 22  2  0
 22 23  1  0
 23 25  2  0
 25 26  1  0
 26 27  2  0
 27 21  1  0
  3  4  2  0
  4  5  1  0
  5  9  2  0
  9 10  1  0
 10  8  2  0
  8  3  1  0
 14 15  2  0
 15 19  1  0
 19 18  2  0
 18 17  1  0
 17 16  2  0
 16 14  1  0
M  END

$$$$
