No_4259-gen_results/8p0m/2024-11-26-14-13-15/
     RDKit          3D

 10 10  0  0  0  0  0  0  0  0999 V2000
  -28.1229   -1.3353   28.4874 O   0  0  0  0  0  0  0  0  0  0  0  0
  -27.4806   -0.4044   28.7094 C   0  0  0  0  0  0  0  0  0  0  0  0
  -26.3804   -0.0867   27.9394 C   0  0  0  0  0  0  0  0  0  0  0  0
  -27.4232    0.1749   30.0549 N   0  0  0  0  0  0  0  0  0  0  0  0
  -25.8482    1.0048   27.9942 C   0  0  0  0  0  0  0  0  0  0  0  0
  -24.7250    1.4898   27.1703 C   0  0  0  0  0  0  0  0  0  0  0  0
  -24.0238    2.3807   27.2609 C   0  0  0  0  0  0  0  0  0  0  0  0
  -24.3489    3.3259   28.3248 C   0  0  0  0  0  0  0  0  0  0  0  0
  -25.3812    3.0510   29.2008 C   0  0  0  0  0  0  0  0  0  0  0  0
  -26.0619    1.8744   29.0755 C   0  0  0  0  0  0  0  0  0  0  0  0
  1  2  2  0
  2  3  1  0
  2  4  1  0
  3  5  1  0
  5  6  2  0
  6  7  1  0
  7  8  2  0
  8  9  1  0
  9 10  2  0
 10  5  1  0
M  END

$$$$
