No_4399-gen_results/8p0m/2024-11-26-14-13-15/
     RDKit          3D

 18 19  0  0  0  0  0  0  0  0999 V2000
  -28.0162   -0.8135   28.8779 C   0  0  0  0  0  0  0  0  0  0  0  0
  -27.0636   -0.1190   28.6079 C   0  0  0  0  0  0  0  0  0  0  0  0
  -25.7647   -0.3897   29.0360 C   0  0  0  0  0  0  0  0  0  0  0  0
  -25.5296   -1.5302   29.9014 C   0  0  0  0  0  0  0  0  0  0  0  0
  -26.6577   -2.2915   30.2035 C   0  0  0  0  0  0  0  0  0  0  0  0
  -27.8548   -1.9555   29.7630 C   0  0  0  0  0  0  0  0  0  0  0  0
  -24.5441    0.4126   28.7379 C   0  0  0  0  0  0  0  0  0  0  0  0
  -24.0952    1.3785   29.5751 C   0  0  0  0  0  0  0  0  0  0  0  0
  -23.3679    2.0816   29.4623 N   0  0  0  0  0  0  0  0  0  0  0  0
  -24.8287    1.4582   30.7791 O   0  0  0  0  0  0  0  0  0  0  0  0
  -29.2402   -2.9115   30.2227 Cl  0  0  0  0  0  0  0  0  0  0  0  0
  -27.1982    1.0186   27.6485 C   0  0  0  0  0  0  0  0  0  0  0  0
  -27.6993    1.8881   27.8585 C   0  0  0  0  0  0  0  0  0  0  0  0
  -26.6370    0.6949   26.2625 C   0  0  0  0  0  0  0  0  0  0  0  0
  -27.9793    2.9890   26.9302 C   0  0  0  0  0  0  0  0  0  0  0  0
  -26.7855    1.6553   25.3362 C   0  0  0  0  0  0  0  0  0  0  0  0
  -27.4423    2.8583   25.6278 C   0  0  0  0  0  0  0  0  0  0  0  0
  -23.8163    0.1173   27.5713 C   0  0  0  0  0  0  0  0  0  0  0  0
  3  7  1  0
  7  8  1  0
  8  9  2  0
  8 10  1  0
  6 11  1  0
  2 12  1  0
  7 18  1  0
  1  2  2  0
  2  3  1  0
  3  4  2  0
  4  5  1  0
  5  6  2  0
  6  1  1  0
 12 13  2  0
 13 15  1  0
 15 17  2  0
 17 16  1  0
 16 14  2  0
 14 12  1  0
M  END

$$$$
