No_4560-gen_results/8p0m/2024-11-26-14-13-15/
     RDKit          3D

 17 18  0  0  0  0  0  0  0  0999 V2000
  -28.0162   -0.8135   28.8779 C   0  0  0  0  0  0  0  0  0  0  0  0
  -27.0636   -0.1190   28.6079 C   0  0  0  0  0  0  0  0  0  0  0  0
  -25.7923   -0.4302   29.0761 C   0  0  0  0  0  0  0  0  0  0  0  0
  -24.5456    0.3494   28.8225 C   0  0  0  0  0  0  0  0  0  0  0  0
  -24.6586    1.4196   27.8878 C   0  0  0  0  0  0  0  0  0  0  0  0
  -25.9471    1.6811   27.3792 C   0  0  0  0  0  0  0  0  0  0  0  0
  -27.0439    0.9739   27.6871 C   0  0  0  0  0  0  0  0  0  0  0  0
  -28.6703   -0.4455   30.2080 C   0  0  0  0  0  0  0  0  0  0  0  0
  -28.5247    0.4708   30.7424 F   0  0  0  0  0  0  0  0  0  0  0  0
  -28.3125   -1.5200   31.0768 F   0  0  0  0  0  0  0  0  0  0  0  0
  -30.0574   -0.6900   30.0034 F   0  0  0  0  0  0  0  0  0  0  0  0
  -23.4830    2.2216   27.6366 C   0  0  0  0  0  0  0  0  0  0  0  0
  -22.1876    1.7089   28.0346 C   0  0  0  0  0  0  0  0  0  0  0  0
  -22.1070    0.5890   28.8951 C   0  0  0  0  0  0  0  0  0  0  0  0
  -23.3008   -0.1534   29.2704 C   0  0  0  0  0  0  0  0  0  0  0  0
  -26.0464    2.8635   26.4955 C   0  0  0  0  0  0  0  0  0  0  0  0
  -28.2149    1.2866   27.1977 O   0  0  0  0  0  0  0  0  0  0  0  0
  1  2  1  0
  3  4  1  0
  5  6  1  0
  2  7  1  0
  6  7  1  0
  1  8  1  0
  8  9  1  0
  8 10  1  0
  8 11  1  0
  6 16  1  0
  7 17  2  0
  2  3  1  0
  4 15  2  0
 15 14  1  0
 14 13  2  0
 13 12  1  0
 12  5  2  0
  5  4  1  0
M  END

$$$$
