No_4493-gen_results/8p0m/2024-11-26-14-13-15/
     RDKit          3D

 24 24  0  0  0  0  0  0  0  0999 V2000
  -28.1229   -1.3353   28.4874 O   0  0  0  0  0  0  0  0  0  0  0  0
  -27.4806   -0.4044   28.7094 C   0  0  0  0  0  0  0  0  0  0  0  0
  -26.3804   -0.0867   27.9394 C   0  0  0  0  0  0  0  0  0  0  0  0
  -27.8993    0.6459   29.6320 N   0  0  0  0  0  0  0  0  0  0  0  0
  -25.2331   -0.5875   28.2500 N   0  0  0  0  0  0  0  0  0  0  0  0
  -24.0025    0.0862   28.2449 C   0  0  0  0  0  0  0  0  0  0  0  0
  -22.9230   -0.5012   28.9988 C   0  0  0  0  0  0  0  0  0  0  0  0
  -23.7716    1.2379   27.5187 C   0  0  0  0  0  0  0  0  0  0  0  0
  -22.4950    1.8583   27.5439 C   0  0  0  0  0  0  0  0  0  0  0  0
  -21.6424    0.1067   28.9514 C   0  0  0  0  0  0  0  0  0  0  0  0
  -21.4111    1.2435   28.2403 C   0  0  0  0  0  0  0  0  0  0  0  0
  -29.0030    0.3909   30.5307 C   0  0  0  0  0  0  0  0  0  0  0  0
  -26.5704    0.5373   26.6243 C   0  0  0  0  0  0  0  0  0  0  0  0
  -27.1008    1.7826   29.8629 C   0  0  0  0  0  0  0  0  0  0  0  0
  -27.6699    2.7776   30.6578 C   0  0  0  0  0  0  0  0  0  0  0  0
  -27.5762    3.8697   30.7620 C   0  0  0  0  0  0  0  0  0  0  0  0
  -26.6396    4.5847   29.7753 C   0  0  0  0  0  0  0  0  0  0  0  0
  -26.3582    5.9352   29.7544 C   0  0  0  0  0  0  0  0  0  0  0  0
  -25.4055    6.3737   28.7787 C   0  0  0  0  0  0  0  0  0  0  0  0
  -24.9719    7.7067   28.7403 C   0  0  0  0  0  0  0  0  0  0  0  0
  -24.0348    8.1357   27.7743 C   0  0  0  0  0  0  0  0  0  0  0  0
  -23.4405    9.3543   27.8995 C   0  0  0  0  0  0  0  0  0  0  0  0
  -23.7962   10.2004   29.0295 C   0  0  0  0  0  0  0  0  0  0  0  0
  -24.7322    9.7872   29.9270 C   0  0  0  0  0  0  0  0  0  0  0  0
  1  2  2  0
  2  3  1  0
  2  4  1  0
  3  5  1  0
  5  6  1  0
  4 12  1  0
  3 13  1  0
  4 14  1  0
 14 15  2  3
 15 16  1  0
 16 17  1  0
 17 18  1  0
 18 19  2  3
 19 20  1  0
 20 21  2  3
 21 22  1  0
 22 23  2  3
 23 24  1  0
  6  7  2  0
  7 10  1  0
 10 11  2  0
 11  9  1  0
  9  8  2  0
  8  6  1  0
M  END

$$$$
