No_4676-gen_results/8p0m/2024-11-26-14-13-15/
     RDKit          3D

 24 25  0  0  0  0  0  0  0  0999 V2000
  -28.0162   -0.8135   28.8779 C   0  0  0  0  0  0  0  0  0  0  0  0
  -27.0636   -0.1189   28.6079 C   0  0  0  0  0  0  0  0  0  0  0  0
  -27.0010    0.6913   27.4910 C   0  0  0  0  0  0  0  0  0  0  0  0
  -28.1373    0.7363   26.6350 C   0  0  0  0  0  0  0  0  0  0  0  0
  -29.2360    0.0765   27.0690 C   0  0  0  0  0  0  0  0  0  0  0  0
  -29.2177   -0.6429   28.1747 C   0  0  0  0  0  0  0  0  0  0  0  0
  -30.3516    0.1564   26.2430 N   0  0  0  0  0  0  0  0  0  0  0  0
  -30.2688    0.1234   24.9367 C   0  0  0  0  0  0  0  0  0  0  0  0
  -29.6118   -0.5250   24.3822 C   0  0  0  0  0  0  0  0  0  0  0  0
  -31.3893    0.8558   24.2543 C   0  0  0  0  0  0  0  0  0  0  0  0
  -28.6627   -1.2495   24.8805 O   0  0  0  0  0  0  0  0  0  0  0  0
  -31.6165    0.0829   26.9428 C   0  0  0  0  0  0  0  0  0  0  0  0
  -32.5249    0.9307   26.3248 C   0  0  0  0  0  0  0  0  0  0  0  0
  -32.5788    1.0398   24.9197 C   0  0  0  0  0  0  0  0  0  0  0  0
  -29.4844   -0.5868   23.0372 O   0  0  0  0  0  0  0  0  0  0  0  0
  -25.7008   -0.2471   29.3904 C   0  0  0  0  0  0  0  0  0  0  0  0
  -24.8672    0.5874   29.7092 N   0  0  0  0  0  0  0  0  0  0  0  0
  -23.6037    0.3455   30.0579 C   0  0  0  0  0  0  0  0  0  0  0  0
  -22.7407   -0.2166   29.1649 C   0  0  0  0  0  0  0  0  0  0  0  0
  -25.6392   -1.4117   30.0090 O   0  0  0  0  0  0  0  0  0  0  0  0
  -22.0826    0.6798   28.2961 C   0  0  0  0  0  0  0  0  0  0  0  0
  -22.6239    1.8826   27.8720 C   0  0  0  0  0  0  0  0  0  0  0  0
  -23.0063    2.6365   28.7230 F   0  0  0  0  0  0  0  0  0  0  0  0
  -22.6216    2.2133   26.6512 F   0  0  0  0  0  0  0  0  0  0  0  0
  5  7  1  0
  7  8  1  0
  8  9  1  0
  8 10  1  0
  9 11  2  0
  7 12  1  0
 13 14  1  0
  9 15  1  0
  2 16  1  0
 16 17  1  0
 17 18  1  0
 18 19  1  0
 16 20  2  0
 19 21  2  3
 21 22  1  0
 22 23  1  0
 22 24  1  0
 10 14  1  0
 13 12  1  0
  1  2  2  0
  2  3  1  0
  3  4  2  0
  4  5  1  0
  5  6  2  0
  6  1  1  0
M  END

$$$$
