No_4463-gen_results/8p0m/2024-11-26-14-13-15/
     RDKit          3D

 20 21  0  0  0  0  0  0  0  0999 V2000
  -28.0162   -0.8135   28.8779 C   0  0  0  0  0  0  0  0  0  0  0  0
  -27.0636   -0.1189   28.6079 C   0  0  0  0  0  0  0  0  0  0  0  0
  -25.7647   -0.3897   29.0360 C   0  0  0  0  0  0  0  0  0  0  0  0
  -25.5296   -1.5302   29.9014 C   0  0  0  0  0  0  0  0  0  0  0  0
  -26.6888   -2.2893   30.1810 C   0  0  0  0  0  0  0  0  0  0  0  0
  -27.8727   -1.9508   29.7373 C   0  0  0  0  0  0  0  0  0  0  0  0
  -24.5491    0.4100   28.7341 C   0  0  0  0  0  0  0  0  0  0  0  0
  -24.0931    1.3779   29.5761 C   0  0  0  0  0  0  0  0  0  0  0  0
  -24.8271    1.7177   30.7369 C   0  0  0  0  0  0  0  0  0  0  0  0
  -25.4132    2.6265   31.0809 C   0  0  0  0  0  0  0  0  0  0  0  0
  -25.9138    3.1833   31.9018 C   0  0  0  0  0  0  0  0  0  0  0  0
  -26.5337    4.5118   31.9943 C   0  0  0  0  0  0  0  0  0  0  0  0
  -26.5151    5.2477   30.8409 C   0  0  0  0  0  0  0  0  0  0  0  0
  -25.8909    4.7068   29.7359 C   0  0  0  0  0  0  0  0  0  0  0  0
  -25.3592    3.6318   29.7983 C   0  0  0  0  0  0  0  0  0  0  0  0
  -25.8209    5.5512   28.5028 C   0  0  0  0  0  0  0  0  0  0  0  0
  -26.6227    5.5091   27.7348 O   0  0  0  0  0  0  0  0  0  0  0  0
  -24.9637    6.6005   28.5028 O   0  0  0  0  0  0  0  0  0  0  0  0
  -27.1639    0.9367   27.7649 F   0  0  0  0  0  0  0  0  0  0  0  0
  -24.6054    0.6582   31.8270 C   0  0  0  0  0  0  0  0  0  0  0  0
  3  7  1  0
  7  8  2  3
  8  9  1  0
 14 16  1  0
 16 17  2  0
 16 18  1  0
  2 19  1  0
  9 20  1  0
  9 10  1  0
  1  2  2  0
  2  3  1  0
  3  4  2  0
  4  5  1  0
  5  6  2  0
  6  1  1  0
 10 11  2  0
 11 12  1  0
 12 13  2  0
 13 14  1  0
 14 15  2  0
 15 10  1  0
M  END

$$$$
