No_4165-gen_results/8p0m/2024-11-26-14-13-15/
     RDKit          3D

 25 27  0  0  0  0  0  0  0  0999 V2000
  -28.0162   -0.8135   28.8779 C   0  0  0  0  0  0  0  0  0  0  0  0
  -28.4690   -0.7850   29.8287 C   0  0  0  0  0  0  0  0  0  0  0  0
  -26.5042   -0.7777   28.8766 C   0  0  0  0  0  0  0  0  0  0  0  0
  -25.8103   -0.8531   30.1028 C   0  0  0  0  0  0  0  0  0  0  0  0
  -27.9906   -0.8916   31.2257 C   0  0  0  0  0  0  0  0  0  0  0  0
  -26.6042   -0.8676   31.2652 C   0  0  0  0  0  0  0  0  0  0  0  0
  -24.3894   -0.8049   30.1638 C   0  0  0  0  0  0  0  0  0  0  0  0
  -23.8172    0.4762   29.9117 C   0  0  0  0  0  0  0  0  0  0  0  0
  -22.5010    0.5449   29.4097 C   0  0  0  0  0  0  0  0  0  0  0  0
  -21.7696   -0.6524   29.2129 C   0  0  0  0  0  0  0  0  0  0  0  0
  -23.6812   -1.3591   31.3252 C   0  0  0  0  0  0  0  0  0  0  0  0
  -23.8058   -1.7929   29.1080 C   0  0  0  0  0  0  0  0  0  0  0  0
  -22.8395   -1.5787   28.5479 C   0  0  0  0  0  0  0  0  0  0  0  0
  -24.4712    1.7423   30.2472 C   0  0  0  0  0  0  0  0  0  0  0  0
  -24.6420    2.1717   31.3898 O   0  0  0  0  0  0  0  0  0  0  0  0
  -25.0763    2.4061   29.2177 N   0  0  0  0  0  0  0  0  0  0  0  0
  -25.9199    3.6600   29.4615 C   0  0  0  0  0  0  0  0  0  0  0  0
  -26.6135    3.8390   30.3522 C   0  0  0  0  0  0  0  0  0  0  0  0
  -27.4796    4.8852   30.4008 C   0  0  0  0  0  0  0  0  0  0  0  0
  -25.9606    4.4273   28.2875 C   0  0  0  0  0  0  0  0  0  0  0  0
  -26.7077    5.5830   28.2715 C   0  0  0  0  0  0  0  0  0  0  0  0
  -27.5139    5.8197   29.3827 C   0  0  0  0  0  0  0  0  0  0  0  0
  -30.0711   -0.7258   29.8502 C   0  0  0  0  0  0  0  0  0  0  0  0
  -30.7793   -1.4537   30.3786 O   0  0  0  0  0  0  0  0  0  0  0  0
  -30.5537    0.0441   28.8331 O   0  0  0  0  0  0  0  0  0  0  0  0
  4  7  1  0
  7  8  1  0
  9 10  1  0
  7 11  1  0
  7 12  1  0
 12 13  1  0
  8 14  1  0
 14 15  2  0
 14 16  1  0
 16 17  1  0
  2 23  1  0
 23 24  2  0
 23 25  1  0
  8  9  1  0
 10 13  1  0
 17 18  2  0
 18 19  1  0
 19 22  2  0
 22 21  1  0
 21 20  2  0
 20 17  1  0
  1  2  2  0
  2  5  1  0
  5  6  2  0
  6  4  1  0
  4  3  2  0
  3  1  1  0
M  END

$$$$
