No_4850-gen_results/8p0m/2024-11-26-14-13-15/
     RDKit          3D

  4  3  0  0  0  0  0  0  0  0999 V2000
  -28.1229   -1.3353   28.4874 O   0  0  0  0  0  0  0  0  0  0  0  0
  -28.5208   -0.4363   29.0779 C   0  0  0  0  0  0  0  0  0  0  0  0
  -29.6680   -0.1487   29.0496 F   0  0  0  0  0  0  0  0  0  0  0  0
  -27.7047    0.5933   29.0791 F   0  0  0  0  0  0  0  0  0  0  0  0
  1  2  2  0
  2  3  1  0
  2  4  1  0
M  END

$$$$
