No_4787-gen_results/8p0m/2024-11-26-14-13-15/
     RDKit          3D

 35 38  0  0  0  0  0  0  0  0999 V2000
  -28.0162   -0.8135   28.8779 C   0  0  0  0  0  0  0  0  0  0  0  0
  -27.0636   -0.1190   28.6079 C   0  0  0  0  0  0  0  0  0  0  0  0
  -27.0010    0.6913   27.4910 C   0  0  0  0  0  0  0  0  0  0  0  0
  -25.8548    1.4825   27.0830 C   0  0  0  0  0  0  0  0  0  0  0  0
  -24.6901    1.4526   27.8807 C   0  0  0  0  0  0  0  0  0  0  0  0
  -24.7379    0.6010   29.0416 C   0  0  0  0  0  0  0  0  0  0  0  0
  -25.8234   -0.1688   29.3887 C   0  0  0  0  0  0  0  0  0  0  0  0
  -29.2150   -0.1726   29.0132 N   0  0  0  0  0  0  0  0  0  0  0  0
  -29.7200    0.5474   28.3236 C   0  0  0  0  0  0  0  0  0  0  0  0
  -30.5805    0.3315   27.5838 C   0  0  0  0  0  0  0  0  0  0  0  0
  -31.0431    1.1004   26.4559 C   0  0  0  0  0  0  0  0  0  0  0  0
  -30.4958    2.4244   26.4358 C   0  0  0  0  0  0  0  0  0  0  0  0
  -29.5250    2.8237   27.2761 C   0  0  0  0  0  0  0  0  0  0  0  0
  -29.0593    1.9193   28.1730 C   0  0  0  0  0  0  0  0  0  0  0  0
  -27.9579   -2.0423   29.0186 F   0  0  0  0  0  0  0  0  0  0  0  0
  -30.0179   -0.5676   30.2851 C   0  0  0  0  0  0  0  0  0  0  0  0
  -23.5029    2.1395   27.5137 C   0  0  0  0  0  0  0  0  0  0  0  0
  -23.5355    2.8490   26.5707 F   0  0  0  0  0  0  0  0  0  0  0  0
  -22.9789    2.8656   28.5421 F   0  0  0  0  0  0  0  0  0  0  0  0
  -22.4840    1.1820   27.3126 F   0  0  0  0  0  0  0  0  0  0  0  0
  -30.9379   -1.4452   30.1586 C   0  0  0  0  0  0  0  0  0  0  0  0
  -31.3970   -1.9364   31.2611 C   0  0  0  0  0  0  0  0  0  0  0  0
  -29.6334    0.0213   31.4387 C   0  0  0  0  0  0  0  0  0  0  0  0
  -30.1504   -0.3439   32.5975 C   0  0  0  0  0  0  0  0  0  0  0  0
  -31.1160   -1.3828   32.5462 C   0  0  0  0  0  0  0  0  0  0  0  0
  -28.9762    4.1921   27.1992 C   0  0  0  0  0  0  0  0  0  0  0  0
  -27.6671    4.3431   27.4106 C   0  0  0  0  0  0  0  0  0  0  0  0
  -27.0394    5.6780   27.3744 C   0  0  0  0  0  0  0  0  0  0  0  0
  -25.6434    5.8741   27.6229 C   0  0  0  0  0  0  0  0  0  0  0  0
  -25.0614    7.1331   27.5694 C   0  0  0  0  0  0  0  0  0  0  0  0
  -25.8841    8.2420   27.2256 C   0  0  0  0  0  0  0  0  0  0  0  0
  -27.2056    8.0303   26.9724 C   0  0  0  0  0  0  0  0  0  0  0  0
  -27.7697    6.8119   26.9991 C   0  0  0  0  0  0  0  0  0  0  0  0
  -29.7181    5.2260   28.0491 C   0  0  0  0  0  0  0  0  0  0  0  0
  -30.8126    5.1830   28.4008 C   0  0  0  0  0  0  0  0  0  0  0  0
  1  2  1  0
  1  8  1  0
  8  9  1  0
  1 15  1  0
  8 16  1  0
  5 17  1  0
 17 18  1  0
 17 19  1  0
 17 20  1  0
 13 26  1  0
 26 27  2  3
 27 28  1  0
 26 34  1  0
 34 35  2  0
 28 29  2  0
 29 30  1  0
 30 31  2  0
 31 32  1  0
 32 33  2  0
 33 28  1  0
  2  3  2  0
  3  4  1  0
  4  5  2  0
  5  6  1  0
  6  7  2  0
  7  2  1  0
 16 21  2  0
 21 22  1  0
 22 25  2  0
 25 24  1  0
 24 23  2  0
 23 16  1  0
  9 10  2  0
 10 11  1  0
 11 12  2  0
 12 13  1  0
 13 14  2  0
 14  9  1  0
M  END

$$$$
