No_4863-gen_results/8p0m/2024-11-26-14-13-15/
     RDKit          3D

 35 39  0  0  0  0  0  0  0  0999 V2000
  -28.0162   -0.8135   28.8779 C   0  0  0  0  0  0  0  0  0  0  0  0
  -28.4690   -0.7850   29.8287 C   0  0  0  0  0  0  0  0  0  0  0  0
  -26.5042   -0.7777   28.8766 C   0  0  0  0  0  0  0  0  0  0  0  0
  -25.6540   -0.6597   27.7191 C   0  0  0  0  0  0  0  0  0  0  0  0
  -27.9180   -0.9374   31.1824 C   0  0  0  0  0  0  0  0  0  0  0  0
  -26.5423   -0.9399   31.2606 C   0  0  0  0  0  0  0  0  0  0  0  0
  -25.7832   -0.8935   30.1201 C   0  0  0  0  0  0  0  0  0  0  0  0
  -24.5285   -1.2244   27.7836 F   0  0  0  0  0  0  0  0  0  0  0  0
  -26.2846   -1.1686   26.5932 F   0  0  0  0  0  0  0  0  0  0  0  0
  -25.4202    0.6963   27.4164 F   0  0  0  0  0  0  0  0  0  0  0  0
  -30.0522   -0.8118   29.8922 C   0  0  0  0  0  0  0  0  0  0  0  0
  -30.6551   -1.7012   30.1430 O   0  0  0  0  0  0  0  0  0  0  0  0
  -30.5680    0.2629   29.1185 N   0  0  0  0  0  0  0  0  0  0  0  0
  -31.9700    0.3635   28.9154 C   0  0  0  0  0  0  0  0  0  0  0  0
  -29.8212    1.4490   28.6904 C   0  0  0  0  0  0  0  0  0  0  0  0
  -30.3135    2.2367   28.0768 C   0  0  0  0  0  0  0  0  0  0  0  0
  -32.4671    1.4198   28.1202 C   0  0  0  0  0  0  0  0  0  0  0  0
  -31.6419    2.4234   27.7628 C   0  0  0  0  0  0  0  0  0  0  0  0
  -29.4019    3.4735   27.5630 C   0  0  0  0  0  0  0  0  0  0  0  0
  -28.2017    3.2019   27.1129 C   0  0  0  0  0  0  0  0  0  0  0  0
  -27.2229    4.1802   26.8709 C   0  0  0  0  0  0  0  0  0  0  0  0
  -26.5242    4.6223   27.6459 C   0  0  0  0  0  0  0  0  0  0  0  0
  -25.2273    5.3508   27.3247 C   0  0  0  0  0  0  0  0  0  0  0  0
  -24.6469    5.0080   26.1023 C   0  0  0  0  0  0  0  0  0  0  0  0
  -25.1373    3.9510   25.3906 C   0  0  0  0  0  0  0  0  0  0  0  0
  -26.4369    3.4729   25.7596 C   0  0  0  0  0  0  0  0  0  0  0  0
  -29.2997    4.6455   28.5177 C   0  0  0  0  0  0  0  0  0  0  0  0
  -29.1663    4.7050   29.7038 C   0  0  0  0  0  0  0  0  0  0  0  0
  -29.3274    5.8729   30.4811 C   0  0  0  0  0  0  0  0  0  0  0  0
  -29.5223    7.0337   29.8017 C   0  0  0  0  0  0  0  0  0  0  0  0
  -29.7559    6.0115   28.0186 C   0  0  0  0  0  0  0  0  0  0  0  0
  -29.7908    7.1248   28.5562 C   0  0  0  0  0  0  0  0  0  0  0  0
  -24.5249    6.4961   28.3642 Cl  0  0  0  0  0  0  0  0  0  0  0  0
  -27.0107    2.5456   24.8258 C   0  0  0  0  0  0  0  0  0  0  0  0
  -28.4985    2.2972   25.7700 C   0  0  0  0  0  0  0  0  0  0  0  0
  3  4  1  0
  4  8  1  0
  4  9  1  0
  4 10  1  0
  2 11  1  0
 11 12  2  0
 11 13  1  0
 13 14  1  0
 13 15  1  0
 16 18  1  0
 17 18  1  0
 16 19  1  0
 19 20  2  3
 20 21  1  0
 19 27  1  0
 23 33  1  0
 26 34  1  0
 20 35  1  0
 34 35  1  0
 14 17  1  0
 16 15  1  0
 27 28  2  0
 28 29  1  0
 29 30  2  0
 30 32  1  0
 32 31  2  0
 31 27  1  0
  1  2  2  0
  2  5  1  0
  5  6  2  0
  6  7  1  0
  7  3  2  0
  3  1  1  0
 21 22  2  0
 22 23  1  0
 23 24  2  0
 24 25  1  0
 25 26  2  0
 26 21  1  0
M  END

$$$$
